data_image0
_chemical_formula_structural       HSCFeCSFeSCH2SFeS2FeS2FeSFeS3CH2CH3C2H2SC6H4C6H4SHCH3C2NHCHC2H2CH2C2SHCHCH3CHCHCH6CHC4H3C3H2C2HCH6SCFeCH6CH2CH2CH4CHNH3CHCNC4HC2H3CH17CH5C2H5CHFeSH3C2H6CH2CH7CH4C2HCH2NHCHCH4CH2CH3SHCH3CH2CHCHCH3C2H2SHFeCSFeSCH2SFeS2FeS2FeSFeS3C2FeH3C2HC2HC6H4C6H7CH5CH2NC10H14CHCH7C6HCH2C3HCH11CNH4CH2SCH3CH3CH4CH2CH5SCH3NC2H7NH3C2H11C3H3C2H2CH2C2HC3H2C4HCH2CH4CH4CH3CH3NCHC4H6C2FeCH2FeHSH2CH2FeS2H2SHFeS2FeSH2SHFeS2FeS2FeSFeS3FeS2FeS2FeSFeSC6H6C7HFeC4H3C6H4C6H4C2HC4H5C3HC2SCSH3CNH3CH2NH2SH2C2H3SHCH2CH10CH4NSHC3H3NC11H26NC12H28CH4CH2NCHCH4C2H8CHSC2H8CH3CHCH3CFeSHSHCFeCH2C2H3C4HNC4FeH2C2SCHCH6CH9C2HC2H3C3H4CH2SH3C2HC2HCHCH2CH4CH3CSCH4CHCHCFeHSH2CH2FeS2CH3FeHSHCFeS2HFeS2FeS2FeSFeS3FeS2FeS2FeSFeSC6H6C5H3SC5HC7H4C6H4CH3CH3CH2SH2CSNFeHC2H6CHSH2CH3SCH3C3H4CSHSHCHNC10HSH15CH6FeHCH5C2H2CH6CH7CH4NHNH5CH2C2HCHCH12C4H8NC12H4CHCNC2HC3FeH5FeHCH2CH3NH4CHCHC2HC2H3C2H2C2H2C2H3CH7CHCHCH3CH2C2H2CS2H7CHCHCH4SHFeHSFeSCH2SFeS2FeS2FeSFeS3HC7H5CH6CNH2C6H4C6H5CHCH4CHC2HCH5CH4SC3SH2CHCHCHNCHC2HCH4C3H6CH4C3H10C2H7CH4CHFeCH3NH6C2H3CHSCH6CH3CHCNC12H14C3H3C2H2CNH5SHCH5CHC3HC2H4CH3SH3CH2FeCH6C3H2SHFeHSFeSH3SFeS2FeS2FeSFeS4C7H2CHC2HCHC2H4C7H4C6H6CH2CHNHSC2H5CH4CH2CH4CFeCH3CH2CH3C2H2C2HCH6C3HC2H3CNH12CHFeH2CHCH2NCH10CH3CH2CH2CHNHC2HC2H2CH3CH2CH4CHSH6CHCHCH2NC11SH14CH2CH2CH2CH3CH5FeCSHSHFeSHCHSFeS2FeS2FeSFeS3HCHCH2C3H3CHC6H4C6H5CHCH3C2NH5C3H3CNH3CH3CH2CH6CH3C3H2C4HSHCHCH7CH4CH7CNH2SC3H2CH3CH3C2HC3H2CHCH2C2H2CHCH3NHCH3C2H4C2HCH3NH2CH3SH2CH7FeHC2HCH5CH2CH2FeCSH2CFeSH3SFeS2FeS2FeSFeS3C3H3C5H3C6H4C6H4CHSCHCH4C2H2C2HC3HCHSH4CHCH8C2H3CSHC2HCH2CHC2H3CH5NHCH2CH3SHCHCH3CHCHNCFeCHCHC4HCH18CHCHNC12H17CH10CH2CH3CH6CH2FeH4CH2CH2NSH2CH2CH3CHFeSFeHSHSCFeSH2CFe2S2FeCSFeSC2HFe2S2FeS2FeSFeHS2FeS2FeS2FeHFeS3HC6H4SC6H4C6H4SH3C5H5C6H5SH2C2H4CH3N2C9HC2H19CHSH7C2HC2HCH2CH2CH2SH3CH3CH2C2H5SHCH3NC5HC3HCH24C2H4C2HCH3C4HC2HCSC2HCNHCHSC2H2SH2CH2CH3CH2FeHCHSH5CH2CH3CNC11H26CHC3H8NH5CH2CH2NCNHCHC2H6C3FeH2CHCHC4H2C3SHSHFeSC2SHCSHNCSFeSCHC2FeS2FeS2FeSFeHS2FeS2FeS2FeHFeS3C7H5C6H4C6H4FeH3C7H3C6H6S2H4CH4CFeHCHSH3NC7SH17CH2C2H2CHCH2CHCHSCHFeHNH2C2FeCH2CHNC12H32C3HCH4CH2C3H4CH3CHC2H4CH4CHCH3CHCH10C2H2CHFeHC4H4CH5C2H3NSH4CH2C3HCHSH3CH5CHCH2CH5CH3CH5CHSH2SHC5H2SHSHCH5NHC2HCHCH3CSH3CFeHSHSHFeSHCHSFeS2FeS2FeSFeS3C3HC2H3CSHCH2C6H4C6H6CHCH3CH3C2H20CH2CHC5HCH4CHCNC12H38C2HCSCFeC2HCH7CHCHNC4HC2HSH8CH2C2H4C2HCHC2HCHCH3CHCH2FeNC7H3CHCH6NH3CH6C2H2SH4SHCFeHSHC2FeSFeH2SFeS2FeS2FeSFeS3C3SHCHC4H2CHC6H4C6H4CH3C2H6CHNH10C2H2CH8CH3SHCH4CN2C10HCH24SH3C2HC2H4CH4C2H2CH5CH3CH3C3HCH2C2H2C2H6CH3CNCHC2HSHCH2C2H2C2H3CH4CH4FeHC2H2
_chemical_formula_sum              "H2048 S256 C1152 Fe128 N64"
_cell_length_a       61.3235
_cell_length_b       61.2182
_cell_length_c       46.7199
_cell_angle_alpha    90.367
_cell_angle_beta     91.086
_cell_angle_gamma    87.9698

_space_group_name_H-M_alt    "P 1"
_space_group_IT_number       1

loop_
  _space_group_symop_operation_xyz
  'x, y, z'

loop_
  _atom_site_type_symbol
  _atom_site_label
  _atom_site_symmetry_multiplicity
  _atom_site_fract_x
  _atom_site_fract_y
  _atom_site_fract_z
  _atom_site_occupancy
  H   H1        1.0  0.43277  0.13746  0.22599  1.0000
  S   S1        1.0  0.40421  0.11652  0.04442  1.0000
  C   C1        1.0  0.43007  0.18667  0.35490  1.0000
  Fe  Fe1       1.0  0.37229  0.10957  0.47063  1.0000
  C   C2        1.0  0.40239  0.00988  0.01150  1.0000
  S   S2        1.0  0.35877  0.11916  0.42602  1.0000
  Fe  Fe2       1.0  0.37297  0.13592  0.03591  1.0000
  S   S3        1.0  0.35916  0.16126  0.06783  1.0000
  C   C3        1.0  0.42092  0.15081  0.23184  1.0000
  H   H2        1.0  0.38317  0.23635  0.16145  1.0000
  H   H3        1.0  0.42697  0.15948  0.25123  1.0000
  S   S4        1.0  0.38722  0.07537  0.47212  1.0000
  Fe  Fe3       1.0  0.39396  0.23635  0.25334  1.0000
  S   S5        1.0  0.39256  0.20104  0.26526  1.0000
  S   S6        1.0  0.42551  0.25212  0.23973  1.0000
  Fe  Fe4       1.0  0.34338  0.24445  0.25660  1.0000
  S   S7        1.0  0.33936  0.20895  0.26870  1.0000
  S   S8        1.0  0.31091  0.26480  0.24795  1.0000
  Fe  Fe5       1.0  0.36842  0.21221  0.29855  1.0000
  S   S9        1.0  0.37248  0.20255  0.34609  1.0000
  Fe  Fe6       1.0  0.36380  0.20043  0.23437  1.0000
  S   S10       1.0  0.36041  0.17113  0.20387  1.0000
  S   S11       1.0  0.37137  0.24823  0.28838  1.0000
  S   S12       1.0  0.36635  0.23521  0.22070  1.0000
  C   C4        1.0  0.29726  0.29141  0.24992  1.0000
  H   H4        1.0  0.47119  0.05128  0.39340  1.0000
  H   H5        1.0  0.40356  0.20090  0.17740  1.0000
  C   C5        1.0  0.27513  0.29370  0.24117  1.0000
  H   H6        1.0  0.46046  0.21285  0.15164  1.0000
  H   H7        1.0  0.35643  0.03963  0.02757  1.0000
  H   H8        1.0  0.26679  0.27943  0.23379  1.0000
  C   C6        1.0  0.45290  0.24146  0.24268  1.0000
  C   C7        1.0  0.45809  0.22121  0.25524  1.0000
  H   H9        1.0  0.43572  0.16574  0.49048  1.0000
  H   H10       1.0  0.44526  0.21180  0.26411  1.0000
  S   S13       1.0  0.44739  0.14687  0.99863  1.0000
  C   C8        1.0  0.36373  0.14218  0.40394  1.0000
  C   C9        1.0  0.37146  0.16176  0.41515  1.0000
  C   C10       1.0  0.37411  0.17989  0.39708  1.0000
  C   C11       1.0  0.36916  0.17879  0.36752  1.0000
  C   C12       1.0  0.36173  0.15910  0.35623  1.0000
  C   C13       1.0  0.35893  0.14101  0.37435  1.0000
  H   H11       1.0  0.37469  0.16319  0.43790  1.0000
  H   H12       1.0  0.37972  0.19504  0.40618  1.0000
  H   H13       1.0  0.35777  0.15793  0.33362  1.0000
  H   H14       1.0  0.35276  0.12606  0.36539  1.0000
  C   C14       1.0  0.36326  0.16876  0.16608  1.0000
  C   C15       1.0  0.36394  0.14784  0.15340  1.0000
  C   C16       1.0  0.36424  0.14519  0.12335  1.0000
  C   C17       1.0  0.36347  0.16350  0.10555  1.0000
  C   C18       1.0  0.36358  0.18442  0.11828  1.0000
  C   C19       1.0  0.36371  0.18705  0.14834  1.0000
  H   H15       1.0  0.36359  0.13356  0.16688  1.0000
  H   H16       1.0  0.36391  0.12900  0.11397  1.0000
  H   H17       1.0  0.36296  0.19870  0.10473  1.0000
  H   H18       1.0  0.36320  0.20320  0.15777  1.0000
  S   S14       1.0  0.40135  0.05435  0.02110  1.0000
  H   H19       1.0  0.46380  0.12195  0.37735  1.0000
  C   C20       1.0  0.31631  0.03993  0.46453  1.0000
  H   H20       1.0  0.44960  0.04012  0.41392  1.0000
  H   H21       1.0  0.39634  0.09061  0.40949  1.0000
  H   H22       1.0  0.47921  0.17376  0.16225  1.0000
  C   C21       1.0  0.43447  0.16949  0.09411  1.0000
  C   C22       1.0  0.27231  0.25074  0.17942  1.0000
  N   N1        1.0  0.29545  0.03802  0.48080  1.0000
  H   H23       1.0  0.31898  0.02534  0.45049  1.0000
  C   C23       1.0  0.23792  0.02410  0.44890  1.0000
  H   H24       1.0  0.28090  0.26615  0.17616  1.0000
  C   C24       1.0  0.42728  0.10197  0.39416  1.0000
  C   C25       1.0  0.26350  0.31415  0.24235  1.0000
  H   H25       1.0  0.43875  0.15194  0.09791  1.0000
  H   H26       1.0  0.47276  0.22487  0.34032  1.0000
  C   C26       1.0  0.46826  0.09578  0.49140  1.0000
  H   H27       1.0  0.46884  0.10238  0.42785  1.0000
  H   H28       1.0  0.48585  0.24677  0.35966  1.0000
  C   C27       1.0  0.25524  0.02713  0.47242  1.0000
  C   C28       1.0  0.41627  0.22530  0.15085  1.0000
  S   S15       1.0  0.35767  0.10882  0.00934  1.0000
  H   H29       1.0  0.31875  0.99504  0.47875  1.0000
  C   C29       1.0  0.33296  0.27755  0.17109  1.0000
  H   H30       1.0  0.07479  0.31492  0.18650  1.0000
  C   C30       1.0  0.43250  0.15207  0.38472  1.0000
  H   H31       1.0  0.40443  0.25237  0.17772  1.0000
  H   H32       1.0  0.43153  0.23349  0.14588  1.0000
  H   H33       1.0  0.46611  0.26928  0.22190  1.0000
  C   C31       1.0  0.44472  0.17225  0.37431  1.0000
  H   H34       1.0  0.24481  0.31661  0.38210  1.0000
  C   C32       1.0  0.48259  0.02508  0.03157  1.0000
  H   H35       1.0  0.07552  0.30933  0.10751  1.0000
  C   C33       1.0  0.29832  0.18384  0.22458  1.0000
  H   H36       1.0  0.47611  0.02360  0.44802  1.0000
  H   H37       1.0  0.39776  0.25513  0.14018  1.0000
  H   H38       1.0  0.47632  0.14440  0.39381  1.0000
  H   H39       1.0  0.44285  0.18874  0.21888  1.0000
  H   H40       1.0  0.45159  0.16531  0.19882  1.0000
  H   H41       1.0  0.44107  0.16025  0.15192  1.0000
  C   C34       1.0  0.47994  0.21312  0.25636  1.0000
  H   H42       1.0  0.30315  0.06289  0.43143  1.0000
  C   C35       1.0  0.35795  0.00474  0.01926  1.0000
  C   C36       1.0  0.41736  0.16676  0.20702  1.0000
  C   C37       1.0  0.44736  0.15318  0.43469  1.0000
  C   C38       1.0  0.45923  0.20361  0.17180  1.0000
  H   H43       1.0  0.31620  0.07055  0.00377  1.0000
  H   H44       1.0  0.35272  0.05538  0.43891  1.0000
  H   H45       1.0  0.41101  0.15755  0.18830  1.0000
  C   C39       1.0  0.46990  0.25355  0.23157  1.0000
  C   C40       1.0  0.43403  0.17699  0.14766  1.0000
  C   C41       1.0  0.39936  0.24334  0.15811  1.0000
  H   H46       1.0  0.45909  0.00025  0.02135  1.0000
  H   H47       1.0  0.33067  0.03966  0.47941  1.0000
  C   C42       1.0  0.29562  0.20553  0.20862  1.0000
  C   C43       1.0  0.47872  0.11568  0.41959  1.0000
  H   H48       1.0  0.27317  0.04921  0.44707  1.0000
  C   C44       1.0  0.46557  0.13059  0.39825  1.0000
  H   H49       1.0  0.44616  0.18896  0.47191  1.0000
  H   H50       1.0  0.43459  0.11332  0.43733  1.0000
  H   H51       1.0  0.34852  0.27164  0.18140  1.0000
  H   H52       1.0  0.23832  0.24165  0.18195  1.0000
  H   H53       1.0  0.24333  0.26225  0.15535  1.0000
  H   H54       1.0  0.33564  0.04504  0.41033  1.0000
  S   S16       1.0  0.40091  0.12466  0.49255  1.0000
  C   C45       1.0  0.42921  0.12072  0.41651  1.0000
  Fe  Fe7       1.0  0.39015  0.09045  0.01549  1.0000
  C   C46       1.0  0.24678  0.28430  0.30199  1.0000
  H   H55       1.0  0.48444  0.12558  0.43804  1.0000
  H   H56       1.0  0.26175  0.27494  0.29545  1.0000
  H   H57       1.0  0.27806  0.21039  0.20936  1.0000
  H   H58       1.0  0.45032  0.18260  0.39235  1.0000
  H   H59       1.0  0.45571  0.04918  0.03638  1.0000
  H   H60       1.0  0.41309  0.15666  0.44777  1.0000
  C   C47       1.0  0.23269  0.31757  0.32945  1.0000
  H   H61       1.0  0.41617  0.17466  0.14454  1.0000
  H   H62       1.0  0.41174  0.07087  0.38868  1.0000
  C   C48       1.0  0.43860  0.17842  0.20000  1.0000
  H   H63       1.0  0.28819  0.17119  0.21432  1.0000
  H   H64       1.0  0.36943  0.02170  0.47266  1.0000
  C   C49       1.0  0.48713  0.19781  0.03660  1.0000
  H   H65       1.0  0.03918  0.30764  0.01491  1.0000
  H   H66       1.0  0.30532  0.21769  0.22044  1.0000
  H   H67       1.0  0.43006  0.14160  0.36549  1.0000
  H   H68       1.0  0.46100  0.16440  0.43163  1.0000
  C   C50       1.0  0.48026  0.18892  0.17528  1.0000
  H   H69       1.0  0.45918  0.16686  0.36179  1.0000
  N   N2        1.0  0.44369  0.13913  0.40849  1.0000
  H   H70       1.0  0.44555  0.10021  0.00535  1.0000
  H   H71       1.0  0.33919  0.07403  0.41415  1.0000
  H   H72       1.0  0.41007  0.21676  0.13148  1.0000
  C   C51       1.0  0.43209  0.17814  0.47361  1.0000
  H   H73       1.0  0.32160  0.28347  0.18796  1.0000
  C   C52       1.0  0.38906  0.02844  0.01773  1.0000
  N   N3        1.0  0.30224  0.22347  0.15928  1.0000
  C   C53       1.0  0.31828  0.23913  0.17195  1.0000
  C   C54       1.0  0.30283  0.20296  0.17717  1.0000
  C   C55       1.0  0.31007  0.21725  0.12973  1.0000
  C   C56       1.0  0.27927  0.23325  0.15672  1.0000
  H   H74       1.0  0.24340  0.26933  0.19280  1.0000
  C   C57       1.0  0.32279  0.25935  0.15334  1.0000
  C   C58       1.0  0.29816  0.19837  0.11446  1.0000
  H   H75       1.0  0.46977  0.19279  0.99606  1.0000
  H   H76       1.0  0.13984  0.31215  0.07599  1.0000
  H   H77       1.0  0.32452  0.30896  0.26661  1.0000
  C   C59       1.0  0.30394  0.19692  0.08280  1.0000
  H   H78       1.0  0.33431  0.23048  0.17594  1.0000
  H   H79       1.0  0.31566  0.17798  0.22491  1.0000
  H   H80       1.0  0.29188  0.19063  0.16777  1.0000
  H   H81       1.0  0.31960  0.19522  0.17727  1.0000
  H   H82       1.0  0.32772  0.21246  0.13056  1.0000
  H   H83       1.0  0.30867  0.23160  0.11521  1.0000
  H   H84       1.0  0.27655  0.24137  0.13560  1.0000
  H   H85       1.0  0.26725  0.22004  0.15692  1.0000
  H   H86       1.0  0.33642  0.29154  0.15707  1.0000
  H   H87       1.0  0.41965  0.01172  0.00868  1.0000
  H   H88       1.0  0.33440  0.25458  0.13622  1.0000
  H   H89       1.0  0.30764  0.26606  0.14286  1.0000
  H   H90       1.0  0.28019  0.20063  0.11600  1.0000
  H   H91       1.0  0.30332  0.18245  0.12422  1.0000
  H   H92       1.0  0.27609  0.24545  0.20160  1.0000
  H   H93       1.0  0.08063  0.29641  0.15729  1.0000
  H   H94       1.0  0.46142  0.18150  0.11879  1.0000
  C   C60       1.0  0.07074  0.31111  0.16377  1.0000
  H   H95       1.0  0.05752  0.30725  0.06247  1.0000
  H   H96       1.0  0.22248  0.01906  0.45859  1.0000
  H   H97       1.0  0.32187  0.19469  0.08036  1.0000
  H   H98       1.0  0.29606  0.18264  0.07275  1.0000
  H   H99       1.0  0.29814  0.21192  0.07132  1.0000
  C   C61       1.0  0.47033  0.01070  0.00951  1.0000
  C   C62       1.0  0.42730  0.16701  0.44492  1.0000
  H   H100      1.0  0.40475  0.17896  0.21375  1.0000
  H   H101      1.0  0.41979  0.10814  0.37385  1.0000
  H   H102      1.0  0.48371  0.19740  0.26603  1.0000
  H   H103      1.0  0.24335  0.01118  0.43353  1.0000
  H   H104      1.0  0.47549  0.04865  0.06538  1.0000
  C   C63       1.0  0.36618  0.00812  0.48646  1.0000
  H   H105      1.0  0.19313  0.31995  0.35815  1.0000
  Fe  Fe8       1.0  0.41501  0.13196  0.00413  1.0000
  S   S17       1.0  0.44777  0.07712  0.48507  1.0000
  H   H106      1.0  0.31318  0.24497  0.19334  1.0000
  H   H107      1.0  0.41641  0.17164  0.09218  1.0000
  H   H108      1.0  0.42032  0.07671  0.42495  1.0000
  C   C64       1.0  0.27708  0.03413  0.45958  1.0000
  C   C65       1.0  0.24783  0.25626  0.17714  1.0000
  H   H109      1.0  0.05312  0.30751  0.16208  1.0000
  H   H110      1.0  0.46185  0.21755  0.01485  1.0000
  H   H111      1.0  0.44342  0.09415  0.38954  1.0000
  H   H112      1.0  0.45994  0.21629  0.18904  1.0000
  H   H113      1.0  0.34070  0.00284  0.02255  1.0000
  H   H114      1.0  0.41757  0.18819  0.48018  1.0000
  C   C66       1.0  0.31779  0.06048  0.44545  1.0000
  H   H115      1.0  0.42290  0.17701  0.33706  1.0000
  H   H116      1.0  0.43938  0.20095  0.11312  1.0000
  C   C67       1.0  0.33756  0.05854  0.42606  1.0000
  H   H117      1.0  0.28211  0.02169  0.44327  1.0000
  H   H118      1.0  0.07438  0.31862  0.03536  1.0000
  H   H119      1.0  0.44156  0.17427  0.07348  1.0000
  H   H120      1.0  0.29310  0.18614  0.24707  1.0000
  H   H121      1.0  0.31952  0.07537  0.45889  1.0000
  H   H122      1.0  0.45285  0.14276  0.45299  1.0000
  H   H123      1.0  0.24875  0.03965  0.48758  1.0000
  C   C68       1.0  0.30756  0.31019  0.25980  1.0000
  H   H124      1.0  0.42159  0.21832  0.19604  1.0000
  H   H125      1.0  0.40514  0.14348  0.23696  1.0000
  H   H126      1.0  0.24654  0.31537  0.23560  1.0000
  H   H127      1.0  0.43962  0.19989  0.34565  1.0000
  C   C69       1.0  0.44337  0.18369  0.11844  1.0000
  C   C70       1.0  0.39360  0.98892  0.00902  1.0000
  H   H128      1.0  0.41567  0.15738  0.39090  1.0000
  C   C71       1.0  0.41303  0.08398  0.40509  1.0000
  H   H129      1.0  0.42269  0.17999  0.42923  1.0000
  H   H130      1.0  0.41668  0.19440  0.36752  1.0000
  N   N4        1.0  0.43795  0.19196  0.17302  1.0000
  H   H131      1.0  0.41227  0.12710  0.42032  1.0000
  C   C72       1.0  0.41950  0.20885  0.17575  1.0000
  H   H132      1.0  0.23458  0.03964  0.43719  1.0000
  C   C73       1.0  0.36678  0.02570  0.02181  1.0000
  H   H133      1.0  0.48137  0.01416  0.41243  1.0000
  H   H134      1.0  0.23657  0.27327  0.31440  1.0000
  H   H135      1.0  0.46618  0.06089  0.42950  1.0000
  H   H136      1.0  0.28145  0.30561  0.40076  1.0000
  C   C74       1.0  0.46643  0.03829  0.04996  1.0000
  H   H137      1.0  0.09892  0.31872  0.06982  1.0000
  H   H138      1.0  0.45607  0.02725  0.06217  1.0000
  C   C75       1.0  0.25317  0.30402  0.32014  1.0000
  H   H139      1.0  0.23763  0.28967  0.28238  1.0000
  H   H140      1.0  0.45288  0.19162  0.02729  1.0000
  H   H141      1.0  0.47880  0.24970  0.32218  1.0000
  S   S18       1.0  0.38500  0.15279  0.99660  1.0000
  H   H142      1.0  0.11576  0.31907  0.11691  1.0000
  C   C76       1.0  0.48478  0.23795  0.33886  1.0000
  H   H143      1.0  0.26215  0.29740  0.33919  1.0000
  H   H144      1.0  0.48270  0.18423  0.19811  1.0000
  H   H145      1.0  0.29022  0.99281  0.47086  1.0000
  C   C77       1.0  0.46666  0.20001  0.01754  1.0000
  H   H146      1.0  0.26421  0.31384  0.30733  1.0000
  H   H147      1.0  0.22318  0.30593  0.34184  1.0000
  C   C78       1.0  0.46080  0.10395  0.99559  1.0000
  H   H148      1.0  0.45948  0.02223  0.99701  1.0000
  C   C79       1.0  0.46640  0.04634  0.41516  1.0000
  H   H149      1.0  0.48334  0.20575  0.05747  1.0000
  C   C80       1.0  0.48217  0.02855  0.42700  1.0000
  H   H150      1.0  0.48086  0.16683  0.05459  1.0000
  H   H151      1.0  0.28607  0.07248  0.48236  1.0000
  H   H152      1.0  0.25727  0.01137  0.48393  1.0000
  C   C81       1.0  0.30225  0.99635  0.48807  1.0000
  C   C82       1.0  0.05960  0.32154  0.04841  1.0000
  H   H153      1.0  0.47192  0.07021  0.99311  1.0000
  H   H154      1.0  0.43059  0.08826  0.90303  1.0000
  S   S19       1.0  0.40030  0.08483  0.53961  1.0000
  H   H155      1.0  0.35402  0.24451  0.92113  1.0000
  Fe  Fe9       1.0  0.37272  0.12460  0.97090  1.0000
  C   C83       1.0  0.42575  0.13488  0.90187  1.0000
  S   S20       1.0  0.36118  0.12411  0.92395  1.0000
  Fe  Fe10      1.0  0.38409  0.11826  0.53444  1.0000
  S   S21       1.0  0.38920  0.14466  0.56926  1.0000
  C   C84       1.0  0.41594  0.17479  0.81794  1.0000
  H   H156      1.0  0.41163  0.08433  0.87364  1.0000
  H   H157      1.0  0.28285  0.20454  0.81429  1.0000
  S   S22       1.0  0.40394  0.10489  0.97588  1.0000
  Fe  Fe11      1.0  0.40282  0.22272  0.74890  1.0000
  S   S23       1.0  0.38653  0.19087  0.75690  1.0000
  S   S24       1.0  0.43982  0.21477  0.74744  1.0000
  Fe  Fe12      1.0  0.35738  0.24839  0.74723  1.0000
  S   S25       1.0  0.33970  0.21764  0.75511  1.0000
  S   S26       1.0  0.33933  0.28247  0.74315  1.0000
  Fe  Fe13      1.0  0.36578  0.20950  0.78854  1.0000
  S   S27       1.0  0.36029  0.20451  0.83663  1.0000
  Fe  Fe14      1.0  0.36238  0.20179  0.72259  1.0000
  S   S28       1.0  0.34819  0.17972  0.68743  1.0000
  S   S29       1.0  0.38291  0.24099  0.78197  1.0000
  S   S30       1.0  0.37914  0.23290  0.71305  1.0000
  C   C85       1.0  0.31293  0.29646  0.74584  1.0000
  C   C86       1.0  0.41649  0.09575  0.89098  1.0000
  Fe  Fe15      1.0  0.37188  0.07162  0.51462  1.0000
  H   H158      1.0  0.42964  0.14453  0.83405  1.0000
  H   H159      1.0  0.31089  0.20301  0.80294  1.0000
  H   H160      1.0  0.42976  0.20971  0.94723  1.0000
  C   C87       1.0  0.42517  0.16757  0.87048  1.0000
  C   C88       1.0  0.46592  0.22670  0.74948  1.0000
  H   H161      1.0  0.40982  0.12290  0.86293  1.0000
  C   C89       1.0  0.46859  0.24909  0.75398  1.0000
  C   C90       1.0  0.42101  0.19554  0.95545  1.0000
  H   H162      1.0  0.45438  0.25988  0.75632  1.0000
  C   C91       1.0  0.36206  0.14652  0.89983  1.0000
  C   C92       1.0  0.36327  0.16811  0.90956  1.0000
  C   C93       1.0  0.36283  0.18552  0.88986  1.0000
  C   C94       1.0  0.36160  0.18164  0.86014  1.0000
  C   C95       1.0  0.36084  0.16000  0.85036  1.0000
  C   C96       1.0  0.36093  0.14259  0.87011  1.0000
  H   H163      1.0  0.36395  0.17145  0.93232  1.0000
  H   H164      1.0  0.36331  0.20215  0.89774  1.0000
  H   H165      1.0  0.35964  0.15671  0.82761  1.0000
  H   H166      1.0  0.35985  0.12599  0.86229  1.0000
  C   C97       1.0  0.36047  0.16915  0.65549  1.0000
  C   C98       1.0  0.34872  0.15482  0.63775  1.0000
  C   C99       1.0  0.35739  0.14668  0.61176  1.0000
  C   C100      1.0  0.37792  0.15298  0.60288  1.0000
  C   C101      1.0  0.38969  0.16727  0.62068  1.0000
  C   C102      1.0  0.38114  0.17518  0.64685  1.0000
  H   H167      1.0  0.33272  0.15002  0.64411  1.0000
  H   H168      1.0  0.34805  0.13582  0.59838  1.0000
  H   H169      1.0  0.40554  0.17233  0.61409  1.0000
  H   H170      1.0  0.39043  0.18617  0.66011  1.0000
  H   H171      1.0  0.28347  0.22725  0.73018  1.0000
  H   H172      1.0  0.43808  0.11388  0.86618  1.0000
  H   H173      1.0  0.31285  0.02185  0.51590  1.0000
  C   C103      1.0  0.30309  0.24096  0.69709  1.0000
  H   H174      1.0  0.44178  0.00484  0.96338  1.0000
  H   H175      1.0  0.36739  0.28539  0.80029  1.0000
  H   H176      1.0  0.39896  0.16929  0.81934  1.0000
  H   H177      1.0  0.40727  0.16566  0.87271  1.0000
  H   H178      1.0  0.48056  0.14883  0.92380  1.0000
  C   C104      1.0  0.42298  0.11737  0.87818  1.0000
  H   H179      1.0  0.46084  0.13918  0.86462  1.0000
  H   H180      1.0  0.28913  0.20791  0.77708  1.0000
  N   N5        1.0  0.36100  0.04359  0.92838  1.0000
  C   C105      1.0  0.36013  0.04499  0.89610  1.0000
  C   C106      1.0  0.35770  0.02031  0.93793  1.0000
  C   C107      1.0  0.34243  0.05797  0.93954  1.0000
  C   C108      1.0  0.38207  0.05193  0.94080  1.0000
  C   C109      1.0  0.40340  0.04014  0.93092  1.0000
  C   C110      1.0  0.35986  0.06835  0.88328  1.0000
  C   C111      1.0  0.33836  0.05688  0.97216  1.0000
  C   C112      1.0  0.48490  0.22347  0.66049  1.0000
  C   C113      1.0  0.42350  0.04969  0.94555  1.0000
  C   C114      1.0  0.36326  0.06768  0.85097  1.0000
  H   H181      1.0  0.36959  0.30993  0.82147  1.0000
  H   H182      1.0  0.34511  0.03720  0.88773  1.0000
  H   H183      1.0  0.37393  0.03558  0.88646  1.0000
  H   H184      1.0  0.36516  0.01757  0.95961  1.0000
  H   H185      1.0  0.34000  0.01734  0.94045  1.0000
  H   H186      1.0  0.32689  0.05397  0.92820  1.0000
  H   H187      1.0  0.34521  0.07551  0.93506  1.0000
  H   H188      1.0  0.38331  0.06973  0.93688  1.0000
  H   H189      1.0  0.38222  0.05047  0.96445  1.0000
  H   H190      1.0  0.40534  0.04170  0.90749  1.0000
  H   H191      1.0  0.40356  0.02268  0.93697  1.0000
  H   H192      1.0  0.34387  0.07693  0.88695  1.0000
  H   H193      1.0  0.37276  0.07825  0.89303  1.0000
  H   H194      1.0  0.26683  0.27191  0.60275  1.0000
  C   C115      1.0  0.36589  0.00149  0.91785  1.0000
  H   H195      1.0  0.47727  0.23622  0.64617  1.0000
  C   C116      1.0  0.36187  0.01200  0.51543  1.0000
  H   H196      1.0  0.42347  0.06768  0.94325  1.0000
  H   H197      1.0  0.42395  0.04573  0.96870  1.0000
  H   H198      1.0  0.43857  0.04262  0.93585  1.0000
  H   H199      1.0  0.36253  0.08460  0.84246  1.0000
  H   H200      1.0  0.37948  0.06009  0.84599  1.0000
  H   H201      1.0  0.35028  0.05830  0.84010  1.0000
  H   H202      1.0  0.30295  0.31044  0.82237  1.0000
  C   C117      1.0  0.34175  0.25697  0.91330  1.0000
  C   C118      1.0  0.35795  0.29847  0.81163  1.0000
  C   C119      1.0  0.30765  0.06624  0.51902  1.0000
  C   C120      1.0  0.34396  0.28886  0.83477  1.0000
  C   C121      1.0  0.46322  0.11734  0.49962  1.0000
  C   C122      1.0  0.32892  0.27091  0.82254  1.0000
  H   H203      1.0  0.33556  0.03996  0.97918  1.0000
  C   C123      1.0  0.34233  0.28921  0.65360  1.0000
  H   H204      1.0  0.46887  0.16459  0.87829  1.0000
  H   H205      1.0  0.30333  0.06443  0.96977  1.0000
  C   C124      1.0  0.28986  0.27887  0.83359  1.0000
  C   C125      1.0  0.33292  0.25004  0.88395  1.0000
  C   C126      1.0  0.31484  0.23395  0.66918  1.0000
  H   H206      1.0  0.31358  0.09277  0.54882  1.0000
  C   C127      1.0  0.30634  0.26030  0.62972  1.0000
  H   H207      1.0  0.27947  0.24325  0.80006  1.0000
  H   H208      1.0  0.29993  0.26361  0.88486  1.0000
  H   H209      1.0  0.42462  0.04058  0.52627  1.0000
  H   H210      1.0  0.31953  0.28315  0.87872  1.0000
  H   H211      1.0  0.35245  0.06319  0.98448  1.0000
  H   H212      1.0  0.46821  0.12313  0.91600  1.0000
  H   H213      1.0  0.32284  0.27616  0.80099  1.0000
  H   H214      1.0  0.27733  0.21734  0.69463  1.0000
  H   H215      1.0  0.31915  0.23036  0.83827  1.0000
  H   H216      1.0  0.42752  0.01117  0.56316  1.0000
  H   H217      1.0  0.34515  0.26294  0.68447  1.0000
  C   C128      1.0  0.47973  0.13264  0.50116  1.0000
  N   N6        1.0  0.30994  0.26479  0.84075  1.0000
  H   H218      1.0  0.30190  0.20766  0.71331  1.0000
  H   H219      1.0  0.43907  0.22263  0.64914  1.0000
  H   H220      1.0  0.35517  0.28177  0.85145  1.0000
  H   H221      1.0  0.47358  0.19439  0.68189  1.0000
  C   C129      1.0  0.35764  0.99405  0.53290  1.0000
  H   H222      1.0  0.30718  0.24255  0.78773  1.0000
  H   H223      1.0  0.30380  0.22351  0.65625  1.0000
  S   S31       1.0  0.35927  0.03889  0.53027  1.0000
  C   C130      1.0  0.43895  0.01068  0.54501  1.0000
  H   H224      1.0  0.27569  0.27329  0.84588  1.0000
  H   H225      1.0  0.25747  0.31045  0.84898  1.0000
  H   H226      1.0  0.35668  0.23848  0.64857  1.0000
  C   C131      1.0  0.34943  0.30691  0.67467  1.0000
  H   H227      1.0  0.36195  0.30019  0.69005  1.0000
  H   H228      1.0  0.40885  0.13945  0.90845  1.0000
  H   H229      1.0  0.40716  0.18697  0.91479  1.0000
  C   C132      1.0  0.48599  0.13044  0.97883  1.0000
  H   H230      1.0  0.32005  0.08811  0.97360  1.0000
  H   H231      1.0  0.41349  0.00171  0.51500  1.0000
  H   H232      1.0  0.43328  0.12718  0.92136  1.0000
  H   H233      1.0  0.40789  0.16546  0.94091  1.0000
  C   C133      1.0  0.46072  0.14935  0.88430  1.0000
  H   H234      1.0  0.32347  0.22250  0.60276  1.0000
  H   H235      1.0  0.42160  0.17180  0.79577  1.0000
  C   C134      1.0  0.41733  0.17875  0.93167  1.0000
  H   H236      1.0  0.44747  0.16048  0.93801  1.0000
  H   H237      1.0  0.44784  0.16691  0.83444  1.0000
  H   H238      1.0  0.48285  0.19565  0.74298  1.0000
  H   H239      1.0  0.40263  0.09841  0.90569  1.0000
  H   H240      1.0  0.46568  0.23229  0.84597  1.0000
  S   S32       1.0  0.35418  0.10492  0.51204  1.0000
  C   C135      1.0  0.43093  0.16216  0.83891  1.0000
  H   H241      1.0  0.41610  0.19266  0.82224  1.0000
  H   H242      1.0  0.43468  0.20022  0.67297  1.0000
  H   H243      1.0  0.34980  0.27289  0.91184  1.0000
  N   N7        1.0  0.43772  0.15494  0.89369  1.0000
  C   C136      1.0  0.27319  0.29731  0.75135  1.0000
  C   C137      1.0  0.43934  0.16947  0.91988  1.0000
  H   H244      1.0  0.33474  0.30266  0.84471  1.0000
  H   H245      1.0  0.40500  0.20152  0.96373  1.0000
  H   H246      1.0  0.42760  0.18545  0.87288  1.0000
  H   H247      1.0  0.35413  0.99680  0.55528  1.0000
  H   H248      1.0  0.44976  0.18356  0.91536  1.0000
  H   H249      1.0  0.31382  0.27069  0.61337  1.0000
  H   H250      1.0  0.35456  0.19789  0.58836  1.0000
  N   N8        1.0  0.32353  0.25185  0.65084  1.0000
  H   H251      1.0  0.33523  0.31355  0.68679  1.0000
  H   H252      1.0  0.32606  0.23359  0.88633  1.0000
  H   H253      1.0  0.29398  0.26790  0.75090  1.0000
  C   C138      1.0  0.31492  0.26644  0.87246  1.0000
  C   C139      1.0  0.47574  0.08697  0.98881  1.0000
  H   H254      1.0  0.44584  0.04486  0.55268  1.0000
  H   H255      1.0  0.25840  0.28850  0.75412  1.0000
  H   H256      1.0  0.44022  0.99931  0.50151  1.0000
  H   H257      1.0  0.29939  0.24657  0.61731  1.0000
  H   H258      1.0  0.46795  0.19440  0.64374  1.0000
  H   H259      1.0  0.29140  0.25492  0.69409  1.0000
  H   H260      1.0  0.28228  0.29646  0.60723  1.0000
  H   H261      1.0  0.45536  0.00508  0.55286  1.0000
  H   H262      1.0  0.34679  0.24834  0.86911  1.0000
  H   H263      1.0  0.28518  0.08690  0.54394  1.0000
  H   H264      1.0  0.33990  0.25640  0.81822  1.0000
  C   C140      1.0  0.29348  0.28550  0.74956  1.0000
  C   C141      1.0  0.29072  0.22209  0.70951  1.0000
  C   C142      1.0  0.34239  0.24215  0.63399  1.0000
  H   H265      1.0  0.46525  0.21602  0.81349  1.0000
  H   H266      1.0  0.37263  0.21271  0.61159  1.0000
  H   H267      1.0  0.27572  0.26167  0.65306  1.0000
  C   C143      1.0  0.44067  0.03418  0.53467  1.0000
  C   C144      1.0  0.30449  0.24130  0.83459  1.0000
  H   H268      1.0  0.29196  0.23577  0.84968  1.0000
  H   H269      1.0  0.28527  0.27717  0.81058  1.0000
  C   C145      1.0  0.35736  0.21406  0.59848  1.0000
  H   H270      1.0  0.31969  0.27709  0.68364  1.0000
  H   H271      1.0  0.35939  0.22621  0.58128  1.0000
  C   C146      1.0  0.29469  0.21137  0.79935  1.0000
  C   C147      1.0  0.29614  0.23607  0.80387  1.0000
  H   H272      1.0  0.46158  0.00369  0.93542  1.0000
  C   C148      1.0  0.46653  0.21535  0.83725  1.0000
  C   C149      1.0  0.27267  0.28419  0.61847  1.0000
  C   C150      1.0  0.33798  0.22071  0.61713  1.0000
  H   H273      1.0  0.34800  0.25406  0.61809  1.0000
  H   H274      1.0  0.35453  0.00018  0.89914  1.0000
  C   C151      1.0  0.28645  0.27312  0.64220  1.0000
  C   C152      1.0  0.43047  0.99576  0.52055  1.0000
  C   C153      1.0  0.44558  0.21384  0.66837  1.0000
  C   C154      1.0  0.33237  0.26986  0.66950  1.0000
  H   H275      1.0  0.44534  0.22524  0.68695  1.0000
  C   C155      1.0  0.46874  0.20475  0.66322  1.0000
  H   H276      1.0  0.29133  0.28609  0.65742  1.0000
  H   H277      1.0  0.33028  0.29692  0.63845  1.0000
  C   C156      1.0  0.31823  0.07087  0.98019  1.0000
  H   H278      1.0  0.33534  0.20703  0.63200  1.0000
  H   H279      1.0  0.38234  0.00405  0.90948  1.0000
  H   H280      1.0  0.43055  0.18802  0.97348  1.0000
  H   H281      1.0  0.35702  0.28371  0.64168  1.0000
  C   C157      1.0  0.47597  0.13736  0.90644  1.0000
  H   H282      1.0  0.32835  0.25836  0.92895  1.0000
  H   H283      1.0  0.32850  0.22275  0.67666  1.0000
  H   H284      1.0  0.31540  0.24599  0.71333  1.0000
  H   H285      1.0  0.25822  0.29277  0.62793  1.0000
  C   C158      1.0  0.30093  0.08810  0.53279  1.0000
  H   H286      1.0  0.45236  0.20660  0.84516  1.0000
  H   H287      1.0  0.31013  0.05421  0.53655  1.0000
  H   H288      1.0  0.27498  0.05678  0.50984  1.0000
  C   C159      1.0  0.31149  0.31948  0.74405  1.0000
  H   H289      1.0  0.26301  0.31225  0.81118  1.0000
  H   H290      1.0  0.29716  0.30792  0.86012  1.0000
  H   H291      1.0  0.34747  0.30771  0.79590  1.0000
  N   N9        1.0  0.48441  0.99705  0.98961  1.0000
  C   C160      1.0  0.45325  0.99390  0.95153  1.0000
  H   H292      1.0  0.48514  0.02504  0.96129  1.0000
  C   C161      1.0  0.29159  0.30382  0.83811  1.0000
  C   C162      1.0  0.26946  0.31564  0.83308  1.0000
  C   C163      1.0  0.29840  0.01937  0.50162  1.0000
  C   C164      1.0  0.27173  0.32036  0.74953  1.0000
  H   H293      1.0  0.29941  0.10114  0.51637  1.0000
  H   H294      1.0  0.47575  0.14952  0.50650  1.0000
  H   H295      1.0  0.44661  0.12242  0.50408  1.0000
  H   H296      1.0  0.28433  0.01898  0.51631  1.0000
  H   H297      1.0  0.32346  0.06833  0.50854  1.0000
  H   H298      1.0  0.45290  0.03503  0.51753  1.0000
  C   C165      1.0  0.28999  0.05871  0.49727  1.0000
  C   C166      1.0  0.48467  0.21299  0.74651  1.0000
  Fe  Fe16      1.0  0.41448  0.09033  0.49666  1.0000
  C   C167      1.0  0.46598  0.12566  0.99060  1.0000
  H   H299      1.0  0.48559  0.23092  0.68225  1.0000
  H   H300      1.0  0.35656  0.32054  0.66286  1.0000
  Fe  Fe17      1.0  0.10830  0.39755  0.03515  1.0000
  H   H301      1.0  0.04606  0.57877  0.06118  1.0000
  S   S33       1.0  0.13646  0.38855  0.06649  1.0000
  H   H302      1.0  0.00990  0.53407  0.02772  1.0000
  H   H303      1.0  0.20248  0.56199  0.06851  1.0000
  C   C168      1.0  0.99994  0.38298  0.01966  1.0000
  H   H304      1.0  0.04943  0.63901  0.01081  1.0000
  H   H305      1.0  0.28128  0.32503  0.35398  1.0000
  Fe  Fe18      1.0  0.09525  0.40027  0.47074  1.0000
  S   S34       1.0  0.10471  0.39346  0.42386  1.0000
  S   S35       1.0  0.07699  0.41558  0.04504  1.0000
  H   H306      1.0  0.03497  0.46443  0.48766  1.0000
  H   H307      1.0  0.12698  0.54122  0.04027  1.0000
  S   S36       1.0  0.10804  0.58603  0.01063  1.0000
  H   H308      1.0  0.03718  0.54350  0.02391  1.0000
  Fe  Fe19      1.0  0.11899  0.61315  0.45006  1.0000
  S   S37       1.0  0.12497  0.58141  0.47320  1.0000
  S   S38       1.0  0.14931  0.62519  0.42803  1.0000
  Fe  Fe20      1.0  0.09191  0.57337  0.45633  1.0000
  S   S39       1.0  0.08596  0.54069  0.43637  1.0000
  H   H309      1.0  0.01026  0.48259  0.44805  1.0000
  H   H310      1.0  0.18137  0.56637  0.99312  1.0000
  S   S40       1.0  0.08656  0.60408  0.43085  1.0000
  H   H311      1.0  0.06909  0.40914  0.11756  1.0000
  Fe  Fe21      1.0  0.20738  0.42741  0.24385  1.0000
  S   S41       1.0  0.17463  0.41781  0.25909  1.0000
  S   S42       1.0  0.20556  0.46187  0.22458  1.0000
  Fe  Fe22      1.0  0.22682  0.37947  0.25215  1.0000
  S   S43       1.0  0.19438  0.36764  0.26703  1.0000
  S   S44       1.0  0.25994  0.35940  0.25456  1.0000
  Fe  Fe23      1.0  0.17945  0.38827  0.23070  1.0000
  S   S45       1.0  0.14927  0.38211  0.20238  1.0000
  Fe  Fe24      1.0  0.19212  0.39855  0.29370  1.0000
  S   S46       1.0  0.18687  0.40224  0.34221  1.0000
  S   S47       1.0  0.21182  0.39822  0.21428  1.0000
  S   S48       1.0  0.22499  0.40992  0.28019  1.0000
  Fe  Fe25      1.0  0.19206  0.62135  0.26227  1.0000
  S   S49       1.0  0.22826  0.61829  0.27095  1.0000
  S   S50       1.0  0.16319  0.62114  0.29272  1.0000
  Fe  Fe26      1.0  0.19738  0.61202  0.19682  1.0000
  S   S51       1.0  0.23407  0.60760  0.20180  1.0000
  S   S52       1.0  0.17484  0.60068  0.16009  1.0000
  Fe  Fe27      1.0  0.22729  0.58859  0.24190  1.0000
  S   S53       1.0  0.24120  0.55577  0.25864  1.0000
  Fe  Fe28      1.0  0.23232  0.63791  0.23041  1.0000
  S   S54       1.0  0.19140  0.59121  0.23504  1.0000
  C   C169      1.0  0.23013  0.52994  0.25013  1.0000
  C   C170      1.0  0.23736  0.51130  0.26560  1.0000
  C   C171      1.0  0.22959  0.49040  0.25874  1.0000
  C   C172      1.0  0.21462  0.48789  0.23607  1.0000
  C   C173      1.0  0.20706  0.50660  0.22100  1.0000
  C   C174      1.0  0.21467  0.52749  0.22802  1.0000
  H   H312      1.0  0.24935  0.51297  0.28268  1.0000
  H   H313      1.0  0.23564  0.47619  0.27046  1.0000
  H   H314      1.0  0.19537  0.50493  0.20360  1.0000
  H   H315      1.0  0.20888  0.54166  0.21598  1.0000
  H   H316      1.0  0.01076  0.60051  0.47140  1.0000
  H   H317      1.0  0.20023  0.55770  0.02037  1.0000
  C   C175      1.0  0.07870  0.36521  0.10286  1.0000
  C   C176      1.0  0.16036  0.62156  0.33054  1.0000
  C   C177      1.0  0.17710  0.62777  0.34934  1.0000
  C   C178      1.0  0.17353  0.62874  0.37912  1.0000
  C   C179      1.0  0.15332  0.62327  0.39045  1.0000
  C   C180      1.0  0.13681  0.61653  0.37168  1.0000
  C   C181      1.0  0.14029  0.61582  0.34194  1.0000
  H   H318      1.0  0.14394  0.34112  0.07255  1.0000
  Fe  Fe29      1.0  0.12570  0.61647  0.00191  1.0000
  C   C182      1.0  0.15304  0.62516  0.07045  1.0000
  C   C183      1.0  0.14218  0.60850  0.08401  1.0000
  C   C184      1.0  0.14875  0.60179  0.11177  1.0000
  C   C185      1.0  0.16642  0.61133  0.12618  1.0000
  H   H319      1.0  0.02009  0.45589  0.41059  1.0000
  H   H320      1.0  0.12852  0.60105  0.07331  1.0000
  H   H321      1.0  0.14015  0.58903  0.12223  1.0000
  C   C186      1.0  0.12811  0.39555  0.40197  1.0000
  C   C187      1.0  0.12651  0.38927  0.37294  1.0000
  C   C188      1.0  0.14403  0.39173  0.35418  1.0000
  C   C189      1.0  0.16370  0.39999  0.36438  1.0000
  C   C190      1.0  0.16539  0.40612  0.39346  1.0000
  C   C191      1.0  0.14770  0.40406  0.41210  1.0000
  H   H322      1.0  0.11147  0.38264  0.36482  1.0000
  H   H323      1.0  0.14246  0.38682  0.33197  1.0000
  H   H324      1.0  0.18054  0.41245  0.40166  1.0000
  H   H325      1.0  0.14924  0.40897  0.43431  1.0000
  C   C192      1.0  0.14005  0.38876  0.10440  1.0000
  C   C193      1.0  0.16022  0.38134  0.11626  1.0000
  C   C194      1.0  0.16364  0.38024  0.14619  1.0000
  C   C195      1.0  0.14662  0.38579  0.16469  1.0000
  C   C196      1.0  0.12643  0.39323  0.15281  1.0000
  C   C197      1.0  0.12340  0.39538  0.12290  1.0000
  H   H326      1.0  0.17321  0.37610  0.10217  1.0000
  H   H327      1.0  0.17917  0.37424  0.15492  1.0000
  H   H328      1.0  0.11310  0.39748  0.16687  1.0000
  H   H329      1.0  0.10808  0.40174  0.11414  1.0000
  C   C198      1.0  0.14679  0.55960  0.40027  1.0000
  C   C199      1.0  0.05102  0.65204  0.08796  1.0000
  H   H330      1.0  0.12029  0.34803  0.11513  1.0000
  C   C200      1.0  0.08498  0.52091  0.46306  1.0000
  C   C201      1.0  0.07921  0.49968  0.45580  1.0000
  C   C202      1.0  0.17933  0.34643  0.38218  1.0000
  C   C203      1.0  0.24762  0.35422  0.32807  1.0000
  H   H331      1.0  0.02020  0.64411  0.13035  1.0000
  H   H332      1.0  0.07490  0.49579  0.43390  1.0000
  H   H333      1.0  0.06311  0.56726  0.08949  1.0000
  H   H334      1.0  0.12720  0.61109  0.32761  1.0000
  H   H335      1.0  0.04573  0.36549  0.12151  1.0000
  C   C204      1.0  0.06963  0.32622  0.11313  1.0000
  C   C205      1.0  0.11848  0.33291  0.10235  1.0000
  C   C206      1.0  0.16918  0.55481  0.31116  1.0000
  H   H336      1.0  0.07357  0.51693  0.01519  1.0000
  C   C207      1.0  0.07583  0.33059  0.14506  1.0000
  C   C208      1.0  0.99277  0.45540  0.00319  1.0000
  S   S55       1.0  0.19551  0.64282  0.22352  1.0000
  C   C209      1.0  0.06146  0.34290  0.06621  1.0000
  S   S56       1.0  0.14437  0.63523  0.03631  1.0000
  H   H337      1.0  0.22701  0.60942  0.33426  1.0000
  H   H338      1.0  0.19934  0.41434  0.15441  1.0000
  H   H339      1.0  0.21381  0.55421  0.14545  1.0000
  C   C210      1.0  0.02561  0.45291  0.43304  1.0000
  N   N10       1.0  0.07741  0.34220  0.09131  1.0000
  H   H340      1.0  0.26679  0.39006  0.30433  1.0000
  H   H341      1.0  0.25286  0.37689  0.36474  1.0000
  H   H342      1.0  0.03420  0.50079  0.47961  1.0000
  C   C211      1.0  0.19197  0.59242  0.02025  1.0000
  H   H343      1.0  0.20265  0.48949  0.31826  1.0000
  H   H344      1.0  0.06558  0.35607  0.05117  1.0000
  N   N11       1.0  0.06917  0.64300  0.06929  1.0000
  H   H345      1.0  0.21032  0.53368  0.35603  1.0000
  H   H346      1.0  0.23477  0.38730  0.33730  1.0000
  S   S57       1.0  0.11609  0.41917  0.99804  1.0000
  H   H347      1.0  0.23225  0.39868  0.13227  1.0000
  H   H348      1.0  0.18422  0.36033  0.39598  1.0000
  C   C212      1.0  0.22016  0.57710  0.35031  1.0000
  C   C213      1.0  0.09144  0.64392  0.08347  1.0000
  H   H349      1.0  0.14874  0.57706  0.40598  1.0000
  H   H350      1.0  0.18775  0.47793  0.34706  1.0000
  H   H351      1.0  0.22810  0.41591  0.10134  1.0000
  S   S58       1.0  0.10371  0.62958  0.48872  1.0000
  H   H352      1.0  0.14081  0.56503  0.35542  1.0000
  C   C214      1.0  0.04016  0.32307  0.02743  1.0000
  H   H353      1.0  0.16196  0.57165  0.30800  1.0000
  H   H354      1.0  0.02463  0.32580  0.03903  1.0000
  C   C215      1.0  0.21971  0.40737  0.11866  1.0000
  H   H355      1.0  0.28471  0.38082  0.33322  1.0000
  H   H356      1.0  0.99361  0.45896  0.44924  1.0000
  H   H357      1.0  0.30428  0.34493  0.26850  1.0000
  H   H358      1.0  0.26918  0.40629  0.33647  1.0000
  H   H359      1.0  0.15255  0.56467  0.25672  1.0000
  H   H360      1.0  0.19440  0.58735  0.32040  1.0000
  H   H361      1.0  0.05963  0.63295  0.12726  1.0000
  H   H362      1.0  0.14489  0.53721  0.26543  1.0000
  H   H363      1.0  0.05230  0.60567  0.09950  1.0000
  H   H364      1.0  0.21242  0.49203  0.35491  1.0000
  C   C216      1.0  0.01022  0.46499  0.45349  1.0000
  H   H365      1.0  0.22089  0.60122  0.47297  1.0000
  H   H366      1.0  0.00553  0.57946  0.01815  1.0000
  H   H367      1.0  0.21241  0.58414  0.36973  1.0000
  H   H368      1.0  0.18161  0.52496  0.00537  1.0000
  N   N12       1.0  0.23652  0.33810  0.34668  1.0000
  S   S59       1.0  0.04712  0.59208  0.99788  1.0000
  H   H369      1.0  0.20516  0.35311  0.33417  1.0000
  C   C217      1.0  0.18571  0.56859  0.01618  1.0000
  C   C218      1.0  0.99857  0.65478  0.47818  1.0000
  C   C219      1.0  0.00104  0.61550  0.47341  1.0000
  H   H370      1.0  0.15678  0.57782  0.04093  1.0000
  H   H371      1.0  0.06634  0.34497  0.15333  1.0000
  H   H372      1.0  0.06822  0.39248  0.14948  1.0000
  N   N13       1.0  0.17554  0.45356  0.13414  1.0000
  C   C220      1.0  0.16030  0.46482  0.11268  1.0000
  C   C221      1.0  0.19023  0.47032  0.14724  1.0000
  C   C222      1.0  0.18852  0.43579  0.11886  1.0000
  C   C223      1.0  0.16314  0.44329  0.15784  1.0000
  C   C224      1.0  0.14738  0.45885  0.17459  1.0000
  C   C225      1.0  0.14162  0.45089  0.10020  1.0000
  C   C226      1.0  0.20663  0.42371  0.13698  1.0000
  C   C227      1.0  0.20673  0.48051  0.12691  1.0000
  C   C228      1.0  0.22050  0.49715  0.14296  1.0000
  C   C229      1.0  0.13460  0.44621  0.19640  1.0000
  C   C230      1.0  0.12763  0.46387  0.07832  1.0000
  H   H373      1.0  0.16962  0.47032  0.09401  1.0000
  H   H374      1.0  0.15282  0.48003  0.12198  1.0000
  H   H375      1.0  0.18036  0.48417  0.15639  1.0000
  H   H376      1.0  0.19959  0.46327  0.16576  1.0000
  H   H377      1.0  0.19598  0.44226  0.09926  1.0000
  H   H378      1.0  0.17756  0.42291  0.11095  1.0000
  H   H379      1.0  0.15384  0.42931  0.14947  1.0000
  H   H380      1.0  0.17464  0.43608  0.17424  1.0000
  H   H381      1.0  0.13537  0.46737  0.16016  1.0000
  H   H382      1.0  0.15667  0.47125  0.18667  1.0000
  H   H383      1.0  0.14822  0.43610  0.08909  1.0000
  H   H384      1.0  0.13064  0.44563  0.11725  1.0000
  H   H385      1.0  0.03195  0.51460  0.02055  1.0000
  H   H386      1.0  0.16901  0.33570  0.39490  1.0000
  H   H387      1.0  0.21812  0.46785  0.11801  1.0000
  H   H388      1.0  0.19815  0.48910  0.10892  1.0000
  H   H389      1.0  0.20998  0.51059  0.15186  1.0000
  H   H390      1.0  0.22989  0.48914  0.16086  1.0000
  H   H391      1.0  0.23223  0.50431  0.12816  1.0000
  H   H392      1.0  0.12421  0.45773  0.20908  1.0000
  H   H393      1.0  0.12393  0.43439  0.18540  1.0000
  H   H394      1.0  0.14591  0.43716  0.21133  1.0000
  H   H395      1.0  0.13761  0.46885  0.06002  1.0000
  H   H396      1.0  0.11446  0.45350  0.06976  1.0000
  H   H397      1.0  0.11994  0.47864  0.08839  1.0000
  H   H398      1.0  0.30071  0.64978  0.14308  1.0000
  N   N14       1.0  0.10743  0.45942  0.37840  1.0000
  C   C231      1.0  0.12789  0.45589  0.36120  1.0000
  C   C232      1.0  0.11276  0.45734  0.41009  1.0000
  C   C233      1.0  0.09210  0.44153  0.37010  1.0000
  C   C234      1.0  0.09585  0.48102  0.37190  1.0000
  C   C235      1.0  0.10904  0.50185  0.37669  1.0000
  C   C236      1.0  0.12477  0.45554  0.32816  1.0000
  C   C237      1.0  0.07132  0.43978  0.38835  1.0000
  C   C238      1.0  0.13515  0.46552  0.42093  1.0000
  C   C239      1.0  0.13650  0.46589  0.45364  1.0000
  C   C240      1.0  0.09651  0.52192  0.36471  1.0000
  C   C241      1.0  0.14673  0.45468  0.31320  1.0000
  C   C242      1.0  0.05808  0.42027  0.37864  1.0000
  H   H399      1.0  0.13608  0.44001  0.36729  1.0000
  H   H400      1.0  0.14005  0.46835  0.36636  1.0000
  H   H401      1.0  0.09975  0.46554  0.42292  1.0000
  H   H402      1.0  0.11290  0.43986  0.41664  1.0000
  H   H403      1.0  0.10092  0.42539  0.37103  1.0000
  H   H404      1.0  0.08623  0.44346  0.34755  1.0000
  H   H405      1.0  0.08925  0.48115  0.34956  1.0000
  H   H406      1.0  0.08122  0.48328  0.38542  1.0000
  H   H407      1.0  0.12501  0.50082  0.36603  1.0000
  H   H408      1.0  0.11157  0.50475  0.39998  1.0000
  H   H409      1.0  0.11601  0.44078  0.32123  1.0000
  H   H410      1.0  0.11553  0.47031  0.32046  1.0000
  H   H411      1.0  0.06062  0.45467  0.38611  1.0000
  H   H412      1.0  0.07546  0.43740  0.41137  1.0000
  H   H413      1.0  0.14848  0.45426  0.41334  1.0000
  H   H414      1.0  0.13840  0.48210  0.41324  1.0000
  H   H415      1.0  0.15308  0.47047  0.46084  1.0000
  H   H416      1.0  0.12452  0.47811  0.46237  1.0000
  H   H417      1.0  0.13321  0.44952  0.46241  1.0000
  H   H418      1.0  0.09431  0.52052  0.34112  1.0000
  H   H419      1.0  0.08025  0.52388  0.37473  1.0000
  H   H420      1.0  0.10566  0.53686  0.36954  1.0000
  H   H421      1.0  0.14404  0.45326  0.28969  1.0000
  H   H422      1.0  0.15567  0.46981  0.31758  1.0000
  H   H423      1.0  0.15688  0.44028  0.32045  1.0000
  H   H424      1.0  0.06801  0.40481  0.38092  1.0000
  H   H425      1.0  0.04349  0.41904  0.39214  1.0000
  H   H426      1.0  0.05260  0.42215  0.35597  1.0000
  C   C243      1.0  0.16580  0.56252  0.03437  1.0000
  H   H427      1.0  0.12951  0.55564  0.40377  1.0000
  H   H428      1.0  0.19252  0.63247  0.34086  1.0000
  H   H429      1.0  0.24430  0.34462  0.39143  1.0000
  H   H430      1.0  0.09329  0.33400  0.14829  1.0000
  C   C244      1.0  0.01393  0.44151  0.00170  1.0000
  H   H431      1.0  0.04243  0.45883  0.43583  1.0000
  H   H432      1.0  0.24455  0.58750  0.32039  1.0000
  N   N15       1.0  0.18628  0.55506  0.33487  1.0000
  C   C245      1.0  0.18416  0.51334  0.34392  1.0000
  H   H433      1.0  0.17710  0.48561  0.99955  1.0000
  C   C246      1.0  0.26885  0.38933  0.32797  1.0000
  H   H434      1.0  0.16482  0.54153  0.23831  1.0000
  H   H435      1.0  0.21213  0.56609  0.30776  1.0000
  H   H436      1.0  0.08949  0.36578  0.12210  1.0000
  H   H437      1.0  0.08163  0.60177  0.09614  1.0000
  C   C247      1.0  0.27380  0.33293  0.25222  1.0000
  C   C248      1.0  0.24917  0.33296  0.37407  1.0000
  H   H438      1.0  0.99670  0.47082  0.01449  1.0000
  H   H439      1.0  0.99250  0.50117  0.48286  1.0000
  H   H440      1.0  0.17396  0.48225  0.03746  1.0000
  H   H441      1.0  0.99280  0.33330  0.49215  1.0000
  H   H442      1.0  0.21832  0.43516  0.14664  1.0000
  H   H443      1.0  0.04469  0.34726  0.07358  1.0000
  H   H444      1.0  0.18253  0.52853  0.28323  1.0000
  H   H445      1.0  0.15527  0.54473  0.31674  1.0000
  C   C249      1.0  0.05962  0.39692  0.12908  1.0000
  H   H446      1.0  0.04343  0.40453  0.13416  1.0000
  S   S60       1.0  0.04043  0.63865  0.47569  1.0000
  C   C250      1.0  0.01736  0.46085  0.48509  1.0000
  C   C251      1.0  0.07890  0.48355  0.47692  1.0000
  H   H447      1.0  0.16997  0.51251  0.32897  1.0000
  H   H448      1.0  0.16942  0.35273  0.36369  1.0000
  H   H449      1.0  0.23008  0.56235  0.35651  1.0000
  H   H450      1.0  0.17505  0.58064  0.36400  1.0000
  H   H451      1.0  0.21430  0.57815  0.43029  1.0000
  H   H452      1.0  0.18698  0.55725  0.38121  1.0000
  H   H453      1.0  0.26392  0.34786  0.32141  1.0000
  H   H454      1.0  0.15641  0.51693  0.01965  1.0000
  C   C252      1.0  0.17722  0.62805  0.11270  1.0000
  H   H455      1.0  0.04791  0.38221  0.09040  1.0000
  H   H456      1.0  0.09762  0.54403  0.99491  1.0000
  H   H457      1.0  0.01243  0.53545  0.47263  1.0000
  C   C253      1.0  0.15266  0.55536  0.36899  1.0000
  H   H458      1.0  0.15033  0.53786  0.36439  1.0000
  C   C254      1.0  0.19156  0.55047  0.10914  1.0000
  H   H459      1.0  0.17822  0.60361  0.01344  1.0000
  H   H460      1.0  0.27976  0.35069  0.37203  1.0000
  H   H461      1.0  0.19069  0.55533  0.27377  1.0000
  C   C255      1.0  0.14023  0.32795  0.08777  1.0000
  Fe  Fe30      1.0  0.08323  0.43528  0.00611  1.0000
  S   S61       1.0  0.09121  0.37309  0.00701  1.0000
  H   H462      1.0  0.15730  0.54928  0.41476  1.0000
  S   S62       1.0  0.02743  0.38292  0.03297  1.0000
  H   H463      1.0  0.19633  0.59608  0.04287  1.0000
  C   C256      1.0  0.19935  0.33346  0.37160  1.0000
  Fe  Fe31      1.0  0.05994  0.39316  0.01419  1.0000
  C   C257      1.0  0.18656  0.60699  0.48427  1.0000
  H   H464      1.0  0.22657  0.55586  0.11108  1.0000
  H   H465      1.0  0.20887  0.39503  0.10906  1.0000
  C   C258      1.0  0.25006  0.37740  0.34125  1.0000
  C   C259      1.0  0.27450  0.33357  0.37292  1.0000
  H   H466      1.0  0.20825  0.52958  0.31874  1.0000
  H   H467      1.0  0.23827  0.35647  0.30756  1.0000
  H   H468      1.0  0.10378  0.63520  0.06997  1.0000
  C   C260      1.0  0.20282  0.57165  0.32682  1.0000
  C   C261      1.0  0.15861  0.54745  0.25926  1.0000
  C   C262      1.0  0.02535  0.53140  0.01598  1.0000
  C   C263      1.0  0.21167  0.56038  0.12322  1.0000
  H   H469      1.0  0.12117  0.61232  0.38000  1.0000
  N   N16       1.0  0.17086  0.54828  0.06011  1.0000
  C   C264      1.0  0.17620  0.56243  0.36285  1.0000
  C   C265      1.0  0.15014  0.54564  0.07656  1.0000
  C   C266      1.0  0.18656  0.56048  0.07918  1.0000
  C   C267      1.0  0.18113  0.52622  0.05248  1.0000
  Fe  Fe32      1.0  0.07150  0.61720  0.47154  1.0000
  H   H470      1.0  0.20969  0.57849  0.12426  1.0000
  H   H471      1.0  0.17058  0.60030  0.47759  1.0000
  C   C268      1.0  0.13144  0.53365  0.06109  1.0000
  C   C269      1.0  0.11083  0.53432  0.07902  1.0000
  S   S63       1.0  0.07359  0.47076  0.01140  1.0000
  C   C270      1.0  0.19761  0.49195  0.34084  1.0000
  H   H472      1.0  0.18532  0.57932  0.43651  1.0000
  C   C271      1.0  0.19826  0.53322  0.33803  1.0000
  H   H473      1.0  0.15348  0.53625  0.09653  1.0000
  H   H474      1.0  0.14355  0.56195  0.08342  1.0000
  H   H475      1.0  0.18637  0.63414  0.39339  1.0000
  H   H476      1.0  0.19925  0.52694  0.05208  1.0000
  H   H477      1.0  0.17788  0.51416  0.06950  1.0000
  H   H478      1.0  0.19081  0.63558  0.12352  1.0000
  C   C272      1.0  0.09952  0.33509  0.08009  1.0000
  H   H479      1.0  0.24832  0.59722  0.35658  1.0000
  H   H480      1.0  0.02569  0.43502  0.43706  1.0000
  H   H481      1.0  0.19449  0.53253  0.10776  1.0000
  H   H482      1.0  0.17762  0.55398  0.12355  1.0000
  H   H483      1.0  0.07512  0.57503  0.05631  1.0000
  H   H484      1.0  0.13617  0.51616  0.05779  1.0000
  H   H485      1.0  0.10511  0.55149  0.08285  1.0000
  H   H486      1.0  0.09768  0.52568  0.06738  1.0000
  H   H487      1.0  0.11398  0.52611  0.09990  1.0000
  C   C273      1.0  0.05652  0.37668  0.11033  1.0000
  C   C274      1.0  0.17701  0.54596  0.28175  1.0000
  H   H488      1.0  0.08653  0.37578  0.08694  1.0000
  C   C275      1.0  0.17046  0.63499  0.08504  1.0000
  C   C276      1.0  0.23594  0.59384  0.33963  1.0000
  H   H489      1.0  0.07472  0.46717  0.47114  1.0000
  H   H490      1.0  0.27946  0.33173  0.41924  1.0000
  H   H491      1.0  0.17831  0.51418  0.36625  1.0000
  C   C277      1.0  0.06507  0.61970  0.06045  1.0000
  C   C278      1.0  0.06574  0.60233  0.08441  1.0000
  C   C279      1.0  0.06232  0.57949  0.07201  1.0000
  H   H492      1.0  0.19985  0.49041  0.02352  1.0000
  H   H493      1.0  0.04863  0.61855  0.05016  1.0000
  H   H494      1.0  0.07700  0.61427  0.04393  1.0000
  H   H495      1.0  0.08423  0.65158  0.02946  1.0000
  C   C280      1.0  0.21437  0.34808  0.35404  1.0000
  H   H496      1.0  0.18695  0.62306  0.47332  1.0000
  H   H497      1.0  0.19913  0.60384  0.42739  1.0000
  S   S64       1.0  0.06610  0.42307  0.47656  1.0000
  H   H498      1.0  0.18038  0.57758  0.08283  1.0000
  H   H499      1.0  0.99916  0.33374  0.45465  1.0000
  H   H500      1.0  0.21622  0.36340  0.36670  1.0000
  C   C281      1.0  0.20525  0.59267  0.47116  1.0000
  C   C282      1.0  0.29596  0.33067  0.26086  1.0000
  H   H501      1.0  0.20814  0.32641  0.39055  1.0000
  C   C283      1.0  0.20069  0.58824  0.43939  1.0000
  C   C284      1.0  0.09271  0.48922  0.00020  1.0000
  H   H502      1.0  0.03859  0.53963  0.48951  1.0000
  C   C285      1.0  0.01151  0.63561  0.47552  1.0000
  H   H503      1.0  0.22272  0.32165  0.30983  1.0000
  C   C286      1.0  0.17425  0.51611  0.02323  1.0000
  H   H504      1.0  0.01996  0.43688  0.02350  1.0000
  H   H505      1.0  0.20619  0.59579  0.00682  1.0000
  C   C287      1.0  0.18182  0.49212  0.02096  1.0000
  H   H506      1.0  0.04206  0.33675  0.01223  1.0000
  H   H507      1.0  0.20741  0.57669  0.48202  1.0000
  H   H508      1.0  0.01668  0.44291  0.48829  1.0000
  H   H509      1.0  0.15358  0.32694  0.10418  1.0000
  C   C288      1.0  0.08810  0.51153  0.00405  1.0000
  H   H510      1.0  0.03529  0.64456  0.08175  1.0000
  H   H511      1.0  0.09214  0.63498  0.10403  1.0000
  H   H512      1.0  0.15421  0.55471  0.01946  1.0000
  C   C289      1.0  0.00234  0.59173  0.00192  1.0000
  S   S65       1.0  0.01551  0.39542  0.48931  1.0000
  C   C290      1.0  0.05426  0.64967  0.12089  1.0000
  H   H513      1.0  0.05148  0.32556  0.11242  1.0000
  H   H514      1.0  0.17879  0.64810  0.07493  1.0000
  H   H515      1.0  0.16008  0.64582  0.48975  1.0000
  H   H516      1.0  0.03612  0.65429  0.16005  1.0000
  C   C291      1.0  0.09000  0.52616  0.49154  1.0000
  H   H517      1.0  0.10445  0.34657  0.06308  1.0000
  C   C292      1.0  0.28523  0.32320  0.39958  1.0000
  H   H518      1.0  0.30322  0.32449  0.39860  1.0000
  C   C293      1.0  0.02237  0.53247  0.49244  1.0000
  Fe  Fe33      1.0  0.09682  0.38964  0.53546  1.0000
  H   H519      1.0  0.00766  0.38206  0.97495  1.0000
  S   S66       1.0  0.11882  0.37104  0.56831  1.0000
  H   H520      1.0  0.14637  0.57287  0.60323  1.0000
  H   H521      1.0  0.99495  0.50599  0.52001  1.0000
  C   C294      1.0  0.02057  0.62225  0.58007  1.0000
  H   H522      1.0  0.04643  0.51283  0.97014  1.0000
  H   H523      1.0  0.07093  0.38399  0.73933  1.0000
  Fe  Fe34      1.0  0.09735  0.39593  0.97016  1.0000
  S   S67       1.0  0.10902  0.38048  0.92762  1.0000
  S   S68       1.0  0.06699  0.41085  0.54506  1.0000
  C   C295      1.0  0.02361  0.52319  0.91980  1.0000
  H   H524      1.0  0.22919  0.63248  0.81827  1.0000
  H   H525      1.0  0.04988  0.56881  0.94578  1.0000
  H   H526      1.0  0.12496  0.64446  0.83583  1.0000
  Fe  Fe35      1.0  0.11464  0.61462  0.93738  1.0000
  H   H527      1.0  0.14215  0.40824  0.75772  1.0000
  S   S69       1.0  0.11806  0.63043  0.89357  1.0000
  H   H528      1.0  0.27128  0.33357  0.83521  1.0000
  C   C296      1.0  0.05682  0.56029  0.55786  1.0000
  Fe  Fe36      1.0  0.10776  0.59713  0.51066  1.0000
  S   S70       1.0  0.11904  0.58878  0.55670  1.0000
  S   S71       1.0  0.09554  0.58410  0.94174  1.0000
  H   H529      1.0  0.12754  0.47474  0.58667  1.0000
  Fe  Fe37      1.0  0.22273  0.41833  0.74676  1.0000
  S   S72       1.0  0.18688  0.41971  0.75283  1.0000
  S   S73       1.0  0.24152  0.45004  0.74517  1.0000
  Fe  Fe38      1.0  0.22549  0.36788  0.75164  1.0000
  S   S74       1.0  0.18871  0.36686  0.75859  1.0000
  S   S75       1.0  0.24531  0.33436  0.75214  1.0000
  Fe  Fe39      1.0  0.18510  0.39116  0.72246  1.0000
  S   S76       1.0  0.15442  0.39700  0.69383  1.0000
  Fe  Fe40      1.0  0.19239  0.39562  0.78856  1.0000
  S   S77       1.0  0.17506  0.40782  0.82951  1.0000
  S   S78       1.0  0.22134  0.39107  0.71382  1.0000
  S   S79       1.0  0.22903  0.39538  0.78398  1.0000
  Fe  Fe41      1.0  0.20135  0.61288  0.75739  1.0000
  S   S80       1.0  0.23525  0.59906  0.74874  1.0000
  S   S81       1.0  0.19335  0.60682  0.80445  1.0000
  Fe  Fe42      1.0  0.19325  0.62273  0.69304  1.0000
  S   S82       1.0  0.22658  0.60949  0.68158  1.0000
  S   S83       1.0  0.17030  0.63752  0.65823  1.0000
  Fe  Fe43      1.0  0.21961  0.58163  0.71146  1.0000
  S   S84       1.0  0.21778  0.54564  0.69730  1.0000
  Fe  Fe44      1.0  0.23919  0.62851  0.72019  1.0000
  S   S85       1.0  0.18576  0.59444  0.72121  1.0000
  C   C297      1.0  0.22301  0.52013  0.71476  1.0000
  C   C298      1.0  0.20841  0.50314  0.71022  1.0000
  C   C299      1.0  0.21336  0.48175  0.72020  1.0000
  C   C300      1.0  0.23318  0.47706  0.73465  1.0000
  C   C301      1.0  0.24740  0.49423  0.74003  1.0000
  C   C302      1.0  0.24234  0.51564  0.73029  1.0000
  H   H530      1.0  0.19347  0.50653  0.69819  1.0000
  H   H531      1.0  0.20223  0.46875  0.71601  1.0000
  H   H532      1.0  0.26279  0.49080  0.75111  1.0000
  H   H533      1.0  0.25391  0.52840  0.73360  1.0000
  H   H534      1.0  0.99726  0.43963  0.54947  1.0000
  H   H535      1.0  0.25612  0.55437  0.79223  1.0000
  C   C303      1.0  0.03038  0.59277  0.89929  1.0000
  C   C304      1.0  0.17142  0.61284  0.82792  1.0000
  C   C305      1.0  0.15428  0.62767  0.82098  1.0000
  C   C306      1.0  0.13804  0.63280  0.84124  1.0000
  C   C307      1.0  0.13856  0.62298  0.86846  1.0000
  H   H536      1.0  0.18529  0.59180  0.86083  1.0000
  H   H537      1.0  0.17880  0.52902  0.89970  1.0000
  H   H538      1.0  0.09128  0.37350  0.71486  1.0000
  S   S86       1.0  0.14341  0.60243  0.96379  1.0000
  C   C308      1.0  0.13393  0.60280  0.58391  1.0000
  C   C309      1.0  0.13321  0.62560  0.58643  1.0000
  C   C310      1.0  0.14459  0.63592  0.60906  1.0000
  C   C311      1.0  0.15681  0.62364  0.62957  1.0000
  C   C312      1.0  0.15755  0.60083  0.62701  1.0000
  H   H539      1.0  0.12354  0.63526  0.57131  1.0000
  C   C313      1.0  0.99367  0.62386  0.96098  1.0000
  C   C314      1.0  0.12820  0.38825  0.90137  1.0000
  C   C315      1.0  0.13558  0.37261  0.88112  1.0000
  C   C316      1.0  0.15025  0.37806  0.85945  1.0000
  C   C317      1.0  0.15737  0.39946  0.85720  1.0000
  C   C318      1.0  0.14994  0.41510  0.87739  1.0000
  C   C319      1.0  0.13560  0.40956  0.89939  1.0000
  H   H540      1.0  0.13005  0.35607  0.88238  1.0000
  H   H541      1.0  0.15602  0.36568  0.84455  1.0000
  H   H542      1.0  0.15536  0.43168  0.87607  1.0000
  H   H543      1.0  0.13011  0.42183  0.91464  1.0000
  C   C320      1.0  0.12914  0.37927  0.60265  1.0000
  C   C321      1.0  0.14730  0.36774  0.61488  1.0000
  C   C322      1.0  0.15548  0.37305  0.64249  1.0000
  C   C323      1.0  0.14535  0.38974  0.65854  1.0000
  C   C324      1.0  0.12715  0.40122  0.64638  1.0000
  C   C325      1.0  0.11925  0.39623  0.61856  1.0000
  H   H544      1.0  0.15500  0.35448  0.60295  1.0000
  H   H545      1.0  0.16935  0.36391  0.65153  1.0000
  H   H546      1.0  0.11912  0.41417  0.65851  1.0000
  H   H547      1.0  0.10522  0.40518  0.60963  1.0000
  C   C326      1.0  0.11970  0.37289  0.76117  1.0000
  H   H548      1.0  0.03053  0.62418  0.63768  1.0000
  H   H549      1.0  0.16671  0.59111  0.64267  1.0000
  H   H550      1.0  0.03935  0.60369  0.91411  1.0000
  C   C327      1.0  0.07482  0.64675  0.55646  1.0000
  H   H551      1.0  0.13246  0.65304  0.52769  1.0000
  H   H552      1.0  0.09284  0.51435  0.53483  1.0000
  H   H553      1.0  0.15003  0.33194  0.79744  1.0000
  C   C328      1.0  0.08907  0.51021  0.51278  1.0000
  H   H554      1.0  0.15626  0.60030  0.89600  1.0000
  H   H555      1.0  0.10582  0.43866  0.78187  1.0000
  S   S87       1.0  0.08271  0.46920  0.53236  1.0000
  H   H556      1.0  0.13618  0.44429  0.62052  1.0000
  H   H557      1.0  0.05259  0.60759  0.67693  1.0000
  C   C329      1.0  0.18792  0.58837  0.53174  1.0000
  S   S88       1.0  0.20592  0.64297  0.73041  1.0000
  N   N17       1.0  0.04507  0.62206  0.57690  1.0000
  Fe  Fe45      1.0  0.05153  0.39782  0.50439  1.0000
  H   H558      1.0  0.01136  0.42641  0.98895  1.0000
  C   C330      1.0  0.14602  0.59052  0.60451  1.0000
  C   C331      1.0  0.02491  0.44341  0.57737  1.0000
  H   H559      1.0  0.18395  0.50761  0.85567  1.0000
  H   H560      1.0  0.06225  0.41494  0.70584  1.0000
  H   H561      1.0  0.01510  0.63731  0.59186  1.0000
  H   H562      1.0  0.00888  0.63625  0.53882  1.0000
  H   H563      1.0  0.20129  0.45867  0.78484  1.0000
  H   H564      1.0  0.03144  0.55910  0.88538  1.0000
  C   C332      1.0  0.05350  0.60167  0.56187  1.0000
  H   H565      1.0  0.02313  0.43365  0.53326  1.0000
  S   S89       1.0  0.27095  0.64877  0.71864  1.0000
  H   H566      1.0  0.99466  0.54023  0.93931  1.0000
  H   H567      1.0  0.09685  0.48314  0.91125  1.0000
  C   C333      1.0  0.25382  0.65046  0.79703  1.0000
  H   H568      1.0  0.15650  0.53457  0.87490  1.0000
  H   H569      1.0  0.18740  0.54297  0.53965  1.0000
  H   H570      1.0  0.16735  0.62461  0.54908  1.0000
  S   S90       1.0  0.06472  0.41400  0.97556  1.0000
  C   C334      1.0  0.09154  0.50057  0.90870  1.0000
  H   H571      1.0  0.11718  0.44918  0.57407  1.0000
  H   H572      1.0  0.11354  0.40544  0.72148  1.0000
  H   H573      1.0  0.21725  0.56628  0.78835  1.0000
  C   C335      1.0  0.00018  0.53385  0.91840  1.0000
  C   C336      1.0  0.10051  0.40349  0.73751  1.0000
  C   C337      1.0  0.03769  0.56029  0.93225  1.0000
  H   H574      1.0  0.05730  0.56984  0.89584  1.0000
  H   H575      1.0  0.16792  0.54439  0.71924  1.0000
  H   H576      1.0  0.14864  0.47476  0.65616  1.0000
  H   H577      1.0  0.22286  0.61007  0.52078  1.0000
  C   C338      1.0  0.12247  0.43550  0.77359  1.0000
  S   S91       1.0  0.09799  0.63135  0.97504  1.0000
  H   H578      1.0  0.15290  0.56282  0.74286  1.0000
  S   S92       1.0  0.11340  0.41439  0.50862  1.0000
  H   H579      1.0  0.13359  0.46622  0.79108  1.0000
  C   C339      1.0  0.14017  0.33886  0.77925  1.0000
  H   H580      1.0  0.15264  0.61508  0.51914  1.0000
  N   N18       1.0  0.18232  0.44725  0.63121  1.0000
  C   C340      1.0  0.16776  0.45733  0.60801  1.0000
  C   C341      1.0  0.20302  0.45992  0.63513  1.0000
  C   C342      1.0  0.18882  0.42435  0.62152  1.0000
  C   C343      1.0  0.17067  0.44549  0.65917  1.0000
  C   C344      1.0  0.16033  0.46680  0.67155  1.0000
  C   C345      1.0  0.20479  0.41131  0.64181  1.0000
  C   C346      1.0  0.20160  0.48490  0.62930  1.0000
  C   C347      1.0  0.22329  0.49548  0.63645  1.0000
  C   C348      1.0  0.14789  0.46217  0.69881  1.0000
  C   C349      1.0  0.21330  0.39024  0.62753  1.0000
  H   H581      1.0  0.17694  0.45809  0.58768  1.0000
  S   S93       1.0  0.13840  0.53937  0.96578  1.0000
  H   H582      1.0  0.20998  0.45755  0.65719  1.0000
  H   H583      1.0  0.21595  0.45344  0.62054  1.0000
  H   H584      1.0  0.19616  0.42482  0.59988  1.0000
  H   H585      1.0  0.17432  0.41403  0.61926  1.0000
  H   H586      1.0  0.15762  0.43350  0.65713  1.0000
  H   H587      1.0  0.18198  0.43880  0.67614  1.0000
  H   H588      1.0  0.07360  0.61840  0.60482  1.0000
  H   H589      1.0  0.17321  0.47822  0.67751  1.0000
  H   H590      1.0  0.19620  0.40661  0.66140  1.0000
  H   H591      1.0  0.21913  0.42084  0.64834  1.0000
  H   H592      1.0  0.19796  0.48802  0.60627  1.0000
  H   H593      1.0  0.18875  0.49337  0.64192  1.0000
  H   H594      1.0  0.22145  0.51349  0.63390  1.0000
  H   H595      1.0  0.22856  0.49208  0.65889  1.0000
  H   H596      1.0  0.23623  0.48921  0.62191  1.0000
  C   C350      1.0  0.15556  0.60792  0.87517  1.0000
  H   H597      1.0  0.13450  0.45083  0.69417  1.0000
  H   H598      1.0  0.15906  0.45476  0.71536  1.0000
  H   H599      1.0  0.22319  0.39401  0.60863  1.0000
  H   H600      1.0  0.22378  0.38074  0.64299  1.0000
  H   H601      1.0  0.19955  0.37998  0.62063  1.0000
  H   H602      1.0  0.14058  0.49229  0.96490  1.0000
  Fe  Fe46      1.0  0.08279  0.43457  0.51641  1.0000
  H   H603      1.0  0.12627  0.32809  0.77489  1.0000
  C   C351      1.0  0.13231  0.45814  0.57874  1.0000
  H   H604      1.0  0.99664  0.39034  0.54650  1.0000
  H   H605      1.0  0.15862  0.54028  0.53214  1.0000
  H   H606      1.0  0.21573  0.45227  0.81772  1.0000
  H   H607      1.0  0.24525  0.64930  0.77598  1.0000
  H   H608      1.0  0.14941  0.42902  0.59219  1.0000
  C   C352      1.0  0.13837  0.44858  0.79189  1.0000
  C   C353      1.0  0.08371  0.48885  0.50545  1.0000
  H   H609      1.0  0.18505  0.59109  0.55500  1.0000
  H   H610      1.0  0.01430  0.54087  0.51076  1.0000
  C   C354      1.0  0.07136  0.40001  0.69846  1.0000
  H   H611      1.0  0.05410  0.54473  0.56910  1.0000
  H   H612      1.0  0.25379  0.55185  0.83071  1.0000
  H   H613      1.0  0.15060  0.33899  0.76008  1.0000
  H   H614      1.0  0.15018  0.53344  0.77845  1.0000
  H   H615      1.0  0.18044  0.55282  0.82688  1.0000
  H   H616      1.0  0.21455  0.56406  0.82667  1.0000
  C   C355      1.0  0.05029  0.64146  0.55867  1.0000
  H   H617      1.0  0.02494  0.42617  0.58465  1.0000
  H   H618      1.0  0.02819  0.52010  0.89712  1.0000
  H   H619      1.0  0.28164  0.63343  0.81785  1.0000
  H   H620      1.0  0.14071  0.47769  0.70751  1.0000
  H   H621      1.0  0.10469  0.51084  0.91756  1.0000
  H   H622      1.0  0.16303  0.47452  0.61332  1.0000
  H   H623      1.0  0.24762  0.64538  0.84157  1.0000
  C   C356      1.0  0.17198  0.60307  0.85512  1.0000
  H   H624      1.0  0.04071  0.59744  0.62814  1.0000
  H   H625      1.0  0.21834  0.63102  0.86874  1.0000
  H   H626      1.0  0.02170  0.56607  0.94066  1.0000
  H   H627      1.0  0.10655  0.36158  0.75523  1.0000
  N   N19       1.0  0.11037  0.39580  0.76578  1.0000
  H   H628      1.0  0.09478  0.54244  0.49725  1.0000
  N   N20       1.0  0.00405  0.47291  0.50736  1.0000
  H   H629      1.0  0.21110  0.49075  0.83390  1.0000
  H   H630      1.0  0.20497  0.52751  0.86010  1.0000
  H   H631      1.0  0.12270  0.44189  0.75137  1.0000
  H   H632      1.0  0.25005  0.57819  0.81390  1.0000
  H   H633      1.0  0.18725  0.46050  0.81862  1.0000
  C   C357      1.0  0.12874  0.41068  0.77329  1.0000
  H   H634      1.0  0.17767  0.55417  0.87988  1.0000
  H   H635      1.0  0.05727  0.64239  0.61150  1.0000
  C   C358      1.0  0.09275  0.39607  0.78810  1.0000
  C   C359      1.0  0.04551  0.61444  0.63208  1.0000
  H   H636      1.0  0.08745  0.39970  0.86275  1.0000
  C   C360      1.0  0.01419  0.44516  0.54764  1.0000
  H   H637      1.0  0.12070  0.36022  0.80506  1.0000
  C   C361      1.0  0.00676  0.62142  0.55186  1.0000
  H   H638      1.0  0.16375  0.51436  0.75473  1.0000
  H   H639      1.0  0.07609  0.53914  0.93380  1.0000
  H   H640      1.0  0.10372  0.41818  0.82258  1.0000
  H   H641      1.0  0.22564  0.48830  0.80108  1.0000
  H   H642      1.0  0.28240  0.63382  0.77934  1.0000
  H   H643      1.0  0.06681  0.40550  0.83555  1.0000
  H   H644      1.0  0.32624  0.32835  0.74124  1.0000
  H   H645      1.0  0.19796  0.64327  0.55940  1.0000
  H   H646      1.0  0.16352  0.53042  0.82184  1.0000
  H   H647      1.0  0.19720  0.53715  0.75619  1.0000
  H   H648      1.0  0.14372  0.65355  0.61092  1.0000
  H   H649      1.0  0.18368  0.55678  0.77825  1.0000
  C   C362      1.0  0.23268  0.63870  0.56217  1.0000
  C   C363      1.0  0.99473  0.38201  0.99038  1.0000
  C   C364      1.0  0.14618  0.44562  0.60114  1.0000
  C   C365      1.0  0.21016  0.62979  0.55556  1.0000
  H   H650      1.0  0.99949  0.54783  0.90338  1.0000
  H   H651      1.0  0.29063  0.34896  0.74451  1.0000
  H   H652      1.0  0.07360  0.49993  0.94710  1.0000
  H   H653      1.0  0.15521  0.44641  0.78386  1.0000
  H   H654      1.0  0.07145  0.60215  0.55930  1.0000
  H   H655      1.0  0.14129  0.45953  0.55844  1.0000
  H   H656      1.0  0.13992  0.53946  0.72746  1.0000
  H   H657      1.0  0.02261  0.50667  0.92948  1.0000
  N   N21       1.0  0.19436  0.52695  0.80027  1.0000
  C   C366      1.0  0.21805  0.53247  0.80403  1.0000
  C   C367      1.0  0.19252  0.50261  0.79517  1.0000
  C   C368      1.0  0.18547  0.53887  0.77399  1.0000
  C   C369      1.0  0.18084  0.53463  0.82531  1.0000
  C   C370      1.0  0.18748  0.52524  0.85498  1.0000
  C   C371      1.0  0.22277  0.55703  0.80760  1.0000
  C   C372      1.0  0.16296  0.53164  0.76208  1.0000
  C   C373      1.0  0.20932  0.48700  0.81083  1.0000
  C   C374      1.0  0.20290  0.46320  0.80780  1.0000
  C   C375      1.0  0.17428  0.53648  0.87870  1.0000
  C   C376      1.0  0.24722  0.56045  0.81137  1.0000
  C   C377      1.0  0.15554  0.54546  0.73634  1.0000
  H   H658      1.0  0.22738  0.52627  0.78523  1.0000
  H   H659      1.0  0.22572  0.52407  0.82279  1.0000
  H   H660      1.0  0.17578  0.49743  0.80014  1.0000
  H   H661      1.0  0.19494  0.49869  0.77209  1.0000
  C   C378      1.0  0.08325  0.38861  0.72358  1.0000
  H   H662      1.0  0.06566  0.63132  0.66363  1.0000
  C   C379      1.0  0.04210  0.53039  0.96678  1.0000
  N   N22       1.0  0.18771  0.61001  0.51630  1.0000
  C   C380      1.0  0.20848  0.62133  0.52420  1.0000
  C   C381      1.0  0.07032  0.50502  0.92473  1.0000
  H   H663      1.0  0.09252  0.41998  0.73996  1.0000
  C   C382      1.0  0.01998  0.60121  0.98835  1.0000
  C   C383      1.0  0.04964  0.57966  0.57671  1.0000
  C   C384      1.0  0.01479  0.46889  0.53627  1.0000
  Fe  Fe47      1.0  0.12335  0.57312  0.97047  1.0000
  H   H664      1.0  0.01552  0.60844  0.59334  1.0000
  H   H665      1.0  0.08240  0.64992  0.57776  1.0000
  H   H666      1.0  0.05525  0.53977  0.97749  1.0000
  H   H667      1.0  0.01576  0.45376  0.59300  1.0000
  H   H668      1.0  0.00762  0.48010  0.55272  1.0000
  Fe  Fe48      1.0  0.08112  0.59958  0.98130  1.0000
  H   H669      1.0  0.04727  0.56032  0.53743  1.0000
  C   C385      1.0  0.06306  0.52958  0.92306  1.0000
  H   H670      1.0  0.04668  0.60094  0.53970  1.0000
  H   H671      1.0  0.26419  0.61597  0.79683  1.0000
  C   C386      1.0  0.16786  0.62341  0.52535  1.0000
  H   H672      1.0  0.08919  0.50402  0.88552  1.0000
  H   H673      1.0  0.13643  0.40632  0.79421  1.0000
  H   H674      1.0  0.01277  0.59349  0.90459  1.0000
  N   N23       1.0  0.04102  0.53584  0.93529  1.0000
  H   H675      1.0  0.02881  0.62515  0.95752  1.0000
  H   H676      1.0  0.03235  0.47291  0.53574  1.0000
  H   H677      1.0  0.07975  0.40869  0.78299  1.0000
  H   H678      1.0  0.17405  0.56632  0.49898  1.0000
  C   C387      1.0  0.11169  0.48222  0.98620  1.0000
  H   H679      1.0  0.05772  0.49442  0.91532  1.0000
  C   C388      1.0  0.98831  0.39725  0.50251  1.0000
  H   H680      1.0  0.01124  0.60679  0.53883  1.0000
  C   C389      1.0  0.12087  0.52003  0.97892  1.0000
  C   C390      1.0  0.03980  0.56938  0.90151  1.0000
  H   H681      1.0  0.06344  0.53375  0.89996  1.0000
  C   C391      1.0  0.01551  0.61741  0.96788  1.0000
  C   C392      1.0  0.23762  0.64810  0.82184  1.0000
  H   H682      1.0  0.15366  0.63538  0.80022  1.0000
  H   H683      1.0  0.00873  0.52224  0.97731  1.0000
  H   H684      1.0  0.21109  0.63529  0.50966  1.0000
  C   C393      1.0  0.13186  0.36198  0.78692  1.0000
  C   C394      1.0  0.02098  0.53433  0.98388  1.0000
  H   H685      1.0  0.20425  0.57990  0.53072  1.0000
  H   H686      1.0  0.04208  0.44862  0.57682  1.0000
  C   C395      1.0  0.05632  0.62472  0.60579  1.0000
  C   C396      1.0  0.09990  0.40072  0.81965  1.0000
  H   H687      1.0  0.13818  0.44318  0.81456  1.0000
  H   H688      1.0  0.05962  0.57844  0.59672  1.0000
  C   C397      1.0  0.08195  0.39566  0.84058  1.0000
  C   C398      1.0  0.29120  0.33131  0.74591  1.0000
  H   H689      1.0  0.14613  0.37145  0.79380  1.0000
  H   H690      1.0  0.03214  0.59884  0.87714  1.0000
  H   H691      1.0  0.16727  0.55619  0.56251  1.0000
  C   C399      1.0  0.10185  0.52689  0.99282  1.0000
  H   H692      1.0  0.15429  0.57937  0.52166  1.0000
  H   H693      1.0  0.04437  0.63904  0.53628  1.0000
  H   H694      1.0  0.07584  0.60417  0.65407  1.0000
  H   H695      1.0  0.13114  0.37267  0.74283  1.0000
  H   H696      1.0  0.07449  0.56095  0.55314  1.0000
  H   H697      1.0  0.24557  0.62564  0.55978  1.0000
  H   H698      1.0  0.20737  0.61656  0.57104  1.0000
  C   C400      1.0  0.27155  0.63226  0.79794  1.0000
  H   H699      1.0  0.07841  0.37799  0.83982  1.0000
  C   C401      1.0  0.17117  0.55160  0.54010  1.0000
  H   H700      1.0  0.08318  0.40454  0.68194  1.0000
  C   C402      1.0  0.17087  0.57188  0.52119  1.0000
  H   H701      1.0  0.08421  0.38030  0.78760  1.0000
  H   H702      1.0  0.03219  0.57775  0.58151  1.0000
  H   H703      1.0  0.11463  0.39106  0.82621  1.0000
  C   C403      1.0  0.02536  0.50798  0.49807  1.0000
  H   H704      1.0  0.11523  0.46501  0.98290  1.0000
  H   H705      1.0  0.19186  0.65217  0.84208  1.0000
  C   C404      1.0  0.16548  0.64677  0.51257  1.0000
  C   C405      1.0  0.12593  0.49767  0.97582  1.0000
  H   H706      1.0  0.08416  0.63309  0.54624  1.0000
  H   H707      1.0  0.01396  0.55101  0.98074  1.0000
  C   C406      1.0  0.06089  0.61442  0.65823  1.0000
  S   S94       1.0  0.07489  0.58577  0.49547  1.0000
  S   S95       1.0  0.08011  0.37402  0.49681  1.0000
  H   H708      1.0  0.03589  0.50592  0.51750  1.0000
  H   H709      1.0  0.99041  0.63653  0.94527  1.0000
  H   H710      1.0  0.18349  0.64233  0.89326  1.0000
  H   H711      1.0  0.20087  0.65178  0.79293  1.0000
  H   H712      1.0  0.20618  0.63751  0.91770  1.0000
  H   H713      1.0  0.23328  0.64479  0.58463  1.0000
  H   H714      1.0  0.05956  0.38878  0.68846  1.0000
  C   C407      1.0  0.21545  0.64832  0.87556  1.0000
  H   H715      1.0  0.23601  0.65247  0.54770  1.0000
  C   C408      1.0  0.19958  0.64838  0.90043  1.0000
  H   H716      1.0  0.98786  0.51121  0.88617  1.0000
  C   C409      1.0  0.00303  0.49721  0.50194  1.0000
  H   H717      1.0  0.98752  0.45943  0.98097  1.0000
  H   H718      1.0  0.23108  0.65460  0.88371  1.0000
  H   H719      1.0  0.02673  0.45092  0.99130  1.0000
  H   H720      1.0  0.44514  0.83374  0.09530  1.0000
  S   S96       1.0  0.39936  0.89955  0.46920  1.0000
  H   H721      1.0  0.45625  0.86511  0.45295  1.0000
  Fe  Fe49      1.0  0.39906  0.88698  0.03162  1.0000
  H   H722      1.0  0.02749  0.67255  0.13157  1.0000
  S   S97       1.0  0.40788  0.87334  0.07634  1.0000
  Fe  Fe50      1.0  0.38620  0.86605  0.46240  1.0000
  S   S98       1.0  0.39647  0.84364  0.42490  1.0000
  C   C410      1.0  0.47762  0.78757  0.37929  1.0000
  H   H723      1.0  0.45596  0.86596  0.07616  1.0000
  H   H724      1.0  0.34283  0.71326  0.19288  1.0000
  S   S99       1.0  0.40966  0.92152  0.02570  1.0000
  Fe  Fe51      1.0  0.37586  0.78855  0.20170  1.0000
  S   S100      1.0  0.38827  0.75366  0.20899  1.0000
  S   S101      1.0  0.36817  0.80006  0.15569  1.0000
  Fe  Fe52      1.0  0.37133  0.79720  0.26643  1.0000
  S   S102      1.0  0.38340  0.76325  0.27721  1.0000
  S   S103      1.0  0.35818  0.82185  0.29955  1.0000
  Fe  Fe53      1.0  0.40902  0.76839  0.24404  1.0000
  S   S104      1.0  0.44391  0.75924  0.25902  1.0000
  Fe  Fe54      1.0  0.36140  0.75137  0.24142  1.0000
  S   S105      1.0  0.34170  0.72043  0.25071  1.0000
  S   S106      1.0  0.39804  0.80329  0.23515  1.0000
  S   S107      1.0  0.34794  0.78530  0.23221  1.0000
  H   H725      1.0  0.47982  0.84403  0.01950  1.0000
  C   C411      1.0  0.48114  0.82971  0.09087  1.0000
  C   C412      1.0  0.31691  0.70647  0.24264  1.0000
  C   C413      1.0  0.29975  0.71573  0.22597  1.0000
  C   C414      1.0  0.28045  0.70408  0.22073  1.0000
  C   C415      1.0  0.27786  0.68292  0.23184  1.0000
  C   C416      1.0  0.29504  0.67373  0.24852  1.0000
  C   C417      1.0  0.31426  0.68542  0.25393  1.0000
  H   H726      1.0  0.30128  0.73186  0.21714  1.0000
  H   H727      1.0  0.26739  0.71147  0.20780  1.0000
  H   H728      1.0  0.39934  0.94949  0.45037  1.0000
  H   H729      1.0  0.32721  0.67802  0.26703  1.0000
  H   H730      1.0  0.30787  0.87929  0.07698  1.0000
  C   C418      1.0  0.46912  0.75918  0.24078  1.0000
  H   H731      1.0  0.28786  0.93383  0.14055  1.0000
  H   H732      1.0  0.29210  0.67834  0.13974  1.0000
  H   H733      1.0  0.27843  0.92074  0.10792  1.0000
  H   H734      1.0  0.45555  0.76620  0.19892  1.0000
  H   H735      1.0  0.34213  0.77630  0.30713  1.0000
  H   H736      1.0  0.43600  0.88412  0.35591  1.0000
  C   C419      1.0  0.44994  0.83196  0.03669  1.0000
  N   N24       1.0  0.48385  0.84469  0.06552  1.0000
  H   H737      1.0  0.32674  0.78462  0.33801  1.0000
  H   H738      1.0  0.36497  0.72086  0.17219  1.0000
  C   C420      1.0  0.38521  0.83778  0.39029  1.0000
  C   C421      1.0  0.36622  0.84835  0.37952  1.0000
  C   C422      1.0  0.35823  0.84329  0.35176  1.0000
  C   C423      1.0  0.36911  0.82768  0.33435  1.0000
  C   C424      1.0  0.38817  0.81718  0.34508  1.0000
  C   C425      1.0  0.39608  0.82215  0.37286  1.0000
  H   H739      1.0  0.35766  0.86041  0.39257  1.0000
  H   H740      1.0  0.34349  0.85154  0.34374  1.0000
  H   H741      1.0  0.39667  0.80507  0.33207  1.0000
  H   H742      1.0  0.41063  0.81367  0.38102  1.0000
  C   C426      1.0  0.38008  0.82006  0.13378  1.0000
  C   C427      1.0  0.37263  0.82249  0.10521  1.0000
  C   C428      1.0  0.38123  0.83834  0.08713  1.0000
  C   C429      1.0  0.39725  0.85220  0.09750  1.0000
  C   C430      1.0  0.40478  0.84973  0.12602  1.0000
  C   C431      1.0  0.39632  0.83374  0.14402  1.0000
  H   H743      1.0  0.36011  0.81199  0.09699  1.0000
  H   H744      1.0  0.37542  0.83985  0.06522  1.0000
  H   H745      1.0  0.41711  0.86038  0.13436  1.0000
  H   H746      1.0  0.40220  0.83215  0.16592  1.0000
  H   H747      1.0  0.48112  0.87421  0.09094  1.0000
  C   C432      1.0  0.33185  0.74717  0.15626  1.0000
  H   H748      1.0  0.34838  0.67844  0.20944  1.0000
  C   C433      1.0  0.47518  0.90824  0.46301  1.0000
  H   H749      1.0  0.45153  0.81163  0.37551  1.0000
  H   H750      1.0  0.43610  0.84343  0.39733  1.0000
  H   H751      1.0  0.29926  0.80081  0.23675  1.0000
  H   H752      1.0  0.04792  0.68917  0.00866  1.0000
  C   C434      1.0  0.46407  0.90592  0.05590  1.0000
  H   H753      1.0  0.48346  0.83297  0.31106  1.0000
  C   C435      1.0  0.47352  0.86702  0.07134  1.0000
  C   C436      1.0  0.36380  0.93077  0.08414  1.0000
  H   H754      1.0  0.32638  0.85791  0.09086  1.0000
  C   C437      1.0  0.37127  0.98619  0.01288  1.0000
  H   H755      1.0  0.38093  0.66740  0.14523  1.0000
  H   H756      1.0  0.44186  0.90964  0.47592  1.0000
  H   H757      1.0  0.36576  0.77678  0.34972  1.0000
  H   H758      1.0  0.34778  0.75456  0.15216  1.0000
  H   H759      1.0  0.31933  0.75501  0.14184  1.0000
  C   C438      1.0  0.34204  0.88860  0.07937  1.0000
  H   H760      1.0  0.47500  0.78172  0.35696  1.0000
  H   H761      1.0  0.34871  0.75831  0.36808  1.0000
  H   H762      1.0  0.41794  0.96151  0.42619  1.0000
  H   H763      1.0  0.25113  0.71112  0.31603  1.0000
  S   S108      1.0  0.35348  0.87566  0.48078  1.0000
  C   C439      1.0  0.33748  0.67479  0.15265  1.0000
  C   C440      1.0  0.11759  0.66742  0.11230  1.0000
  C   C441      1.0  0.45804  0.81453  0.13034  1.0000
  S   S109      1.0  0.35516  0.94300  0.47627  1.0000
  H   H764      1.0  0.38227  0.95843  0.07098  1.0000
  H   H765      1.0  0.30046  0.71198  0.32929  1.0000
  C   C442      1.0  0.36208  0.67648  0.19422  1.0000
  H   H766      1.0  0.42201  0.90223  0.38066  1.0000
  C   C443      1.0  0.46016  0.83301  0.10880  1.0000
  H   H767      1.0  0.29846  0.77385  0.22056  1.0000
  C   C444      1.0  0.38211  0.94674  0.08907  1.0000
  H   H768      1.0  0.48289  0.97742  0.04567  1.0000
  N   N25       1.0  0.34388  0.89923  0.10856  1.0000
  C   C445      1.0  0.34816  0.88170  0.13076  1.0000
  H   H769      1.0  0.32725  0.75064  0.17878  1.0000
  C   C446      1.0  0.36358  0.91342  0.10827  1.0000
  C   C447      1.0  0.32386  0.91356  0.11465  1.0000
  H   H770      1.0  0.10694  0.67346  0.06890  1.0000
  C   C448      1.0  0.35517  0.88987  0.16093  1.0000
  H   H771      1.0  0.36132  0.87013  0.12357  1.0000
  H   H772      1.0  0.38964  0.69359  0.15659  1.0000
  H   H773      1.0  0.44498  0.81970  0.05244  1.0000
  H   H774      1.0  0.26752  0.69132  0.33607  1.0000
  C   C449      1.0  0.35301  0.87211  0.18347  1.0000
  C   C450      1.0  0.29737  0.66526  0.15499  1.0000
  C   C451      1.0  0.30490  0.90291  0.13047  1.0000
  H   H775      1.0  0.33142  0.68253  0.13250  1.0000
  H   H776      1.0  0.07147  0.67401  0.04750  1.0000
  H   H777      1.0  0.37157  0.71248  0.11744  1.0000
  H   H778      1.0  0.37885  0.90310  0.10651  1.0000
  H   H779      1.0  0.36518  0.92252  0.12886  1.0000
  H   H780      1.0  0.32825  0.92795  0.12805  1.0000
  C   C452      1.0  0.45841  0.90591  0.48248  1.0000
  H   H781      1.0  0.39760  0.68053  0.19889  1.0000
  H   H782      1.0  0.27201  0.69465  0.29836  1.0000
  H   H783      1.0  0.37259  0.89432  0.16081  1.0000
  H   H784      1.0  0.34530  0.90452  0.16753  1.0000
  C   C453      1.0  0.37560  0.68496  0.14698  1.0000
  C   C454      1.0  0.36024  0.96888  0.49235  1.0000
  C   C455      1.0  0.46906  0.81122  0.38204  1.0000
  H   H785      1.0  0.27268  0.79008  0.27275  1.0000
  H   H786      1.0  0.25506  0.78948  0.36709  1.0000
  H   H787      1.0  0.27439  0.79159  0.22029  1.0000
  H   H788      1.0  0.45673  0.85184  0.37464  1.0000
  H   H789      1.0  0.46412  0.91748  0.03767  1.0000
  H   H790      1.0  0.25385  0.80682  0.33577  1.0000
  H   H791      1.0  0.36365  0.74912  0.33683  1.0000
  H   H792      1.0  0.35903  0.87808  0.20458  1.0000
  H   H793      1.0  0.33567  0.86779  0.18557  1.0000
  H   H794      1.0  0.36280  0.85718  0.17762  1.0000
  C   C456      1.0  0.47146  0.81986  0.41328  1.0000
  C   C457      1.0  0.47266  0.83788  0.47299  1.0000
  H   H795      1.0  0.45715  0.88859  0.40149  1.0000
  H   H796      1.0  0.45624  0.79865  0.11904  1.0000
  H   H797      1.0  0.30047  0.88708  0.12092  1.0000
  H   H798      1.0  0.37957  0.95619  0.10917  1.0000
  H   H799      1.0  0.27978  0.72914  0.34573  1.0000
  H   H800      1.0  0.30958  0.89985  0.15319  1.0000
  H   H801      1.0  0.45076  0.80740  0.00259  1.0000
  C   C458      1.0  0.46539  0.80984  0.28649  1.0000
  H   H802      1.0  0.33838  0.90112  0.06264  1.0000
  H   H803      1.0  0.34156  0.85293  0.04184  1.0000
  H   H804      1.0  0.46880  0.77682  0.39388  1.0000
  H   H805      1.0  0.27147  0.76314  0.25650  1.0000
  C   C459      1.0  0.44400  0.81603  0.30131  1.0000
  H   H806      1.0  0.39820  0.93781  0.09019  1.0000
  Fe  Fe55      1.0  0.36780  0.90885  0.49054  1.0000
  C   C460      1.0  0.47491  0.83459  0.03842  1.0000
  H   H807      1.0  0.44333  0.81767  0.14346  1.0000
  H   H808      1.0  0.23148  0.78961  0.34345  1.0000
  H   H809      1.0  0.45960  0.81042  0.42567  1.0000
  N   N26       1.0  0.46767  0.84421  0.41815  1.0000
  H   H810      1.0  0.39516  0.67051  0.09609  1.0000
  H   H811      1.0  0.13143  0.65616  0.10665  1.0000
  H   H812      1.0  0.47331  0.91305  0.07414  1.0000
  H   H813      1.0  0.47309  0.84344  0.27812  1.0000
  H   H814      1.0  0.39105  0.69584  0.07696  1.0000
  H   H815      1.0  0.47141  0.91374  0.44147  1.0000
  C   C461      1.0  0.42767  0.88505  0.37680  1.0000
  C   C462      1.0  0.45091  0.85335  0.39687  1.0000
  H   H816      1.0  0.41311  0.87474  0.37586  1.0000
  H   H817      1.0  0.46549  0.87827  0.02763  1.0000
  H   H818      1.0  0.28376  0.66269  0.16986  1.0000
  C   C463      1.0  0.35000  0.71108  0.17142  1.0000
  H   H819      1.0  0.12386  0.68414  0.11471  1.0000
  S   S110      1.0  0.36657  0.89421  0.00970  1.0000
  C   C464      1.0  0.36497  0.98676  0.47493  1.0000
  H   H820      1.0  0.44695  0.82023  0.32414  1.0000
  H   H821      1.0  0.43555  0.83012  0.29042  1.0000
  H   H822      1.0  0.43302  0.80197  0.30024  1.0000
  H   H823      1.0  0.31670  0.71624  0.15375  1.0000
  H   H824      1.0  0.31270  0.84868  0.04295  1.0000
  H   H825      1.0  0.40410  0.97485  0.00417  1.0000
  C   C465      1.0  0.28442  0.91788  0.13023  1.0000
  H   H826      1.0  0.33385  0.87133  0.13314  1.0000
  H   H827      1.0  0.43403  0.87973  0.42124  1.0000
  H   H828      1.0  0.46081  0.84857  0.12113  1.0000
  C   C466      1.0  0.44320  0.87758  0.40109  1.0000
  H   H829      1.0  0.32132  0.65888  0.18818  1.0000
  C   C467      1.0  0.47037  0.76318  0.21141  1.0000
  N   N27       1.0  0.29780  0.75791  0.30770  1.0000
  C   C468      1.0  0.28629  0.73711  0.30061  1.0000
  C   C469      1.0  0.30225  0.76965  0.28017  1.0000
  C   C470      1.0  0.31966  0.75157  0.32133  1.0000
  C   C471      1.0  0.28525  0.77268  0.32816  1.0000
  C   C472      1.0  0.25993  0.77217  0.32659  1.0000
  C   C473      1.0  0.28446  0.72072  0.32556  1.0000
  C   C474      1.0  0.33526  0.77056  0.32743  1.0000
  C   C475      1.0  0.28215  0.77692  0.26160  1.0000
  C   C476      1.0  0.28908  0.78635  0.23309  1.0000
  C   C477      1.0  0.24953  0.79068  0.34435  1.0000
  C   C478      1.0  0.26774  0.70344  0.31850  1.0000
  C   C479      1.0  0.35449  0.76313  0.34671  1.0000
  H   H830      1.0  0.29497  0.72811  0.28330  1.0000
  H   H831      1.0  0.26967  0.74052  0.29163  1.0000
  H   H832      1.0  0.31114  0.78489  0.28455  1.0000
  H   H833      1.0  0.31321  0.75919  0.26658  1.0000
  H   H834      1.0  0.32861  0.73934  0.30767  1.0000
  H   H835      1.0  0.31736  0.74340  0.34221  1.0000
  H   H836      1.0  0.28984  0.76873  0.35079  1.0000
  H   H837      1.0  0.28999  0.78995  0.32538  1.0000
  H   H838      1.0  0.25430  0.75655  0.33526  1.0000
  H   H839      1.0  0.25339  0.77365  0.30446  1.0000
  H   H840      1.0  0.44196  0.84051  0.44861  1.0000
  H   H841      1.0  0.48620  0.87355  0.42220  1.0000
  H   H842      1.0  0.47247  0.79498  0.29712  1.0000
  H   H843      1.0  0.33733  0.71990  0.12790  1.0000
  C   C480      1.0  0.45853  0.84747  0.44777  1.0000
  C   C481      1.0  0.38241  0.68526  0.21027  1.0000
  C   C482      1.0  0.09984  0.66726  0.08890  1.0000
  H   H844      1.0  0.44090  0.84765  0.04056  1.0000
  H   H845      1.0  0.35803  0.88062  0.07368  1.0000
  H   H846      1.0  0.32232  0.87374  0.02859  1.0000
  C   C483      1.0  0.32537  0.86112  0.04533  1.0000
  C   C484      1.0  0.41667  0.95349  0.44731  1.0000
  H   H847      1.0  0.48222  0.81228  0.08385  1.0000
  H   H848      1.0  0.38127  0.70333  0.21236  1.0000
  C   C485      1.0  0.48151  0.82885  0.28804  1.0000
  N   N28       1.0  0.35597  0.68725  0.16595  1.0000
  H   H849      1.0  0.47255  0.81341  0.14492  1.0000
  H   H850      1.0  0.31710  0.92077  0.09435  1.0000
  H   H851      1.0  0.27132  0.91012  0.14226  1.0000
  H   H852      1.0  0.11101  0.66238  0.13314  1.0000
  H   H853      1.0  0.46097  0.80569  0.26405  1.0000
  S   S111      1.0  0.25307  0.66886  0.22395  1.0000
  H   H854      1.0  0.42491  0.82205  0.00638  1.0000
  C   C486      1.0  0.47453  0.88398  0.04689  1.0000
  H   H855      1.0  0.44690  0.90387  0.06223  1.0000
  H   H856      1.0  0.31347  0.68715  0.18384  1.0000
  H   H857      1.0  0.36672  0.92274  0.06314  1.0000
  H   H858      1.0  0.42687  0.93817  0.44706  1.0000
  H   H859      1.0  0.08647  0.67887  0.09523  1.0000
  C   C487      1.0  0.38479  0.67568  0.24037  1.0000
  H   H860      1.0  0.47785  0.82113  0.36662  1.0000
  C   C488      1.0  0.33324  0.72252  0.15062  1.0000
  C   C489      1.0  0.42447  0.96884  0.47097  1.0000
  C   C490      1.0  0.39308  0.68853  0.09859  1.0000
  H   H861      1.0  0.34811  0.94034  0.08275  1.0000
  C   C491      1.0  0.31757  0.67188  0.17212  1.0000
  C   C492      1.0  0.32433  0.87140  0.07521  1.0000
  H   H862      1.0  0.39940  0.68230  0.25132  1.0000
  H   H863      1.0  0.40802  0.69503  0.10887  1.0000
  H   H864      1.0  0.04805  0.66987  0.08419  1.0000
  H   H865      1.0  0.48230  0.81794  0.03513  1.0000
  C   C493      1.0  0.37300  0.69437  0.11639  1.0000
  H   H866      1.0  0.47899  0.82105  0.46858  1.0000
  H   H867      1.0  0.44178  0.97216  0.46713  1.0000
  H   H868      1.0  0.38676  0.65759  0.23934  1.0000
  S   S112      1.0  0.35930  0.96011  0.00971  1.0000
  H   H869      1.0  0.35865  0.68797  0.10478  1.0000
  H   H870      1.0  0.48060  0.95596  0.01935  1.0000
  H   H871      1.0  0.41475  0.98443  0.46864  1.0000
  C   C494      1.0  0.04919  0.67259  0.99891  1.0000
  H   H872      1.0  0.03392  0.65701  0.03405  1.0000
  H   H873      1.0  0.37030  0.68020  0.25333  1.0000
  Fe  Fe56      1.0  0.37861  0.92810  0.00117  1.0000
  C   C495      1.0  0.44290  0.82365  0.00713  1.0000
  H   H874      1.0  0.36718  0.98414  0.45223  1.0000
  H   H875      1.0  0.48678  0.84838  0.47739  1.0000
  H   H876      1.0  0.36486  0.65852  0.19122  1.0000
  H   H877      1.0  0.00627  0.67038  0.47988  1.0000
  H   H878      1.0  0.06685  0.66088  0.12891  1.0000
  H   H879      1.0  0.29347  0.65758  0.25735  1.0000
  C   C496      1.0  0.06963  0.65641  0.04223  1.0000
  C   C497      1.0  0.04930  0.65504  0.02202  1.0000
  C   C498      1.0  0.03318  0.65553  0.13657  1.0000
  H   H880      1.0  0.34337  0.65807  0.14622  1.0000
  H   H881      1.0  0.40363  0.74363  0.91620  1.0000
  S   S113      1.0  0.39216  0.91843  0.95832  1.0000
  H   H882      1.0  0.45364  0.87807  0.95888  1.0000
  Fe  Fe57      1.0  0.36818  0.86517  0.52383  1.0000
  H   H883      1.0  0.41646  0.79554  0.87494  1.0000
  S   S114      1.0  0.35427  0.83931  0.55300  1.0000
  Fe  Fe58      1.0  0.38327  0.88385  0.96849  1.0000
  S   S115      1.0  0.36583  0.86025  0.93785  1.0000
  H   H884      1.0  0.37923  0.74043  0.84092  1.0000
  H   H885      1.0  0.42646  0.82056  0.91745  1.0000
  H   H886      1.0  0.44522  0.74901  0.91427  1.0000
  S   S116      1.0  0.37917  0.89899  0.53492  1.0000
  Fe  Fe59      1.0  0.37426  0.79542  0.71803  1.0000
  S   S117      1.0  0.37602  0.75908  0.71039  1.0000
  S   S118      1.0  0.37396  0.82372  0.68630  1.0000
  Fe  Fe60      1.0  0.38160  0.79085  0.78391  1.0000
  S   S119      1.0  0.38366  0.75389  0.78018  1.0000
  S   S120      1.0  0.39477  0.81155  0.82159  1.0000
  Fe  Fe61      1.0  0.40463  0.75901  0.74175  1.0000
  S   S121      1.0  0.43703  0.74040  0.73398  1.0000
  Fe  Fe62      1.0  0.35465  0.75654  0.74920  1.0000
  S   S122      1.0  0.32275  0.73669  0.75206  1.0000
  S   S123      1.0  0.40389  0.79512  0.74687  1.0000
  S   S124      1.0  0.35151  0.79357  0.75536  1.0000
  S   S125      1.0  0.40002  0.85422  0.50481  1.0000
  C   C499      1.0  0.30079  0.97845  0.51053  1.0000
  C   C500      1.0  0.30896  0.71177  0.74305  1.0000
  C   C501      1.0  0.28739  0.70912  0.75229  1.0000
  C   C502      1.0  0.27554  0.69025  0.74504  1.0000
  C   C503      1.0  0.28503  0.67337  0.72842  1.0000
  C   C504      1.0  0.30657  0.67606  0.71913  1.0000
  C   C505      1.0  0.31838  0.69499  0.72624  1.0000
  H   H887      1.0  0.27968  0.72191  0.76504  1.0000
  H   H888      1.0  0.25900  0.68883  0.75217  1.0000
  C   C506      1.0  0.41768  0.75724  0.84743  1.0000
  H   H889      1.0  0.33482  0.69652  0.71875  1.0000
  C   C507      1.0  0.46652  0.77391  0.74002  1.0000
  C   C508      1.0  0.46340  0.75181  0.73392  1.0000
  H   H890      1.0  0.31270  0.75842  0.57426  1.0000
  C   C509      1.0  0.44109  0.76461  0.84112  1.0000
  H   H891      1.0  0.45267  0.78446  0.74530  1.0000
  C   C510      1.0  0.43681  0.73539  0.90352  1.0000
  C   C511      1.0  0.42791  0.78101  0.66697  1.0000
  H   H892      1.0  0.35303  0.95917  0.53513  1.0000
  H   H893      1.0  0.42990  0.96780  0.95080  1.0000
  H   H894      1.0  0.45248  0.85356  0.50568  1.0000
  H   H895      1.0  0.09518  0.67055  0.53676  1.0000
  C   C512      1.0  0.41277  0.74171  0.89594  1.0000
  C   C513      1.0  0.37378  0.84795  0.90462  1.0000
  C   C514      1.0  0.39449  0.85039  0.89322  1.0000
  C   C515      1.0  0.40032  0.83959  0.86748  1.0000
  C   C516      1.0  0.38552  0.82640  0.85249  1.0000
  C   C517      1.0  0.36467  0.82425  0.86362  1.0000
  C   C518      1.0  0.35894  0.83483  0.88956  1.0000
  H   H896      1.0  0.40610  0.86042  0.90441  1.0000
  H   H897      1.0  0.41651  0.84140  0.85920  1.0000
  H   H898      1.0  0.35304  0.81420  0.85249  1.0000
  H   H899      1.0  0.34284  0.83286  0.89806  1.0000
  C   C519      1.0  0.36947  0.82710  0.64885  1.0000
  C   C520      1.0  0.37122  0.84809  0.63721  1.0000
  C   C521      1.0  0.36755  0.85188  0.60774  1.0000
  C   C522      1.0  0.36163  0.83476  0.58957  1.0000
  C   C523      1.0  0.36011  0.81368  0.60116  1.0000
  C   C524      1.0  0.36427  0.80978  0.63057  1.0000
  H   H900      1.0  0.37527  0.86160  0.65113  1.0000
  H   H901      1.0  0.36861  0.86820  0.59923  1.0000
  H   H902      1.0  0.35567  0.80032  0.58723  1.0000
  H   H903      1.0  0.36319  0.79351  0.63912  1.0000
  H   H904      1.0  0.43494  0.78823  0.62278  1.0000
  H   H905      1.0  0.40593  0.72705  0.88533  1.0000
  C   C525      1.0  0.43702  0.83160  0.67020  1.0000
  H   H906      1.0  0.46196  0.82896  0.70476  1.0000
  H   H907      1.0  0.33911  0.74206  0.84187  1.0000
  C   C526      1.0  0.44822  0.75710  0.81133  1.0000
  H   H908      1.0  0.06913  0.68158  0.54825  1.0000
  N   N29       1.0  0.43063  0.97153  0.52660  1.0000
  H   H909      1.0  0.26215  0.66621  0.79831  1.0000
  S   S126      1.0  0.45475  0.92406  0.97223  1.0000
  C   C527      1.0  0.45950  0.83712  0.50039  1.0000
  C   C528      1.0  0.20585  0.66183  0.84999  1.0000
  H   H910      1.0  0.26885  0.71334  0.83439  1.0000
  H   H911      1.0  0.19831  0.67728  0.85859  1.0000
  H   H912      1.0  0.39979  0.95287  0.60279  1.0000
  H   H913      1.0  0.43699  0.86687  0.58795  1.0000
  H   H914      1.0  0.26154  0.67655  0.85303  1.0000
  C   C529      1.0  0.47221  0.82508  0.82199  1.0000
  H   H915      1.0  0.29997  0.82243  0.68359  1.0000
  H   H916      1.0  0.44734  0.83531  0.99025  1.0000
  H   H917      1.0  0.18433  0.68771  0.75235  1.0000
  H   H918      1.0  0.29149  0.77945  0.57914  1.0000
  C   C530      1.0  0.25130  0.72751  0.68755  1.0000
  H   H919      1.0  0.04152  0.65649  0.56666  1.0000
  H   H920      1.0  0.43687  0.76406  0.79464  1.0000
  C   C531      1.0  0.47506  0.90334  0.97270  1.0000
  H   H921      1.0  0.47979  0.97005  0.95997  1.0000
  H   H922      1.0  0.27173  0.71213  0.87280  1.0000
  H   H923      1.0  0.45408  0.81788  0.60250  1.0000
  H   H924      1.0  0.31908  0.78690  0.57275  1.0000
  C   C532      1.0  0.46992  0.88178  0.96614  1.0000
  Fe  Fe63      1.0  0.40999  0.88845  0.51295  1.0000
  C   C533      1.0  0.24858  0.68953  0.85480  1.0000
  H   H925      1.0  0.30423  0.81083  0.71901  1.0000
  H   H926      1.0  0.32608  0.82407  0.70156  1.0000
  H   H927      1.0  0.25556  0.72689  0.71074  1.0000
  C   C534      1.0  0.46314  0.89890  0.51035  1.0000
  H   H928      1.0  0.47247  0.79354  0.63825  1.0000
  H   H929      1.0  0.36233  0.70372  0.64617  1.0000
  C   C535      1.0  0.47123  0.96578  0.51258  1.0000
  H   H930      1.0  0.47329  0.84199  0.83054  1.0000
  H   H931      1.0  0.46728  0.82572  0.79898  1.0000
  H   H932      1.0  0.45934  0.81682  0.83381  1.0000
  C   C536      1.0  0.38457  0.76580  0.87444  1.0000
  C   C537      1.0  0.43949  0.97726  0.93550  1.0000
  H   H933      1.0  0.43006  0.72006  0.94433  1.0000
  H   H934      1.0  0.46483  0.76280  0.80708  1.0000
  C   C538      1.0  0.46989  0.98231  0.97234  1.0000
  C   C539      1.0  0.43009  0.79758  0.64236  1.0000
  H   H935      1.0  0.41316  0.80405  0.63810  1.0000
  C   C540      1.0  0.41557  0.76108  0.65662  1.0000
  H   H936      1.0  0.46872  0.79836  0.67505  1.0000
  H   H937      1.0  0.42420  0.75277  0.63869  1.0000
  H   H938      1.0  0.41467  0.74919  0.67437  1.0000
  H   H939      1.0  0.39872  0.76602  0.64954  1.0000
  H   H940      1.0  0.31425  0.66330  0.70629  1.0000
  H   H941      1.0  0.39292  0.79754  0.91566  1.0000
  C   C541      1.0  0.48480  0.89431  0.51885  1.0000
  C   C542      1.0  0.41296  0.94436  0.56092  1.0000
  C   C543      1.0  0.43231  0.84194  0.72255  1.0000
  H   H942      1.0  0.28379  0.97747  0.51805  1.0000
  C   C544      1.0  0.41877  0.78168  0.89011  1.0000
  C   C545      1.0  0.25984  0.71143  0.85461  1.0000
  H   H943      1.0  0.41134  0.85849  0.57298  1.0000
  H   H944      1.0  0.41437  0.84012  0.72062  1.0000
  H   H945      1.0  0.44095  0.80967  0.70755  1.0000
  C   C546      1.0  0.46805  0.80666  0.65399  1.0000
  N   N30       1.0  0.40894  0.76149  0.87722  1.0000
  H   H946      1.0  0.41684  0.73960  0.84165  1.0000
  H   H947      1.0  0.03492  0.67055  0.98423  1.0000
  H   H948      1.0  0.43058  0.70148  0.91396  1.0000
  H   H949      1.0  0.37084  0.96614  0.91784  1.0000
  H   H950      1.0  0.47960  0.72115  0.72297  1.0000
  H   H951      1.0  0.17622  0.68126  0.81646  1.0000
  H   H952      1.0  0.48161  0.83881  0.66465  1.0000
  H   H953      1.0  0.25459  0.71110  0.67790  1.0000
  H   H954      1.0  0.43978  0.79983  0.93971  1.0000
  H   H955      1.0  0.24046  0.68825  0.87569  1.0000
  H   H956      1.0  0.40722  0.76599  0.83116  1.0000
  H   H957      1.0  0.36864  0.73212  0.65019  1.0000
  C   C547      1.0  0.23149  0.68830  0.83012  1.0000
  H   H958      1.0  0.33949  0.76233  0.87012  1.0000
  Fe  Fe64      1.0  0.42269  0.91010  0.98369  1.0000
  H   H959      1.0  0.16775  0.66697  0.76757  1.0000
  H   H960      1.0  0.06427  0.67107  0.98612  1.0000
  C   C548      1.0  0.39546  0.94298  0.58363  1.0000
  H   H961      1.0  0.43609  0.84348  0.56405  1.0000
  C   C549      1.0  0.44643  0.82843  0.61938  1.0000
  H   H962      1.0  0.43612  0.85922  0.71835  1.0000
  H   H963      1.0  0.45328  0.75821  0.85698  1.0000
  N   N31       1.0  0.44544  0.81608  0.64727  1.0000
  C   C550      1.0  0.18744  0.68466  0.79880  1.0000
  H   H964      1.0  0.07082  0.66471  0.51637  1.0000
  H   H965      1.0  0.37714  0.76877  0.89570  1.0000
  H   H966      1.0  0.40834  0.77636  0.93465  1.0000
  H   H967      1.0  0.48201  0.84834  0.96344  1.0000
  H   H968      1.0  0.40804  0.93415  0.54245  1.0000
  H   H969      1.0  0.45271  0.94437  0.53748  1.0000
  H   H970      1.0  0.34936  0.76866  0.83493  1.0000
  H   H971      1.0  0.19295  0.70165  0.80124  1.0000
  H   H972      1.0  0.36116  0.71637  0.68102  1.0000
  H   H973      1.0  0.41388  0.82415  0.59942  1.0000
  C   C551      1.0  0.42749  0.85247  0.58148  1.0000
  H   H974      1.0  0.44145  0.78273  0.84144  1.0000
  H   H975      1.0  0.44564  0.73042  0.88391  1.0000
  H   H976      1.0  0.43669  0.77952  0.89293  1.0000
  C   C552      1.0  0.48177  0.73827  0.72765  1.0000
  H   H977      1.0  0.38120  0.78101  0.86207  1.0000
  H   H978      1.0  0.44387  0.77479  0.67558  1.0000
  C   C553      1.0  0.44421  0.82663  0.70159  1.0000
  H   H979      1.0  0.24771  0.72522  0.85686  1.0000
  H   H980      1.0  0.23923  0.69360  0.81005  1.0000
  C   C554      1.0  0.34842  0.75566  0.85134  1.0000
  H   H981      1.0  0.47026  0.83161  0.51852  1.0000
  N   N32       1.0  0.22095  0.66662  0.82564  1.0000
  H   H982      1.0  0.37936  0.94887  0.57490  1.0000
  C   C555      1.0  0.48663  0.82324  0.65394  1.0000
  C   C556      1.0  0.41610  0.96838  0.55191  1.0000
  H   H983      1.0  0.45855  0.96886  0.55563  1.0000
  C   C557      1.0  0.45310  0.96239  0.53446  1.0000
  C   C558      1.0  0.14851  0.66081  0.52847  1.0000
  H   H984      1.0  0.21735  0.67285  0.78005  1.0000
  H   H985      1.0  0.41548  0.81438  0.95176  1.0000
  C   C559      1.0  0.17415  0.68358  0.77084  1.0000
  H   H986      1.0  0.41836  0.78868  0.68453  1.0000
  H   H987      1.0  0.41884  0.83267  0.66939  1.0000
  H   H988      1.0  0.44210  0.84858  0.66607  1.0000
  C   C560      1.0  0.42374  0.80718  0.93276  1.0000
  H   H989      1.0  0.32748  0.79556  0.66430  1.0000
  H   H990      1.0  0.36958  0.73375  0.87566  1.0000
  C   C561      1.0  0.43827  0.71592  0.92389  1.0000
  H   H991      1.0  0.45700  0.84276  0.62191  1.0000
  H   H992      1.0  0.32444  0.71153  0.65983  1.0000
  H   H993      1.0  0.19722  0.66514  0.90934  1.0000
  H   H994      1.0  0.45998  0.97244  0.98682  1.0000
  C   C562      1.0  0.37133  0.74730  0.86026  1.0000
  H   H995      1.0  0.42265  0.97662  0.57135  1.0000
  S   S127      1.0  0.44209  0.89564  0.53456  1.0000
  H   H996      1.0  0.23357  0.73162  0.68523  1.0000
  H   H997      1.0  0.43752  0.83784  0.74484  1.0000
  H   H998      1.0  0.40318  0.95805  0.50309  1.0000
  H   H999      1.0  0.42834  0.93715  0.57028  1.0000
  H   H1000     1.0  0.41533  0.84727  0.62347  1.0000
  H   H1001     1.0  0.16007  0.69547  0.77165  1.0000
  C   C563      1.0  0.42426  0.83758  0.60705  1.0000
  H   H1002     1.0  0.45567  0.71153  0.92877  1.0000
  C   C564      1.0  0.35714  0.97262  0.52157  1.0000
  H   H1003     1.0  0.39408  0.92570  0.59031  1.0000
  C   C565      1.0  0.40945  0.78983  0.91910  1.0000
  H   H1004     1.0  0.33189  0.78423  0.69912  1.0000
  H   H1005     1.0  0.21891  0.70133  0.83469  1.0000
  N   N33       1.0  0.30426  0.75562  0.66296  1.0000
  C   C566      1.0  0.32738  0.74693  0.66798  1.0000
  C   C567      1.0  0.30012  0.77634  0.68027  1.0000
  C   C568      1.0  0.28917  0.73858  0.67366  1.0000
  C   C569      1.0  0.29908  0.75936  0.63164  1.0000
  C   C570      1.0  0.31390  0.77503  0.61572  1.0000
  C   C571      1.0  0.33395  0.72536  0.65221  1.0000
  C   C572      1.0  0.26440  0.74486  0.67280  1.0000
  C   C573      1.0  0.31941  0.79189  0.68452  1.0000
  C   C574      1.0  0.31184  0.81360  0.69800  1.0000
  C   C575      1.0  0.30892  0.77485  0.58353  1.0000
  C   C576      1.0  0.35801  0.71911  0.65779  1.0000
  S   S128      1.0  0.41509  0.87492  0.99123  1.0000
  H   H1006     1.0  0.33030  0.74417  0.69132  1.0000
  H   H1007     1.0  0.33943  0.75906  0.66187  1.0000
  H   H1008     1.0  0.28607  0.78606  0.67090  1.0000
  H   H1009     1.0  0.29530  0.77226  0.70250  1.0000
  H   H1010     1.0  0.29372  0.73419  0.69614  1.0000
  H   H1011     1.0  0.29086  0.72319  0.66102  1.0000
  H   H1012     1.0  0.29901  0.74351  0.61983  1.0000
  H   H1013     1.0  0.28222  0.76642  0.62882  1.0000
  H   H1014     1.0  0.33143  0.77048  0.61869  1.0000
  H   H1015     1.0  0.31080  0.79206  0.62326  1.0000
  H   H1016     1.0  0.39968  0.97617  0.54758  1.0000
  H   H1017     1.0  0.33150  0.72702  0.62874  1.0000
  H   H1018     1.0  0.25828  0.74606  0.65034  1.0000
  H   H1019     1.0  0.26081  0.76066  0.68378  1.0000
  C   C577      1.0  0.20728  0.66812  0.79842  1.0000
  H   H1020     1.0  0.44601  0.82557  0.49786  1.0000
  H   H1021     1.0  0.44855  0.73899  0.80957  1.0000
  C   C578      1.0  0.07758  0.66715  0.53836  1.0000
  H   H1022     1.0  0.15368  0.66314  0.55118  1.0000
  H   H1023     1.0  0.45006  0.96569  0.92307  1.0000
  C   C579      1.0  0.36666  0.97949  0.93320  1.0000
  H   H1024     1.0  0.42791  0.98584  0.92048  1.0000
  H   H1025     1.0  0.47230  0.98317  0.50666  1.0000
  C   C580      1.0  0.48598  0.86501  0.96855  1.0000
  H   H1026     1.0  0.18095  0.65552  0.51366  1.0000
  H   H1027     1.0  0.30587  0.96241  0.50102  1.0000
  H   H1028     1.0  0.31172  0.98169  0.52918  1.0000
  C   C581      1.0  0.42117  0.95919  0.50123  1.0000
  H   H1029     1.0  0.14663  0.67710  0.51821  1.0000
  H   H1030     1.0  0.42744  0.94190  0.50111  1.0000
  H   H1031     1.0  0.37932  0.97929  0.95050  1.0000
  H   H1032     1.0  0.35060  0.97618  0.94263  1.0000
  H   H1033     1.0  0.46819  0.95583  0.49307  1.0000
  Fe  Fe65      1.0  0.57787  0.10635  0.02535  1.0000
  C   C582      1.0  0.50698  0.10693  0.07229  1.0000
  S   S129      1.0  0.57235  0.11884  0.07155  1.0000
  H   H1034     1.0  0.54742  0.19821  0.03310  1.0000
  S   S130      1.0  0.56181  0.10194  0.45753  1.0000
  H   H1035     1.0  0.51928  0.12351  0.03631  1.0000
  Fe  Fe66      1.0  0.59252  0.11981  0.44963  1.0000
  S   S131      1.0  0.59945  0.11949  0.40168  1.0000
  H   H1036     1.0  0.53153  0.14286  0.29528  1.0000
  C   C583      1.0  0.49409  0.17344  0.04143  1.0000
  H   H1037     1.0  0.52782  0.15426  0.01573  1.0000
  S   S132      1.0  0.56785  0.07179  0.01626  1.0000
  Fe  Fe67      1.0  0.60206  0.20635  0.27000  1.0000
  S   S133      1.0  0.58243  0.23807  0.27048  1.0000
  S   S134      1.0  0.61445  0.19791  0.31530  1.0000
  Fe  Fe68      1.0  0.59854  0.20347  0.20349  1.0000
  S   S135      1.0  0.57836  0.23492  0.20148  1.0000
  S   S136      1.0  0.61039  0.18953  0.16022  1.0000
  Fe  Fe69      1.0  0.60314  0.24827  0.23356  1.0000
  S   S137      1.0  0.61881  0.28228  0.22817  1.0000
  Fe  Fe70      1.0  0.55996  0.22174  0.23882  1.0000
  S   S138      1.0  0.52417  0.21403  0.24773  1.0000
  S   S139      1.0  0.62358  0.21719  0.23441  1.0000
  S   S140      1.0  0.57925  0.18957  0.23938  1.0000
  H   H1038     1.0  0.56476  0.20040  0.12286  1.0000
  C   C584      1.0  0.49883  0.10507  0.40567  1.0000
  H   H1039     1.0  0.60815  0.03334  0.47065  1.0000
  C   C585      1.0  0.53189  0.16907  0.38315  1.0000
  H   H1040     1.0  0.50467  0.25515  0.22449  1.0000
  H   H1041     1.0  0.54532  0.24310  0.36533  1.0000
  C   C586      1.0  0.68311  0.29662  0.24733  1.0000
  C   C587      1.0  0.66324  0.28543  0.24486  1.0000
  C   C588      1.0  0.64426  0.29596  0.23373  1.0000
  H   H1042     1.0  0.70281  0.18863  0.11702  1.0000
  H   H1043     1.0  0.50861  0.09575  0.42205  1.0000
  H   H1044     1.0  0.66261  0.26863  0.25159  1.0000
  C   C589      1.0  0.55424  0.21533  0.33660  1.0000
  H   H1045     1.0  0.74714  0.28913  0.35093  1.0000
  C   C590      1.0  0.60212  0.14194  0.37813  1.0000
  C   C591      1.0  0.60117  0.13818  0.34838  1.0000
  C   C592      1.0  0.60420  0.15525  0.32882  1.0000
  C   C593      1.0  0.60849  0.17627  0.33883  1.0000
  C   C594      1.0  0.60932  0.18006  0.36859  1.0000
  C   C595      1.0  0.60588  0.16309  0.38814  1.0000
  H   H1046     1.0  0.59843  0.12187  0.34039  1.0000
  H   H1047     1.0  0.60385  0.15198  0.30604  1.0000
  H   H1048     1.0  0.61290  0.19619  0.37659  1.0000
  H   H1049     1.0  0.60684  0.16620  0.41094  1.0000
  C   C596      1.0  0.58368  0.13831  0.09588  1.0000
  C   C597      1.0  0.57511  0.14030  0.12362  1.0000
  C   C598      1.0  0.58286  0.15592  0.14344  1.0000
  C   C599      1.0  0.59961  0.16965  0.13598  1.0000
  C   C600      1.0  0.60827  0.16758  0.10830  1.0000
  C   C601      1.0  0.60031  0.15214  0.08834  1.0000
  H   H1050     1.0  0.56228  0.12971  0.12981  1.0000
  H   H1051     1.0  0.57606  0.15717  0.16460  1.0000
  H   H1052     1.0  0.62125  0.17801  0.10221  1.0000
  H   H1053     1.0  0.60713  0.15088  0.06718  1.0000
  H   H1054     1.0  0.57837  0.06841  0.41267  1.0000
  C   C602      1.0  0.64566  0.31803  0.22555  1.0000
  H   H1055     1.0  0.54838  0.15673  0.04232  1.0000
  C   C603      1.0  0.50713  0.22834  0.33057  1.0000
  H   H1056     1.0  0.54124  0.17003  0.11052  1.0000
  H   H1057     1.0  0.52797  0.19330  0.30201  1.0000
  H   H1058     1.0  0.50366  0.14955  0.08987  1.0000
  C   C604      1.0  0.50771  0.12734  0.05375  1.0000
  C   C605      1.0  0.57557  0.24963  0.34554  1.0000
  N   N34       1.0  0.73519  0.32160  0.33823  1.0000
  H   H1059     1.0  0.48979  0.03553  0.48738  1.0000
  H   H1060     1.0  0.64578  0.25149  0.12221  1.0000
  H   H1061     1.0  0.54520  0.01863  0.41000  1.0000
  H   H1062     1.0  0.70281  0.28890  0.31921  1.0000
  H   H1063     1.0  0.56989  0.20633  0.33240  1.0000
  C   C606      1.0  0.64426  0.24601  0.14473  1.0000
  C   C607      1.0  0.52170  0.18633  0.07667  1.0000
  C   C608      1.0  0.66398  0.23690  0.18944  1.0000
  H   H1064     1.0  0.54940  0.22293  0.31572  1.0000
  H   H1065     1.0  0.50512  0.22043  0.30937  1.0000
  H   H1066     1.0  0.66884  0.21007  0.12494  1.0000
  C   C609      1.0  0.54595  0.18776  0.37220  1.0000
  N   N35       1.0  0.52277  0.02272  0.44511  1.0000
  H   H1067     1.0  0.72118  0.29655  0.36388  1.0000
  H   H1068     1.0  0.51773  0.99399  0.41914  1.0000
  H   H1069     1.0  0.65739  0.27914  0.18293  1.0000
  C   C610      1.0  0.62378  0.25768  0.15747  1.0000
  H   H1070     1.0  0.49384  0.07257  0.48049  1.0000
  H   H1071     1.0  0.93315  0.29920  0.45765  1.0000
  H   H1072     1.0  0.50234  0.21590  0.17996  1.0000
  C   C611      1.0  0.49697  0.22527  0.24540  1.0000
  H   H1073     1.0  0.53661  0.20946  0.12437  1.0000
  H   H1074     1.0  0.55849  0.15110  0.40537  1.0000
  C   C612      1.0  0.54970  0.20366  0.10980  1.0000
  H   H1075     1.0  0.50539  0.05364  0.43720  1.0000
  H   H1076     1.0  0.53867  0.02221  0.48663  1.0000
  H   H1077     1.0  0.67691  0.20481  0.22927  1.0000
  H   H1078     1.0  0.80193  0.30166  0.29279  1.0000
  H   H1079     1.0  0.69989  0.24334  0.15326  1.0000
  H   H1080     1.0  0.91149  0.26604  0.45065  1.0000
  C   C613      1.0  0.68381  0.23932  0.14351  1.0000
  H   H1081     1.0  0.89163  0.30187  0.45742  1.0000
  H   H1082     1.0  0.51817  0.24216  0.32819  1.0000
  H   H1083     1.0  0.67001  0.22979  0.24847  1.0000
  C   C614      1.0  0.68233  0.22150  0.23464  1.0000
  C   C615      1.0  0.67161  0.31154  0.15090  1.0000
  C   C616      1.0  0.90150  0.29488  0.47550  1.0000
  H   H1084     1.0  0.50834  0.18833  0.09242  1.0000
  H   H1085     1.0  0.96698  0.31203  0.46092  1.0000
  C   C617      1.0  0.51806  0.99875  0.44222  1.0000
  C   C618      1.0  0.60361  0.25407  0.13853  1.0000
  C   C619      1.0  0.51621  0.21181  0.35334  1.0000
  C   C620      1.0  0.55197  0.04992  0.42971  1.0000
  H   H1086     1.0  0.56275  0.18094  0.36857  1.0000
  S   S141      1.0  0.58365  0.14818  0.47863  1.0000
  H   H1087     1.0  0.52249  0.20241  0.06604  1.0000
  C   C621      1.0  0.55983  0.18022  0.99726  1.0000
  H   H1088     1.0  0.51362  0.99321  0.01631  1.0000
  C   C622      1.0  0.66949  0.27238  0.16755  1.0000
  H   H1089     1.0  0.53964  0.06057  0.41843  1.0000
  H   H1090     1.0  0.76460  0.29126  0.30554  1.0000
  H   H1091     1.0  0.53964  0.16294  0.26952  1.0000
  H   H1092     1.0  0.65196  0.24563  0.20338  1.0000
  H   H1093     1.0  0.53173  0.14579  0.41824  1.0000
  H   H1094     1.0  0.55483  0.05665  0.45143  1.0000
  H   H1095     1.0  0.49120  0.13023  0.04414  1.0000
  C   C623      1.0  0.50644  0.10425  0.48896  1.0000
  H   H1096     1.0  0.74080  0.25486  0.32455  1.0000
  H   H1097     1.0  0.62056  0.25113  0.17896  1.0000
  H   H1098     1.0  0.53033  0.15596  0.36683  1.0000
  H   H1099     1.0  0.64038  0.22839  0.14310  1.0000
  C   C624      1.0  0.60061  0.01957  0.48035  1.0000
  H   H1100     1.0  0.57133  0.04505  0.39126  1.0000
  H   H1101     1.0  0.55804  0.01746  0.44452  1.0000
  H   H1102     1.0  0.65419  0.28683  0.12840  1.0000
  H   H1103     1.0  0.54771  0.19934  0.39047  1.0000
  H   H1104     1.0  0.51787  0.22073  0.37407  1.0000
  H   H1105     1.0  0.49389  0.09363  0.38838  1.0000
  H   H1106     1.0  0.49318  0.01497  0.04615  1.0000
  C   C625      1.0  0.68451  0.31870  0.23909  1.0000
  N   N36       1.0  0.66540  0.24866  0.16127  1.0000
  H   H1107     1.0  0.56764  0.25827  0.32706  1.0000
  H   H1108     1.0  0.59075  0.24091  0.33839  1.0000
  S   S142      1.0  0.60675  0.10319  0.99599  1.0000
  C   C626      1.0  0.50592  0.03660  0.42863  1.0000
  C   C627      1.0  0.66948  0.28776  0.14132  1.0000
  C   C628      1.0  0.54477  0.02596  0.43190  1.0000
  H   H1109     1.0  0.55747  0.15797  0.33122  1.0000
  H   H1110     1.0  0.58656  0.04142  0.42460  1.0000
  C   C629      1.0  0.56000  0.23359  0.35840  1.0000
  H   H1111     1.0  0.50183  0.09290  0.05885  1.0000
  H   H1112     1.0  0.68557  0.27410  0.17859  1.0000
  H   H1113     1.0  0.51069  0.03810  0.40582  1.0000
  C   C630      1.0  0.54500  0.15325  0.28860  1.0000
  H   H1114     1.0  0.57395  0.17241  0.00903  1.0000
  H   H1115     1.0  0.61168  0.99848  0.07211  1.0000
  H   H1116     1.0  0.51837  0.17415  0.32639  1.0000
  C   C631      1.0  0.53268  0.18411  0.32169  1.0000
  C   C632      1.0  0.68553  0.23462  0.20740  1.0000
  H   H1117     1.0  0.55305  0.21673  0.09427  1.0000
  C   C633      1.0  0.49181  0.24557  0.23298  1.0000
  C   C634      1.0  0.72061  0.28475  0.32018  1.0000
  C   C635      1.0  0.72328  0.26012  0.32487  1.0000
  H   H1118     1.0  0.69797  0.22001  0.24695  1.0000
  H   H1119     1.0  0.55914  0.14247  0.28254  1.0000
  C   C636      1.0  0.68352  0.21430  0.13780  1.0000
  H   H1120     1.0  0.71455  0.25135  0.30746  1.0000
  C   C637      1.0  0.73166  0.29787  0.34476  1.0000
  H   H1121     1.0  0.69865  0.22601  0.19531  1.0000
  H   H1122     1.0  0.69754  0.28808  0.25578  1.0000
  C   C638      1.0  0.55182  0.16839  0.31305  1.0000
  C   C639      1.0  0.70353  0.20650  0.12108  1.0000
  H   H1123     1.0  0.91263  0.26225  0.48911  1.0000
  H   H1124     1.0  0.55701  0.17768  0.08018  1.0000
  C   C640      1.0  0.59461  0.99321  0.06928  1.0000
  H   H1125     1.0  0.50316  0.20000  0.35679  1.0000
  C   C641      1.0  0.77068  0.30718  0.31312  1.0000
  H   H1126     1.0  0.56574  0.17768  0.30536  1.0000
  H   H1127     1.0  0.53117  0.14263  0.08134  1.0000
  H   H1128     1.0  0.58011  0.26199  0.36188  1.0000
  N   N37       1.0  0.53729  0.19974  0.34600  1.0000
  H   H1129     1.0  0.56835  0.22641  0.37761  1.0000
  C   C642      1.0  0.90330  0.27013  0.47111  1.0000
  H   H1130     1.0  0.50003  0.20708  0.02652  1.0000
  H   H1131     1.0  0.76545  0.30766  0.38226  1.0000
  H   H1132     1.0  0.51532  0.17536  0.38873  1.0000
  C   C643      1.0  0.54329  0.18277  0.09410  1.0000
  C   C644      1.0  0.53361  0.16535  0.03298  1.0000
  H   H1133     1.0  0.68349  0.28352  0.12739  1.0000
  H   H1134     1.0  0.69132  0.25090  0.21397  1.0000
  H   H1135     1.0  0.71625  0.25554  0.34565  1.0000
  H   H1136     1.0  0.68357  0.24717  0.12209  1.0000
  C   C645      1.0  0.51501  0.14742  0.07163  1.0000
  C   C646      1.0  0.54223  0.15869  0.41011  1.0000
  H   H1137     1.0  0.52342  0.10281  0.08161  1.0000
  C   C647      1.0  0.57335  0.05117  0.41355  1.0000
  H   H1138     1.0  0.51529  0.19021  0.16998  1.0000
  H   H1139     1.0  0.60024  0.23637  0.13703  1.0000
  H   H1140     1.0  0.49513  0.10945  0.08978  1.0000
  N   N38       1.0  0.51627  0.16859  0.05534  1.0000
  H   H1141     1.0  0.54414  0.17109  0.42738  1.0000
  H   H1142     1.0  0.60592  0.26060  0.11672  1.0000
  C   C648      1.0  0.60787  0.99799  0.47360  1.0000
  H   H1143     1.0  0.62568  0.27558  0.15937  1.0000
  H   H1144     1.0  0.72740  0.28865  0.29904  1.0000
  H   H1145     1.0  0.71875  0.20964  0.13350  1.0000
  S   S143      1.0  0.61154  0.10110  0.48435  1.0000
  H   H1146     1.0  0.52774  0.19335  0.00449  1.0000
  H   H1147     1.0  0.68350  0.20488  0.15799  1.0000
  C   C649      1.0  0.54123  0.18598  0.01765  1.0000
  H   H1148     1.0  0.49931  0.20561  0.14369  1.0000
  H   H1149     1.0  0.58922  0.26273  0.14801  1.0000
  H   H1150     1.0  0.50926  0.11768  0.39664  1.0000
  H   H1151     1.0  0.70399  0.21493  0.10012  1.0000
  H   H1152     1.0  0.68667  0.31349  0.16417  1.0000
  H   H1153     1.0  0.65744  0.22030  0.18617  1.0000
  H   H1154     1.0  0.52681  0.04783  0.47750  1.0000
  Fe  Fe71      1.0  0.55431  0.12901  0.48851  1.0000
  H   H1155     1.0  0.58371  0.00490  0.08101  1.0000
  C   C650      1.0  0.78807  0.31384  0.29224  1.0000
  C   C651      1.0  0.52412  0.02997  0.47598  1.0000
  H   H1156     1.0  0.88671  0.26340  0.47023  1.0000
  C   C652      1.0  0.50049  0.20096  0.16660  1.0000
  H   H1157     1.0  0.78123  0.31431  0.27006  1.0000
  H   H1158     1.0  0.52306  0.09897  0.48530  1.0000
  H   H1159     1.0  0.49270  0.16471  0.02057  1.0000
  H   H1160     1.0  0.59003  0.99392  0.04620  1.0000
  H   H1161     1.0  0.65724  0.31699  0.16359  1.0000
  C   C653      1.0  0.92442  0.30485  0.47717  1.0000
  H   H1162     1.0  0.49285  0.03695  0.02069  1.0000
  H   H1163     1.0  0.50162  0.99526  0.45013  1.0000
  C   C654      1.0  0.48990  0.08920  0.48655  1.0000
  H   H1164     1.0  0.77888  0.30433  0.33407  1.0000
  H   H1165     1.0  0.62108  0.99542  0.45881  1.0000
  Fe  Fe72      1.0  0.59968  0.12824  0.51424  1.0000
  C   C655      1.0  0.57467  0.00501  0.51273  1.0000
  S   S144      1.0  0.62029  0.14228  0.55087  1.0000
  H   H1166     1.0  0.51246  0.04979  0.52736  1.0000
  H   H1167     1.0  0.66436  0.29976  0.88824  1.0000
  C   C656      1.0  0.74864  0.31020  0.63116  1.0000
  Fe  Fe73      1.0  0.58371  0.11563  0.96041  1.0000
  S   S145      1.0  0.58835  0.14676  0.93370  1.0000
  H   H1168     1.0  0.54196  0.18737  0.56840  1.0000
  H   H1169     1.0  0.51144  0.17399  0.91477  1.0000
  H   H1170     1.0  0.71117  0.32060  0.87753  1.0000
  S   S146      1.0  0.56958  0.11096  0.52543  1.0000
  Fe  Fe74      1.0  0.59688  0.19906  0.76966  1.0000
  S   S147      1.0  0.59565  0.23537  0.77846  1.0000
  S   S148      1.0  0.59546  0.16945  0.79993  1.0000
  Fe  Fe75      1.0  0.59136  0.20600  0.70361  1.0000
  S   S149      1.0  0.58925  0.24279  0.70873  1.0000
  S   S150      1.0  0.57995  0.18785  0.66292  1.0000
  Fe  Fe76      1.0  0.61767  0.23891  0.74036  1.0000
  S   S151      1.0  0.64993  0.25836  0.74134  1.0000
  Fe  Fe77      1.0  0.56752  0.23671  0.74623  1.0000
  S   S152      1.0  0.53485  0.25523  0.75387  1.0000
  S   S153      1.0  0.62063  0.20194  0.73337  1.0000
  S   S154      1.0  0.56801  0.20071  0.73931  1.0000
  C   C657      1.0  0.50576  0.22146  0.74786  1.0000
  C   C658      1.0  0.50848  0.24382  0.75223  1.0000
  C   C659      1.0  0.60192  0.01187  0.90159  1.0000
  H   H1171     1.0  0.51993  0.21072  0.74528  1.0000
  H   H1172     1.0  0.50487  0.22279  0.81601  1.0000
  H   H1173     1.0  0.75573  0.28497  0.80318  1.0000
  C   C660      1.0  0.69407  0.30771  0.74267  1.0000
  C   C661      1.0  0.68426  0.28704  0.74257  1.0000
  C   C662      1.0  0.66136  0.28515  0.74082  1.0000
  C   C663      1.0  0.64851  0.30451  0.73879  1.0000
  C   C664      1.0  0.61351  0.99141  0.98363  1.0000
  H   H1174     1.0  0.69450  0.27231  0.74402  1.0000
  H   H1175     1.0  0.63094  0.30357  0.73723  1.0000
  H   H1176     1.0  0.52435  0.14584  0.68653  1.0000
  C   C665      1.0  0.58987  0.15272  0.89632  1.0000
  C   C666      1.0  0.58726  0.13680  0.87501  1.0000
  C   C667      1.0  0.58889  0.14232  0.84578  1.0000
  C   C668      1.0  0.59313  0.16379  0.83728  1.0000
  C   C669      1.0  0.59548  0.17978  0.85857  1.0000
  C   C670      1.0  0.59377  0.17429  0.88781  1.0000
  H   H1177     1.0  0.58428  0.12016  0.88105  1.0000
  H   H1178     1.0  0.58714  0.12975  0.82960  1.0000
  H   H1179     1.0  0.59918  0.19625  0.85255  1.0000
  H   H1180     1.0  0.59596  0.18675  0.90403  1.0000
  C   C671      1.0  0.60894  0.15572  0.58141  1.0000
  C   C672      1.0  0.58648  0.15632  0.58620  1.0000
  C   C673      1.0  0.57812  0.16587  0.61144  1.0000
  C   C674      1.0  0.59189  0.17571  0.63184  1.0000
  C   C675      1.0  0.61435  0.17537  0.62693  1.0000
  C   C676      1.0  0.62281  0.16527  0.60197  1.0000
  H   H1181     1.0  0.57558  0.14916  0.57059  1.0000
  H   H1182     1.0  0.56083  0.16548  0.61522  1.0000
  H   H1183     1.0  0.62521  0.18277  0.64241  1.0000
  H   H1184     1.0  0.64022  0.16491  0.59854  1.0000
  C   C677      1.0  0.53137  0.16286  0.77770  1.0000
  H   H1185     1.0  0.49161  0.27490  0.75877  1.0000
  S   S155      1.0  0.57378  0.05002  0.50942  1.0000
  C   C678      1.0  0.53206  0.18894  0.86468  1.0000
  H   H1186     1.0  0.52080  0.14926  0.77126  1.0000
  C   C679      1.0  0.53151  0.19844  0.89554  1.0000
  H   H1187     1.0  0.51253  0.24939  0.63279  1.0000
  H   H1188     1.0  0.54771  0.17918  0.86298  1.0000
  H   H1189     1.0  0.52973  0.24007  0.69454  1.0000
  H   H1190     1.0  0.78897  0.31308  0.71308  1.0000
  C   C680      1.0  0.73997  0.29353  0.79759  1.0000
  C   C681      1.0  0.49705  0.12883  0.89262  1.0000
  H   H1191     1.0  0.75095  0.28349  0.69789  1.0000
  H   H1192     1.0  0.49410  0.02938  0.53883  1.0000
  C   C682      1.0  0.71621  0.30236  0.66027  1.0000
  C   C683      1.0  0.77757  0.29982  0.71740  1.0000
  H   H1193     1.0  0.50522  0.18175  0.79620  1.0000
  C   C684      1.0  0.71939  0.27798  0.65143  1.0000
  C   C685      1.0  0.70039  0.26457  0.66140  1.0000
  C   C686      1.0  0.57811  0.00972  0.98702  1.0000
  H   H1194     1.0  0.51923  0.17673  0.86282  1.0000
  C   C687      1.0  0.52014  0.23801  0.64895  1.0000
  H   H1195     1.0  0.75504  0.29310  0.63310  1.0000
  S   S156      1.0  0.51541  0.07099  0.97150  1.0000
  H   H1196     1.0  0.54746  0.20567  0.90099  1.0000
  H   H1197     1.0  0.51969  0.16296  0.82031  1.0000
  H   H1198     1.0  0.48750  0.20153  0.87027  1.0000
  H   H1199     1.0  0.76811  0.30399  0.73680  1.0000
  C   C688      1.0  0.50777  0.21673  0.83831  1.0000
  H   H1200     1.0  0.59536  0.99209  0.86464  1.0000
  C   C689      1.0  0.48976  0.25755  0.75538  1.0000
  H   H1201     1.0  0.53991  0.27853  0.69488  1.0000
  H   H1202     1.0  0.49853  0.99286  0.93063  1.0000
  H   H1203     1.0  0.71996  0.27660  0.62771  1.0000
  H   H1204     1.0  0.73464  0.27038  0.66032  1.0000
  H   H1205     1.0  0.69960  0.26468  0.68516  1.0000
  H   H1206     1.0  0.70243  0.28923  0.84793  1.0000
  H   H1207     1.0  0.70266  0.24735  0.65410  1.0000
  H   H1208     1.0  0.68464  0.27123  0.65241  1.0000
  C   C690      1.0  0.85055  0.31925  0.91899  1.0000
  C   C691      1.0  0.83488  0.31980  0.94407  1.0000
  H   H1209     1.0  0.53527  0.20586  0.79491  1.0000
  H   H1210     1.0  0.55325  0.18782  0.81426  1.0000
  H   H1211     1.0  0.77248  0.29044  0.67385  1.0000
  C   C692      1.0  0.53600  0.19416  0.81299  1.0000
  S   S157      1.0  0.61358  0.03650  0.98136  1.0000
  H   H1212     1.0  0.50695  0.25811  0.68463  1.0000
  C   C693      1.0  0.76222  0.29635  0.69176  1.0000
  C   C694      1.0  0.54678  0.22261  0.84655  1.0000
  H   H1213     1.0  0.53263  0.17393  0.75918  1.0000
  C   C695      1.0  0.93701  0.31181  0.89317  1.0000
  H   H1214     1.0  0.48993  0.14718  0.97468  1.0000
  H   H1215     1.0  0.53391  0.02624  0.94350  1.0000
  C   C696      1.0  0.54811  0.24073  0.82369  1.0000
  H   H1216     1.0  0.56337  0.21478  0.84920  1.0000
  C   C697      1.0  0.52279  0.25088  0.67748  1.0000
  C   C698      1.0  0.50872  0.03217  0.52585  1.0000
  H   H1217     1.0  0.49526  0.21905  0.60663  1.0000
  H   H1218     1.0  0.60773  0.01326  0.59672  1.0000
  H   H1219     1.0  0.72691  0.28140  0.79737  1.0000
  C   C699      1.0  0.52178  0.01822  0.92930  1.0000
  H   H1220     1.0  0.71159  0.30866  0.74407  1.0000
  H   H1221     1.0  0.54051  0.16729  0.91584  1.0000
  H   H1222     1.0  0.73862  0.32144  0.70275  1.0000
  H   H1223     1.0  0.54330  0.23140  0.86694  1.0000
  H   H1224     1.0  0.49348  0.11601  0.87642  1.0000
  N   N39       1.0  0.50754  0.21724  0.65036  1.0000
  H   H1225     1.0  0.78736  0.28455  0.72172  1.0000
  C   C700      1.0  0.52613  0.18874  0.57957  1.0000
  H   H1226     1.0  0.53186  0.24846  0.81875  1.0000
  H   H1227     1.0  0.61352  0.02178  0.88966  1.0000
  C   C701      1.0  0.78192  0.31471  0.60023  1.0000
  H   H1228     1.0  0.57975  0.25188  0.83885  1.0000
  H   H1229     1.0  0.64229  0.07024  0.52067  1.0000
  H   H1230     1.0  0.55482  0.23379  0.80370  1.0000
  S   S158      1.0  0.57439  0.08169  0.94675  1.0000
  H   H1231     1.0  0.78881  0.29826  0.60597  1.0000
  C   C702      1.0  0.68880  0.30027  0.85494  1.0000
  H   H1232     1.0  0.58583  0.02080  0.90179  1.0000
  C   C703      1.0  0.51668  0.17686  0.66579  1.0000
  H   H1233     1.0  0.60822  0.01014  0.92392  1.0000
  H   H1234     1.0  0.50558  0.14224  0.88219  1.0000
  H   H1235     1.0  0.56803  0.02459  0.98746  1.0000
  C   C704      1.0  0.58397  0.02324  0.50007  1.0000
  H   H1236     1.0  0.67634  0.30051  0.83752  1.0000
  C   C705      1.0  0.52154  0.17515  0.80322  1.0000
  H   H1237     1.0  0.53063  0.01017  0.91138  1.0000
  N   N40       1.0  0.53007  0.20546  0.84077  1.0000
  C   C706      1.0  0.56313  0.25877  0.83372  1.0000
  Fe  Fe78      1.0  0.54826  0.08530  0.97933  1.0000
  C   C707      1.0  0.51915  0.20172  0.67111  1.0000
  H   H1238     1.0  0.69102  0.28854  0.89895  1.0000
  C   C708      1.0  0.52789  0.20480  0.60465  1.0000
  H   H1239     1.0  0.52611  0.17150  0.64679  1.0000
  C   C709      1.0  0.73519  0.31161  0.81951  1.0000
  C   C710      1.0  0.52548  0.16355  0.69133  1.0000
  C   C711      1.0  0.49591  0.09181  0.97746  1.0000
  C   C712      1.0  0.48780  0.20346  0.84667  1.0000
  H   H1240     1.0  0.52913  0.18781  0.93957  1.0000
  C   C713      1.0  0.50948  0.00126  0.94594  1.0000
  H   H1241     1.0  0.73549  0.30425  0.84115  1.0000
  H   H1242     1.0  0.54788  0.15590  0.78333  1.0000
  H   H1243     1.0  0.51847  0.21137  0.89759  1.0000
  H   H1244     1.0  0.53709  0.23429  0.64173  1.0000
  H   H1245     1.0  0.53702  0.20431  0.67157  1.0000
  H   H1246     1.0  0.51392  0.20547  0.69330  1.0000
  H   H1247     1.0  0.50853  0.02150  0.98356  1.0000
  H   H1248     1.0  0.56200  0.00756  0.52830  1.0000
  H   H1249     1.0  0.53292  0.22067  0.59591  1.0000
  H   H1250     1.0  0.54104  0.19880  0.61949  1.0000
  H   H1251     1.0  0.74128  0.30061  0.77593  1.0000
  H   H1252     1.0  0.49951  0.17257  0.66199  1.0000
  H   H1253     1.0  0.70136  0.31204  0.80467  1.0000
  H   H1254     1.0  0.51332  0.19446  0.56395  1.0000
  H   H1255     1.0  0.91622  0.31061  0.53370  1.0000
  H   H1256     1.0  0.50696  0.23171  0.85199  1.0000
  H   H1257     1.0  0.54288  0.16707  0.69580  1.0000
  H   H1258     1.0  0.56443  0.27095  0.81635  1.0000
  C   C714      1.0  0.67883  0.28989  0.88109  1.0000
  H   H1259     1.0  0.51605  0.11712  0.96217  1.0000
  C   C715      1.0  0.53812  0.26980  0.67408  1.0000
  H   H1260     1.0  0.52221  0.17223  0.58731  1.0000
  N   N41       1.0  0.60426  0.08141  0.60747  1.0000
  C   C716      1.0  0.60937  0.09020  0.63699  1.0000
  C   C717      1.0  0.59951  0.05748  0.60977  1.0000
  C   C718      1.0  0.62357  0.08489  0.58869  1.0000
  C   C719      1.0  0.58451  0.09307  0.59422  1.0000
  C   C720      1.0  0.56390  0.09495  0.61301  1.0000
  C   C721      1.0  0.61260  0.11521  0.63902  1.0000
  C   C722      1.0  0.62254  0.07418  0.55851  1.0000
  C   C723      1.0  0.61896  0.04217  0.61939  1.0000
  C   C724      1.0  0.61249  0.01828  0.61883  1.0000
  C   C725      1.0  0.54491  0.10648  0.59687  1.0000
  C   C726      1.0  0.61560  0.12259  0.67012  1.0000
  C   C727      1.0  0.64330  0.07821  0.54206  1.0000
  H   H1261     1.0  0.62471  0.08233  0.64566  1.0000
  H   H1262     1.0  0.59652  0.08584  0.65226  1.0000
  H   H1263     1.0  0.58636  0.05511  0.62541  1.0000
  H   H1264     1.0  0.59284  0.05115  0.58907  1.0000
  H   H1265     1.0  0.63904  0.07929  0.59959  1.0000
  H   H1266     1.0  0.62553  0.10266  0.58507  1.0000
  H   H1267     1.0  0.58853  0.10981  0.58734  1.0000
  H   H1268     1.0  0.57950  0.08450  0.57422  1.0000
  H   H1269     1.0  0.56699  0.10455  0.63279  1.0000
  H   H1270     1.0  0.55851  0.07857  0.61916  1.0000
  H   H1271     1.0  0.62733  0.11975  0.62728  1.0000
  H   H1272     1.0  0.59839  0.12462  0.63001  1.0000
  H   H1273     1.0  0.60853  0.08115  0.54583  1.0000
  H   H1274     1.0  0.62084  0.05624  0.55965  1.0000
  H   H1275     1.0  0.63311  0.04349  0.60518  1.0000
  H   H1276     1.0  0.62430  0.04613  0.64159  1.0000
  H   H1277     1.0  0.59866  0.01578  0.63333  1.0000
  C   C728      1.0  0.49647  0.01224  0.97065  1.0000
  H   H1278     1.0  0.62656  0.00764  0.62604  1.0000
  H   H1279     1.0  0.54925  0.12326  0.59077  1.0000
  H   H1280     1.0  0.54048  0.09716  0.57724  1.0000
  H   H1281     1.0  0.53041  0.10773  0.61075  1.0000
  H   H1282     1.0  0.63007  0.11410  0.68020  1.0000
  H   H1283     1.0  0.61812  0.14047  0.67087  1.0000
  H   H1284     1.0  0.60084  0.11930  0.68260  1.0000
  H   H1285     1.0  0.65787  0.07123  0.55370  1.0000
  H   H1286     1.0  0.51576  0.16746  0.71063  1.0000
  H   H1287     1.0  0.64524  0.09603  0.53897  1.0000
  C   C729      1.0  0.52789  0.18072  0.91768  1.0000
  H   H1288     1.0  0.93153  0.29470  0.89303  1.0000
  H   H1289     1.0  0.71051  0.30293  0.68281  1.0000
  C   C730      1.0  0.50589  0.20808  0.62031  1.0000
  H   H1290     1.0  0.55646  0.26726  0.85289  1.0000
  H   H1291     1.0  0.52180  0.98914  0.95429  1.0000
  H   H1292     1.0  0.52271  0.02231  0.53496  1.0000
  C   C731      1.0  0.60072  0.01098  0.98426  1.0000
  H   H1293     1.0  0.73793  0.31026  0.61159  1.0000
  H   H1294     1.0  0.70191  0.30842  0.64710  1.0000
  H   H1295     1.0  0.82629  0.30416  0.94496  1.0000
  H   H1296     1.0  0.67350  0.27322  0.87547  1.0000
  H   H1297     1.0  0.53146  0.28158  0.65789  1.0000
  H   H1298     1.0  0.55455  0.26366  0.66752  1.0000
  C   C732      1.0  0.50086  0.11348  0.97204  1.0000
  H   H1299     1.0  0.84073  0.31639  0.89922  1.0000
  H   H1300     1.0  0.51027  0.03096  0.92037  1.0000
  Fe  Fe79      1.0  0.59463  0.06937  0.98448  1.0000
  H   H1301     1.0  0.49766  0.19226  0.61993  1.0000
  H   H1302     1.0  0.86207  0.30509  0.92224  1.0000
  H   H1303     1.0  0.50817  0.12144  0.90922  1.0000
  H   H1304     1.0  0.77173  0.31352  0.58041  1.0000
  C   C733      1.0  0.56853  0.98922  0.98964  1.0000
  H   H1305     1.0  0.63100  0.99219  0.98148  1.0000
  H   H1306     1.0  0.89303  0.30920  0.90016  1.0000
  C   C734      1.0  0.74907  0.31761  0.68403  1.0000
  H   H1307     1.0  0.48802  0.18696  0.83694  1.0000
  H   H1308     1.0  0.86668  0.31799  0.86469  1.0000
  N   N42       1.0  0.73538  0.31707  0.65684  1.0000
  S   S159      1.0  0.55564  0.11994  0.99062  1.0000
  H   H1309     1.0  0.94222  0.31635  0.91528  1.0000
  H   H1310     1.0  0.95132  0.31272  0.87906  1.0000
  C   C735      1.0  0.60009  0.98941  0.88742  1.0000
  H   H1311     1.0  0.56541  0.19527  0.98693  1.0000
  H   H1312     1.0  0.55431  0.16890  0.98013  1.0000
  C   C736      1.0  0.50129  0.12615  0.49524  1.0000
  H   H1313     1.0  0.50032  0.00811  0.49450  1.0000
  H   H1314     1.0  0.89248  0.29796  0.49558  1.0000
  H   H1315     1.0  0.93371  0.29701  0.49531  1.0000
  C   C737      1.0  0.50423  0.02562  0.49472  1.0000
  H   H1316     1.0  0.55112  0.98856  0.99234  1.0000
  Fe  Fe80      1.0  0.58009  0.08488  0.49377  1.0000
  S   S160      1.0  0.52139  0.14562  0.49347  1.0000
  Fe  Fe81      1.0  0.87877  0.59998  0.01721  1.0000
  H   H1317     1.0  0.77359  0.60771  0.42837  1.0000
  S   S161      1.0  0.86789  0.61072  0.06242  1.0000
  H   H1318     1.0  0.63127  0.32653  0.21687  1.0000
  S   S162      1.0  0.90277  0.58407  0.44792  1.0000
  C   C738      1.0  0.71332  0.33157  0.32871  1.0000
  Fe  Fe82      1.0  0.86807  0.59640  0.43916  1.0000
  S   S163      1.0  0.84740  0.58832  0.39891  1.0000
  H   H1319     1.0  0.93577  0.40481  0.47655  1.0000
  H   H1320     1.0  0.76522  0.35406  0.40781  1.0000
  C   C739      1.0  0.87619  0.60677  0.17249  1.0000
  Fe  Fe83      1.0  0.90637  0.61404  0.47555  1.0000
  Fe  Fe84      1.0  0.86885  0.42535  0.02223  1.0000
  S   S164      1.0  0.88140  0.39579  0.04641  1.0000
  S   S165      1.0  0.87163  0.45847  0.04306  1.0000
  Fe  Fe85      1.0  0.84797  0.38470  0.46605  1.0000
  C   C740      1.0  0.74215  0.33322  0.36537  1.0000
  S   S166      1.0  0.84321  0.36682  0.42316  1.0000
  Fe  Fe86      1.0  0.84957  0.38174  0.03183  1.0000
  S   S167      1.0  0.82510  0.36452  0.05957  1.0000
  C   C741      1.0  0.94774  0.33595  0.48624  1.0000
  C   C742      1.0  0.71196  0.35675  0.32568  1.0000
  H   H1321     1.0  0.72387  0.59534  0.33078  1.0000
  Fe  Fe87      1.0  0.89502  0.38435  0.00402  1.0000
  Fe  Fe88      1.0  0.76082  0.38744  0.28237  1.0000
  S   S168      1.0  0.72560  0.39352  0.26841  1.0000
  S   S169      1.0  0.76684  0.38996  0.33112  1.0000
  Fe  Fe89      1.0  0.77494  0.38078  0.21920  1.0000
  S   S170      1.0  0.74049  0.38497  0.20241  1.0000
  S   S171      1.0  0.80611  0.38045  0.19272  1.0000
  Fe  Fe90      1.0  0.73882  0.41392  0.23301  1.0000
  S   S172      1.0  0.72818  0.44736  0.21445  1.0000
  Fe  Fe91      1.0  0.73018  0.36392  0.23952  1.0000
  H   H1322     1.0  0.76106  0.46082  0.45310  1.0000
  S   S173      1.0  0.77329  0.40989  0.24899  1.0000
  S   S174      1.0  0.76537  0.35783  0.25422  1.0000
  Fe  Fe92      1.0  0.78265  0.61431  0.25076  1.0000
  S   S175      1.0  0.74798  0.60822  0.26246  1.0000
  S   S176      1.0  0.80854  0.62842  0.28109  1.0000
  Fe  Fe93      1.0  0.77598  0.59882  0.18860  1.0000
  S   S177      1.0  0.74074  0.59154  0.19660  1.0000
  S   S178      1.0  0.78971  0.58728  0.14523  1.0000
  Fe  Fe94      1.0  0.73803  0.62393  0.22036  1.0000
  H   H1323     1.0  0.91269  0.38968  0.41699  1.0000
  Fe  Fe95      1.0  0.75275  0.57643  0.23790  1.0000
  S   S179      1.0  0.74287  0.54478  0.25946  1.0000
  S   S180      1.0  0.77274  0.63204  0.20964  1.0000
  S   S181      1.0  0.78795  0.58183  0.22891  1.0000
  H   H1324     1.0  0.96718  0.59038  0.00525  1.0000
  C   C743      1.0  0.73499  0.47386  0.22707  1.0000
  C   C744      1.0  0.73562  0.49119  0.20743  1.0000
  C   C745      1.0  0.73924  0.51279  0.21676  1.0000
  C   C746      1.0  0.74152  0.51748  0.24602  1.0000
  C   C747      1.0  0.74125  0.50008  0.26559  1.0000
  C   C748      1.0  0.73833  0.47838  0.25620  1.0000
  H   H1325     1.0  0.73300  0.48793  0.18488  1.0000
  H   H1326     1.0  0.73955  0.52589  0.20139  1.0000
  H   H1327     1.0  0.74296  0.50346  0.28826  1.0000
  H   H1328     1.0  0.73774  0.46530  0.27158  1.0000
  S   S182      1.0  0.85514  0.57951  0.47771  1.0000
  C   C749      1.0  0.81960  0.37014  0.09631  1.0000
  C   C750      1.0  0.79949  0.36433  0.10763  1.0000
  C   C751      1.0  0.79492  0.36758  0.13693  1.0000
  C   C752      1.0  0.81061  0.37633  0.15543  1.0000
  C   C753      1.0  0.83071  0.38211  0.14411  1.0000
  C   C754      1.0  0.83512  0.37924  0.11473  1.0000
  H   H1329     1.0  0.78742  0.35710  0.09367  1.0000
  H   H1330     1.0  0.77945  0.36289  0.14530  1.0000
  H   H1331     1.0  0.84304  0.38875  0.15820  1.0000
  H   H1332     1.0  0.85075  0.38353  0.10648  1.0000
  C   C755      1.0  0.82206  0.37356  0.39750  1.0000
  C   C756      1.0  0.80313  0.38546  0.40511  1.0000
  C   C757      1.0  0.78649  0.39007  0.38449  1.0000
  C   C758      1.0  0.78861  0.38331  0.35581  1.0000
  C   C759      1.0  0.80757  0.37147  0.34808  1.0000
  C   C760      1.0  0.82406  0.36645  0.36888  1.0000
  H   H1333     1.0  0.80113  0.39083  0.42704  1.0000
  H   H1334     1.0  0.77182  0.39902  0.39086  1.0000
  H   H1335     1.0  0.80948  0.36605  0.32615  1.0000
  H   H1336     1.0  0.83855  0.35714  0.36267  1.0000
  S   S183      1.0  0.83476  0.46358  0.47614  1.0000
  H   H1337     1.0  0.62609  0.61753  0.20285  1.0000
  H   H1338     1.0  0.86327  0.59829  0.16049  1.0000
  H   H1339     1.0  0.81418  0.54979  0.48758  1.0000
  C   C761      1.0  0.74269  0.40992  0.13013  1.0000
  C   C762      1.0  0.83711  0.59996  0.36613  1.0000
  C   C763      1.0  0.82131  0.58864  0.35021  1.0000
  C   C764      1.0  0.81237  0.59710  0.32430  1.0000
  C   C765      1.0  0.81915  0.61706  0.31383  1.0000
  H   H1340     1.0  0.82999  0.57949  0.17734  1.0000
  H   H1341     1.0  0.86282  0.53636  0.46772  1.0000
  H   H1342     1.0  0.81591  0.57316  0.35798  1.0000
  H   H1343     1.0  0.80023  0.58815  0.31244  1.0000
  H   H1344     1.0  0.67632  0.35868  0.32324  1.0000
  C   C766      1.0  0.84644  0.60355  0.08560  1.0000
  C   C767      1.0  0.83554  0.58393  0.08276  1.0000
  C   C768      1.0  0.81835  0.57927  0.10124  1.0000
  C   C769      1.0  0.81201  0.59391  0.12319  1.0000
  C   C770      1.0  0.82318  0.61335  0.12641  1.0000
  C   C771      1.0  0.84029  0.61808  0.10780  1.0000
  H   H1345     1.0  0.84045  0.57225  0.06644  1.0000
  H   H1346     1.0  0.80995  0.56412  0.09859  1.0000
  H   H1347     1.0  0.81832  0.62493  0.14285  1.0000
  H   H1348     1.0  0.84866  0.63325  0.11039  1.0000
  H   H1349     1.0  0.83456  0.57346  0.23221  1.0000
  S   S184      1.0  0.70658  0.64529  0.21012  1.0000
  H   H1350     1.0  0.84186  0.53270  0.19697  1.0000
  H   H1351     1.0  0.98152  0.44095  0.04154  1.0000
  C   C772      1.0  0.69047  0.36437  0.31118  1.0000
  C   C773      1.0  0.96475  0.33004  0.46298  1.0000
  H   H1352     1.0  0.96981  0.59951  0.47178  1.0000
  H   H1353     1.0  0.87565  0.50486  0.05068  1.0000
  H   H1354     1.0  0.92004  0.44614  0.03216  1.0000
  H   H1355     1.0  0.91822  0.36316  0.40121  1.0000
  C   C774      1.0  0.82271  0.63351  0.01282  1.0000
  H   H1356     1.0  0.74347  0.41196  0.10657  1.0000
  H   H1357     1.0  0.72913  0.33230  0.38162  1.0000
  H   H1358     1.0  0.77844  0.62968  0.10117  1.0000
  N   N43       1.0  0.79993  0.64410  0.44293  1.0000
  N   N44       1.0  0.81745  0.45538  0.38479  1.0000
  C   C775      1.0  0.80275  0.46298  0.36027  1.0000
  C   C776      1.0  0.82957  0.47470  0.39627  1.0000
  C   C777      1.0  0.83292  0.43762  0.37395  1.0000
  C   C778      1.0  0.80454  0.44615  0.40874  1.0000
  C   C779      1.0  0.78621  0.46133  0.42103  1.0000
  C   C780      1.0  0.78680  0.44593  0.34804  1.0000
  C   C781      1.0  0.85074  0.42921  0.39561  1.0000
  C   C782      1.0  0.84657  0.48433  0.37617  1.0000
  C   C783      1.0  0.85785  0.50351  0.39059  1.0000
  H   H1359     1.0  0.68947  0.38251  0.31048  1.0000
  C   C784      1.0  0.77299  0.45543  0.32318  1.0000
  C   C785      1.0  0.86694  0.41337  0.38116  1.0000
  H   H1360     1.0  0.81271  0.46806  0.34197  1.0000
  H   H1361     1.0  0.79300  0.47791  0.36639  1.0000
  H   H1362     1.0  0.81790  0.48839  0.40159  1.0000
  H   H1363     1.0  0.83800  0.47060  0.41691  1.0000
  H   H1364     1.0  0.84095  0.44290  0.35410  1.0000
  H   H1365     1.0  0.82380  0.42292  0.36749  1.0000
  H   H1366     1.0  0.79721  0.43063  0.40197  1.0000
  H   H1367     1.0  0.81552  0.44164  0.42715  1.0000
  H   H1368     1.0  0.77404  0.46627  0.40423  1.0000
  H   H1369     1.0  0.79309  0.47624  0.43073  1.0000
  H   H1370     1.0  0.79581  0.43130  0.33968  1.0000
  H   H1371     1.0  0.77541  0.44059  0.36455  1.0000
  H   H1372     1.0  0.84322  0.42025  0.41328  1.0000
  H   H1373     1.0  0.86019  0.44266  0.40503  1.0000
  H   H1374     1.0  0.85947  0.47196  0.37059  1.0000
  H   H1375     1.0  0.83862  0.49046  0.35611  1.0000
  H   H1376     1.0  0.86979  0.51035  0.37580  1.0000
  H   H1377     1.0  0.84577  0.51672  0.39626  1.0000
  H   H1378     1.0  0.86678  0.49803  0.41035  1.0000
  C   C786      1.0  0.76711  0.33599  0.40905  1.0000
  H   H1379     1.0  0.81202  0.61826  0.41484  1.0000
  S   S185      1.0  0.87230  0.62764  0.46416  1.0000
  H   H1380     1.0  0.78353  0.46033  0.30540  1.0000
  H   H1381     1.0  0.76185  0.44283  0.31484  1.0000
  H   H1382     1.0  0.76294  0.46981  0.33037  1.0000
  H   H1383     1.0  0.87902  0.40711  0.39733  1.0000
  H   H1384     1.0  0.85841  0.39922  0.37179  1.0000
  H   H1385     1.0  0.87576  0.42174  0.36408  1.0000
  H   H1386     1.0  0.68945  0.35806  0.28887  1.0000
  C   C787      1.0  0.93256  0.48887  0.04039  1.0000
  C   C788      1.0  0.95446  0.47616  0.03513  1.0000
  H   H1387     1.0  0.86360  0.64144  0.21416  1.0000
  C   C789      1.0  0.97497  0.44327  0.01938  1.0000
  C   C790      1.0  0.94204  0.43609  0.06716  1.0000
  H   H1388     1.0  0.96342  0.47413  0.05594  1.0000
  C   C791      1.0  0.80645  0.62043  0.43723  1.0000
  H   H1389     1.0  0.79441  0.33008  0.29813  1.0000
  H   H1390     1.0  0.91079  0.37355  0.46487  1.0000
  C   C792      1.0  0.92462  0.42243  0.08054  1.0000
  H   H1391     1.0  0.83470  0.62793  0.99640  1.0000
  H   H1392     1.0  0.79458  0.58781  0.03527  1.0000
  C   C793      1.0  0.80643  0.58695  0.01767  1.0000
  H   H1393     1.0  0.78372  0.60288  0.46422  1.0000
  H   H1394     1.0  0.83611  0.61286  0.18871  1.0000
  S   S186      1.0  0.71036  0.33194  0.24263  1.0000
  H   H1395     1.0  0.89217  0.36931  0.41767  1.0000
  H   H1396     1.0  0.95975  0.33672  0.44177  1.0000
  H   H1397     1.0  0.93738  0.42341  0.02445  1.0000
  C   C794      1.0  0.93725  0.43986  0.03475  1.0000
  H   H1398     1.0  0.94227  0.45171  0.07924  1.0000
  H   H1399     1.0  0.79927  0.58007  0.40904  1.0000
  H   H1400     1.0  0.82804  0.62459  0.03240  1.0000
  C   C795      1.0  0.93624  0.51042  0.05613  1.0000
  H   H1401     1.0  0.97431  0.40425  0.46074  1.0000
  H   H1402     1.0  0.76239  0.61543  0.07496  1.0000
  C   C796      1.0  0.97780  0.61493  0.47364  1.0000
  C   C797      1.0  0.85058  0.50416  0.47109  1.0000
  H   H1403     1.0  0.76827  0.51188  0.12747  1.0000
  H   H1404     1.0  0.79424  0.52428  0.13273  1.0000
  H   H1405     1.0  0.92440  0.40602  0.07035  1.0000
  H   H1406     1.0  0.81112  0.55195  0.02319  1.0000
  H   H1407     1.0  0.95794  0.42720  0.07051  1.0000
  S   S187      1.0  0.87286  0.41095  0.46783  1.0000
  H   H1408     1.0  0.80148  0.61549  0.06231  1.0000
  C   C798      1.0  0.91631  0.33912  0.45162  1.0000
  H   H1409     1.0  0.89850  0.33654  0.44887  1.0000
  H   H1410     1.0  0.92399  0.33057  0.43307  1.0000
  H   H1411     1.0  0.78557  0.44515  0.46245  1.0000
  N   N45       1.0  0.79070  0.44807  0.15104  1.0000
  C   C799      1.0  0.77817  0.42933  0.13849  1.0000
  C   C800      1.0  0.81465  0.44294  0.14617  1.0000
  C   C801      1.0  0.78628  0.44941  0.18279  1.0000
  C   C802      1.0  0.78273  0.46874  0.13614  1.0000
  C   C803      1.0  0.79416  0.49002  0.14466  1.0000
  H   H1412     1.0  0.86104  0.56233  0.22492  1.0000
  C   C804      1.0  0.80412  0.45947  0.20246  1.0000
  C   C805      1.0  0.82130  0.43875  0.11464  1.0000
  C   C806      1.0  0.84610  0.43661  0.11199  1.0000
  H   H1413     1.0  0.98663  0.38311  0.06205  1.0000
  C   C807      1.0  0.79472  0.46779  0.23074  1.0000
  H   H1414     1.0  0.78570  0.41349  0.14587  1.0000
  H   H1415     1.0  0.77910  0.42912  0.11472  1.0000
  H   H1416     1.0  0.82500  0.45605  0.15454  1.0000
  H   H1417     1.0  0.81990  0.42809  0.15862  1.0000
  H   H1418     1.0  0.78422  0.43273  0.19164  1.0000
  H   H1419     1.0  0.77042  0.45834  0.18647  1.0000
  H   H1420     1.0  0.78350  0.46671  0.11250  1.0000
  H   H1421     1.0  0.76516  0.47207  0.14045  1.0000
  H   H1422     1.0  0.62369  0.63240  0.23643  1.0000
  H   H1423     1.0  0.79009  0.49464  0.16699  1.0000
  H   H1424     1.0  0.76920  0.62119  0.02343  1.0000
  H   H1425     1.0  0.81220  0.47331  0.19261  1.0000
  H   H1426     1.0  0.81701  0.44672  0.20731  1.0000
  H   H1427     1.0  0.81453  0.42327  0.10648  1.0000
  H   H1428     1.0  0.81547  0.45229  0.10049  1.0000
  H   H1429     1.0  0.85024  0.43182  0.08971  1.0000
  H   H1430     1.0  0.85368  0.45244  0.11694  1.0000
  H   H1431     1.0  0.85306  0.42386  0.12665  1.0000
  H   H1432     1.0  0.74461  0.44410  0.13945  1.0000
  H   H1433     1.0  0.78332  0.48202  0.22688  1.0000
  H   H1434     1.0  0.78582  0.45480  0.24153  1.0000
  H   H1435     1.0  0.80810  0.47307  0.24524  1.0000
  H   H1436     1.0  0.82589  0.54084  0.16573  1.0000
  H   H1437     1.0  0.97394  0.42641  0.01049  1.0000
  C   C808      1.0  0.89744  0.60292  0.15639  1.0000
  C   C809      1.0  0.87603  0.47938  0.01862  1.0000
  H   H1438     1.0  0.94657  0.52110  0.04333  1.0000
  H   H1439     1.0  0.93681  0.36801  0.44865  1.0000
  H   H1440     1.0  0.86965  0.61766  0.25578  1.0000
  H   H1441     1.0  0.92826  0.42027  0.10374  1.0000
  C   C810      1.0  0.79630  0.58065  0.43241  1.0000
  C   C811      1.0  0.84870  0.57498  0.21782  1.0000
  H   H1442     1.0  0.96449  0.48734  0.02259  1.0000
  C   C812      1.0  0.84406  0.61983  0.35549  1.0000
  H   H1443     1.0  0.75865  0.34101  0.31665  1.0000
  H   H1444     1.0  0.82487  0.61157  0.22288  1.0000
  H   H1445     1.0  0.84704  0.60178  0.26454  1.0000
  C   C813      1.0  0.86250  0.60138  0.25229  1.0000
  C   C814      1.0  0.80010  0.60395  0.99434  1.0000
  C   C815      1.0  0.83510  0.62832  0.32957  1.0000
  C   C816      1.0  0.78840  0.60359  0.44144  1.0000
  H   H1446     1.0  0.82066  0.61530  0.45122  1.0000
  C   C817      1.0  0.70984  0.60308  0.31879  1.0000
  C   C818      1.0  0.83061  0.54561  0.18792  1.0000
  H   H1447     1.0  0.80125  0.64451  0.06417  1.0000
  C   C819      1.0  0.79124  0.63037  0.05821  1.0000
  S   S188      1.0  0.83644  0.41214  0.00964  1.0000
  C   C820      1.0  0.96092  0.38081  0.03003  1.0000
  C   C821      1.0  0.91000  0.37192  0.41913  1.0000
  H   H1448     1.0  0.78373  0.56867  0.43729  1.0000
  C   C822      1.0  0.98699  0.33912  0.47077  1.0000
  N   N46       1.0  0.85771  0.59757  0.22079  1.0000
  H   H1449     1.0  0.81210  0.48833  0.14250  1.0000
  C   C823      1.0  0.97084  0.40134  0.48299  1.0000
  H   H1450     1.0  0.82307  0.58962  0.02616  1.0000
  S   S189      1.0  0.93579  0.63610  0.47603  1.0000
  C   C824      1.0  0.91931  0.36401  0.44794  1.0000
  C   C825      1.0  0.87855  0.59921  0.20423  1.0000
  H   H1451     1.0  0.88511  0.53402  0.01661  1.0000
  H   H1452     1.0  0.85659  0.62851  0.36695  1.0000
  S   S190      1.0  0.82145  0.40509  0.48610  1.0000
  H   H1453     1.0  0.63810  0.64378  0.20718  1.0000
  H   H1454     1.0  0.84162  0.63884  0.41258  1.0000
  C   C826      1.0  0.84041  0.61442  0.21173  1.0000
  H   H1455     1.0  0.75495  0.32985  0.42408  1.0000
  H   H1456     1.0  0.92142  0.47930  0.05344  1.0000
  C   C827      1.0  0.84167  0.56760  0.18738  1.0000
  H   H1457     1.0  0.88968  0.61091  0.21485  1.0000
  H   H1458     1.0  0.72574  0.36237  0.31300  1.0000
  H   H1459     1.0  0.94814  0.37967  0.04552  1.0000
  C   C828      1.0  0.75155  0.32454  0.31481  1.0000
  H   H1460     1.0  0.84287  0.64266  0.24064  1.0000
  H   H1461     1.0  0.70035  0.32717  0.34385  1.0000
  Fe  Fe96      1.0  0.88987  0.56978  0.48805  1.0000
  H   H1462     1.0  0.90825  0.43069  0.07810  1.0000
  C   C829      1.0  0.75358  0.42880  0.14570  1.0000
  H   H1463     1.0  0.75150  0.42629  0.16892  1.0000
  S   S191      1.0  0.91083  0.58204  0.00755  1.0000
  H   H1464     1.0  0.71249  0.36479  0.34705  1.0000
  H   H1465     1.0  0.76657  0.43476  0.43595  1.0000
  H   H1466     1.0  0.66600  0.34620  0.22177  1.0000
  H   H1467     1.0  0.92425  0.49292  0.01974  1.0000
  H   H1468     1.0  0.79033  0.50583  0.10300  1.0000
  C   C830      1.0  0.87791  0.50096  0.02828  1.0000
  H   H1469     1.0  0.94413  0.50738  0.07739  1.0000
  H   H1470     1.0  0.81557  0.54676  0.20077  1.0000
  C   C831      1.0  0.78621  0.50910  0.12573  1.0000
  H   H1471     1.0  0.83590  0.65182  0.17631  1.0000
  H   H1472     1.0  0.94824  0.35376  0.49109  1.0000
  H   H1473     1.0  0.87193  0.62451  0.17146  1.0000
  C   C832      1.0  0.84614  0.63858  0.21787  1.0000
  N   N47       1.0  0.67139  0.58310  0.25641  1.0000
  C   C833      1.0  0.65158  0.59572  0.24474  1.0000
  C   C834      1.0  0.66456  0.56290  0.27202  1.0000
  C   C835      1.0  0.68269  0.59780  0.27776  1.0000
  C   C836      1.0  0.68739  0.57713  0.23324  1.0000
  C   C837      1.0  0.67895  0.56209  0.20902  1.0000
  C   C838      1.0  0.65595  0.61739  0.22911  1.0000
  C   C839      1.0  0.70097  0.58682  0.29687  1.0000
  C   C840      1.0  0.64419  0.55110  0.26024  1.0000
  C   C841      1.0  0.64218  0.52879  0.27427  1.0000
  C   C842      1.0  0.69512  0.55997  0.18465  1.0000
  C   C843      1.0  0.63459  0.62835  0.21828  1.0000
  H   H1474     1.0  0.70830  0.32480  0.30747  1.0000
  H   H1475     1.0  0.64020  0.59971  0.26252  1.0000
  H   H1476     1.0  0.64209  0.58575  0.22942  1.0000
  H   H1477     1.0  0.67852  0.55071  0.27342  1.0000
  H   H1478     1.0  0.66036  0.56708  0.29457  1.0000
  H   H1479     1.0  0.67051  0.60559  0.29242  1.0000
  H   H1480     1.0  0.69049  0.61145  0.26658  1.0000
  H   H1481     1.0  0.69388  0.59209  0.22356  1.0000
  H   H1482     1.0  0.70203  0.56839  0.24253  1.0000
  H   H1483     1.0  0.66326  0.56836  0.19961  1.0000
  H   H1484     1.0  0.67701  0.54538  0.21748  1.0000
  H   H1485     1.0  0.66391  0.62925  0.24361  1.0000
  H   H1486     1.0  0.66643  0.61439  0.21028  1.0000
  H   H1487     1.0  0.71471  0.58070  0.28370  1.0000
  H   H1488     1.0  0.69509  0.57280  0.30911  1.0000
  H   H1489     1.0  0.62917  0.56104  0.26508  1.0000
  H   H1490     1.0  0.64450  0.54849  0.23683  1.0000
  H   H1491     1.0  0.64115  0.53055  0.29790  1.0000
  H   H1492     1.0  0.62717  0.52099  0.26616  1.0000
  H   H1493     1.0  0.65646  0.51788  0.26903  1.0000
  H   H1494     1.0  0.71119  0.55353  0.19279  1.0000
  H   H1495     1.0  0.68900  0.54839  0.16820  1.0000
  H   H1496     1.0  0.69711  0.57607  0.17435  1.0000
  H   H1497     1.0  0.81167  0.57578  0.44400  1.0000
  H   H1498     1.0  0.75082  0.39407  0.13618  1.0000
  H   H1499     1.0  0.74421  0.35092  0.36127  1.0000
  C   C844      1.0  0.88328  0.51742  0.00908  1.0000
  H   H1500     1.0  0.71555  0.61791  0.30804  1.0000
  C   C845      1.0  0.96501  0.63445  0.47596  1.0000
  C   C846      1.0  0.87836  0.58454  0.26722  1.0000
  C   C847      1.0  0.88428  0.59199  0.29761  1.0000
  H   H1501     1.0  0.88783  0.58323  0.20459  1.0000
  H   H1502     1.0  0.89367  0.58223  0.25509  1.0000
  H   H1503     1.0  0.87062  0.56852  0.26927  1.0000
  H   H1504     1.0  0.72529  0.40954  0.13623  1.0000
  H   H1505     1.0  0.86937  0.59380  0.31072  1.0000
  H   H1506     1.0  0.89549  0.57964  0.30796  1.0000
  H   H1507     1.0  0.89255  0.60784  0.29731  1.0000
  H   H1508     1.0  0.69702  0.60802  0.33426  1.0000
  N   N48       1.0  0.95268  0.45451  0.01980  1.0000
  H   H1509     1.0  0.83602  0.50794  0.45838  1.0000
  H   H1510     1.0  0.85619  0.56533  0.17373  1.0000
  H   H1511     1.0  0.89525  0.60889  0.13405  1.0000
  H   H1512     1.0  0.91088  0.61190  0.16687  1.0000
  H   H1513     1.0  0.84066  0.64367  0.32160  1.0000
  C   C848      1.0  0.66547  0.32930  0.22827  1.0000
  H   H1514     1.0  0.77782  0.33098  0.36620  1.0000
  H   H1515     1.0  0.90196  0.58520  0.15552  1.0000
  C   C849      1.0  0.77413  0.44974  0.44454  1.0000
  H   H1516     1.0  0.92028  0.51915  0.05942  1.0000
  H   H1517     1.0  0.77578  0.64899  0.02438  1.0000
  N   N49       1.0  0.79992  0.62768  0.00352  1.0000
  C   C850      1.0  0.80607  0.56359  0.00594  1.0000
  N   N50       1.0  0.92469  0.32943  0.47956  1.0000
  H   H1518     1.0  0.79790  0.63297  0.48678  1.0000
  C   C851      1.0  0.78346  0.65113  0.42004  1.0000
  H   H1519     1.0  0.74334  0.32445  0.29330  1.0000
  C   C852      1.0  0.85440  0.48312  0.48188  1.0000
  C   C853      1.0  0.76415  0.32560  0.37944  1.0000
  H   H1520     1.0  0.78375  0.33181  0.41766  1.0000
  H   H1521     1.0  0.97300  0.46912  0.48543  1.0000
  H   H1522     1.0  0.78937  0.55966  0.99839  1.0000
  H   H1523     1.0  0.86079  0.65460  0.02858  1.0000
  H   H1524     1.0  0.76147  0.64510  0.07602  1.0000
  H   H1525     1.0  0.83162  0.65191  0.45995  1.0000
  C   C854      1.0  0.86559  0.52038  0.47672  1.0000
  C   C855      1.0  0.78318  0.63217  0.02647  1.0000
  C   C856      1.0  0.98284  0.38259  0.03935  1.0000
  Fe  Fe97      1.0  0.84659  0.43037  0.49030  1.0000
  H   H1526     1.0  0.81484  0.65260  0.20303  1.0000
  H   H1527     1.0  0.76797  0.64255  0.42266  1.0000
  C   C857      1.0  0.97573  0.65422  0.47835  1.0000
  H   H1528     1.0  0.78924  0.64600  0.39846  1.0000
  C   C858      1.0  0.95578  0.37901  0.00082  1.0000
  H   H1529     1.0  0.77249  0.64178  0.47136  1.0000
  C   C859      1.0  0.77213  0.63018  0.07871  1.0000
  C   C860      1.0  0.98052  0.59788  0.99466  1.0000
  C   C861      1.0  0.79011  0.64560  0.47243  1.0000
  C   C862      1.0  0.94891  0.40147  0.49183  1.0000
  H   H1530     1.0  0.98602  0.35724  0.47088  1.0000
  H   H1531     1.0  0.67242  0.32224  0.13187  1.0000
  C   C863      1.0  0.83248  0.65455  0.19934  1.0000
  C   C864      1.0  0.98353  0.51753  0.90774  1.0000
  C   C865      1.0  0.68083  0.60856  0.77311  1.0000
  S   S192      1.0  0.83109  0.62096  0.52923  1.0000
  H   H1532     1.0  0.78728  0.61985  0.84241  1.0000
  S   S193      1.0  0.89844  0.59074  0.93853  1.0000
  H   H1533     1.0  0.71783  0.34065  0.62987  1.0000
  Fe  Fe98      1.0  0.86731  0.60739  0.95275  1.0000
  S   S194      1.0  0.83809  0.62068  0.92569  1.0000
  C   C866      1.0  0.72635  0.33997  0.65118  1.0000
  C   C867      1.0  0.80236  0.55605  0.50368  1.0000
  S   S195      1.0  0.85907  0.37026  0.50880  1.0000
  H   H1534     1.0  0.69867  0.61124  0.77576  1.0000
  C   C868      1.0  0.91011  0.33780  0.50312  1.0000
  S   S196      1.0  0.85756  0.42051  0.53448  1.0000
  H   H1535     1.0  0.72884  0.39330  0.89966  1.0000
  N   N51       1.0  0.87961  0.34204  0.89410  1.0000
  C   C869      1.0  0.88406  0.51581  0.49391  1.0000
  S   S197      1.0  0.84252  0.40497  0.92321  1.0000
  Fe  Fe99      1.0  0.83407  0.39332  0.52921  1.0000
  S   S198      1.0  0.80618  0.38923  0.56075  1.0000
  C   C870      1.0  0.94501  0.43922  0.96872  1.0000
  H   H1536     1.0  0.64176  0.36736  0.81770  1.0000
  C   C871      1.0  0.80247  0.52519  0.81914  1.0000
  C   C872      1.0  0.87347  0.47811  0.49774  1.0000
  Fe  Fe100     1.0  0.76561  0.37313  0.78969  1.0000
  S   S199      1.0  0.73418  0.39288  0.78418  1.0000
  S   S200      1.0  0.77658  0.36085  0.83410  1.0000
  Fe  Fe101     1.0  0.77252  0.37181  0.72410  1.0000
  S   S201      1.0  0.74162  0.39143  0.71484  1.0000
  S   S202      1.0  0.79744  0.36019  0.69112  1.0000
  Fe  Fe102     1.0  0.75211  0.41273  0.75199  1.0000
  S   S203      1.0  0.76062  0.44893  0.75470  1.0000
  Fe  Fe103     1.0  0.72645  0.36942  0.74779  1.0000
  H   H1537     1.0  0.71336  0.38328  0.65981  1.0000
  S   S204      1.0  0.78382  0.39372  0.75964  1.0000
  S   S205      1.0  0.75706  0.34890  0.75493  1.0000
  Fe  Fe104     1.0  0.78378  0.60161  0.76222  1.0000
  S   S206      1.0  0.74722  0.59829  0.76270  1.0000
  S   S207      1.0  0.80971  0.59373  0.79759  1.0000
  Fe  Fe105     1.0  0.78355  0.60784  0.69606  1.0000
  S   S208      1.0  0.74688  0.60516  0.69241  1.0000
  S   S209      1.0  0.81073  0.60820  0.66243  1.0000
  Fe  Fe106     1.0  0.74476  0.62690  0.73185  1.0000
  H   H1538     1.0  0.78936  0.54405  0.50615  1.0000
  Fe  Fe107     1.0  0.75128  0.57701  0.72343  1.0000
  S   S210      1.0  0.73251  0.54587  0.71438  1.0000
  S   S211      1.0  0.78153  0.63134  0.73375  1.0000
  S   S212      1.0  0.78759  0.57845  0.72467  1.0000
  C   C873      1.0  0.94405  0.39700  0.52031  1.0000
  C   C874      1.0  0.75196  0.47568  0.74358  1.0000
  C   C875      1.0  0.76452  0.49346  0.75224  1.0000
  C   C876      1.0  0.75880  0.51497  0.74356  1.0000
  C   C877      1.0  0.74035  0.51902  0.72607  1.0000
  C   C878      1.0  0.72771  0.50127  0.71748  1.0000
  C   C879      1.0  0.73346  0.47971  0.72614  1.0000
  H   H1539     1.0  0.77886  0.49056  0.76572  1.0000
  H   H1540     1.0  0.76869  0.52842  0.75037  1.0000
  H   H1541     1.0  0.71339  0.50421  0.70398  1.0000
  H   H1542     1.0  0.72361  0.46625  0.71934  1.0000
  H   H1543     1.0  0.87495  0.47192  0.56367  1.0000
  C   C880      1.0  0.80463  0.38191  0.59743  1.0000
  C   C881      1.0  0.78502  0.38639  0.61192  1.0000
  C   C882      1.0  0.78274  0.38041  0.64081  1.0000
  C   C883      1.0  0.79996  0.36951  0.65542  1.0000
  C   C884      1.0  0.81952  0.36494  0.64092  1.0000
  C   C885      1.0  0.82193  0.37124  0.61217  1.0000
  H   H1544     1.0  0.77146  0.39445  0.60063  1.0000
  H   H1545     1.0  0.76751  0.38377  0.65153  1.0000
  H   H1546     1.0  0.83290  0.35636  0.65195  1.0000
  H   H1547     1.0  0.83704  0.36752  0.60127  1.0000
  C   C886      1.0  0.82272  0.39353  0.89965  1.0000
  C   C887      1.0  0.80962  0.37646  0.90778  1.0000
  C   C888      1.0  0.79537  0.36685  0.88759  1.0000
  C   C889      1.0  0.79367  0.37449  0.85923  1.0000
  C   C890      1.0  0.80628  0.39200  0.85136  1.0000
  C   C891      1.0  0.82079  0.40134  0.87141  1.0000
  H   H1548     1.0  0.81068  0.37050  0.92951  1.0000
  H   H1549     1.0  0.78574  0.35331  0.89397  1.0000
  H   H1550     1.0  0.80520  0.39807  0.82966  1.0000
  H   H1551     1.0  0.83075  0.41460  0.86488  1.0000
  Fe  Fe108     1.0  0.85280  0.39879  0.97012  1.0000
  H   H1552     1.0  0.88640  0.51875  0.87929  1.0000
  H   H1553     1.0  0.82246  0.33331  0.94147  1.0000
  H   H1554     1.0  0.87082  0.34323  0.93858  1.0000
  C   C892      1.0  0.65269  0.59100  0.74223  1.0000
  C   C893      1.0  0.83089  0.61422  0.88943  1.0000
  C   C894      1.0  0.84514  0.60249  0.87152  1.0000
  C   C895      1.0  0.83839  0.59657  0.84353  1.0000
  C   C896      1.0  0.81749  0.60277  0.83267  1.0000
  C   C897      1.0  0.80339  0.61498  0.85035  1.0000
  C   C898      1.0  0.81004  0.62058  0.87855  1.0000
  H   H1555     1.0  0.86139  0.59796  0.87928  1.0000
  H   H1556     1.0  0.84952  0.58729  0.83005  1.0000
  H   H1557     1.0  0.60441  0.61563  0.71433  1.0000
  C   C899      1.0  0.82570  0.61680  0.56625  1.0000
  C   C900      1.0  0.84233  0.61184  0.58634  1.0000
  C   C901      1.0  0.83738  0.60932  0.61555  1.0000
  C   C902      1.0  0.81579  0.61177  0.62521  1.0000
  C   C903      1.0  0.79914  0.61666  0.60509  1.0000
  C   C904      1.0  0.80409  0.61909  0.57585  1.0000
  H   H1558     1.0  0.85906  0.61041  0.57950  1.0000
  H   H1559     1.0  0.85044  0.60569  0.63087  1.0000
  H   H1560     1.0  0.78247  0.61861  0.61209  1.0000
  H   H1561     1.0  0.79104  0.62282  0.56063  1.0000
  H   H1562     1.0  0.87603  0.53483  0.84949  1.0000
  H   H1563     1.0  0.65054  0.57513  0.73086  1.0000
  S   S213      1.0  0.94877  0.62324  0.96506  1.0000
  S   S214      1.0  0.88430  0.41493  0.98122  1.0000
  H   H1564     1.0  0.89348  0.56780  0.87056  1.0000
  H   H1565     1.0  0.78151  0.55845  0.91088  1.0000
  H   H1566     1.0  0.98274  0.50365  0.92285  1.0000
  H   H1567     1.0  0.64251  0.60754  0.70212  1.0000
  C   C905      1.0  0.98117  0.46460  0.50612  1.0000
  H   H1568     1.0  0.64072  0.62504  0.73266  1.0000
  H   H1569     1.0  0.90649  0.56714  0.60133  1.0000
  H   H1570     1.0  0.83028  0.53556  0.93091  1.0000
  H   H1571     1.0  0.90454  0.55100  0.89949  1.0000
  C   C906      1.0  0.84932  0.34885  0.85541  1.0000
  Fe  Fe109     1.0  0.88221  0.39845  0.51177  1.0000
  H   H1572     1.0  0.94286  0.46065  0.93142  1.0000
  C   C907      1.0  0.94371  0.46215  0.52771  1.0000
  H   H1573     1.0  0.73973  0.35174  0.65028  1.0000
  S   S215      1.0  0.69245  0.35387  0.74322  1.0000
  H   H1574     1.0  0.87654  0.46177  0.50590  1.0000
  H   H1575     1.0  0.76058  0.33125  0.68344  1.0000
  H   H1576     1.0  0.93267  0.46888  0.54441  1.0000
  N   N52       1.0  0.83752  0.54082  0.57199  1.0000
  C   C908      1.0  0.84320  0.51818  0.58301  1.0000
  C   C909      1.0  0.82426  0.55303  0.59423  1.0000
  C   C910      1.0  0.82488  0.53875  0.54413  1.0000
  C   C911      1.0  0.96563  0.47327  0.52976  1.0000
  C   C912      1.0  0.81394  0.56016  0.53232  1.0000
  C   C913      1.0  0.80197  0.54326  0.60124  1.0000
  C   C914      1.0  0.78910  0.55810  0.62180  1.0000
  S   S216      1.0  0.89563  0.53155  0.95637  1.0000
  H   H1577     1.0  0.82818  0.50864  0.58471  1.0000
  H   H1578     1.0  0.85010  0.51893  0.60519  1.0000
  H   H1579     1.0  0.83349  0.55378  0.61492  1.0000
  H   H1580     1.0  0.82142  0.57040  0.58796  1.0000
  H   H1581     1.0  0.81204  0.52644  0.54585  1.0000
  H   H1582     1.0  0.85331  0.57048  0.56030  1.0000
  H   H1583     1.0  0.86714  0.56387  0.61004  1.0000
  H   H1584     1.0  0.82624  0.57264  0.52884  1.0000
  H   H1585     1.0  0.80157  0.56711  0.54715  1.0000
  H   H1586     1.0  0.79170  0.54109  0.58174  1.0000
  H   H1587     1.0  0.80448  0.52716  0.61177  1.0000
  H   H1588     1.0  0.77361  0.55046  0.62740  1.0000
  H   H1589     1.0  0.79865  0.56091  0.64187  1.0000
  H   H1590     1.0  0.78497  0.57408  0.61163  1.0000
  H   H1591     1.0  0.77489  0.62022  0.94904  1.0000
  H   H1592     1.0  0.91273  0.54562  0.86329  1.0000
  H   H1593     1.0  0.85290  0.34121  0.80998  1.0000
  C   C915      1.0  0.68475  0.35127  0.82619  1.0000
  H   H1594     1.0  0.93798  0.43243  0.92388  1.0000
  H   H1595     1.0  0.97893  0.60550  0.57014  1.0000
  C   C916      1.0  0.98242  0.62051  0.55804  1.0000
  C   C917      1.0  0.87441  0.55477  0.59175  1.0000
  H   H1596     1.0  0.87268  0.37677  0.88972  1.0000
  H   H1597     1.0  0.86531  0.54416  0.91320  1.0000
  C   C918      1.0  0.85777  0.55335  0.56639  1.0000
  H   H1598     1.0  0.90270  0.55839  0.56472  1.0000
  C   C919      1.0  0.88016  0.53523  0.87269  1.0000
  H   H1599     1.0  0.87494  0.51186  0.56220  1.0000
  H   H1600     1.0  0.86112  0.50573  0.91222  1.0000
  C   C920      1.0  0.71038  0.34955  0.67373  1.0000
  H   H1601     1.0  0.89292  0.40821  0.91136  1.0000
  C   C921      1.0  0.68393  0.55951  0.77484  1.0000
  H   H1602     1.0  0.80882  0.52744  0.90792  1.0000
  S   S217      1.0  0.85944  0.58137  0.98434  1.0000
  C   C922      1.0  0.64752  0.35499  0.80181  1.0000
  H   H1603     1.0  0.82584  0.35016  0.82009  1.0000
  Fe  Fe110     1.0  0.86104  0.60981  0.50322  1.0000
  H   H1604     1.0  0.81529  0.49041  0.89581  1.0000
  N   N53       1.0  0.84037  0.52854  0.88771  1.0000
  H   H1605     1.0  0.68984  0.52841  0.75247  1.0000
  H   H1606     1.0  0.64803  0.33984  0.73734  1.0000
  C   C923      1.0  0.83936  0.46688  0.91128  1.0000
  C   C924      1.0  0.86334  0.48145  0.57728  1.0000
  Fe  Fe111     1.0  0.89171  0.56608  0.97212  1.0000
  C   C925      1.0  0.85899  0.50410  0.56434  1.0000
  H   H1607     1.0  0.85180  0.50168  0.54267  1.0000
  H   H1608     1.0  0.72785  0.36151  0.82930  1.0000
  C   C926      1.0  0.89465  0.56678  0.58307  1.0000
  H   H1609     1.0  0.82926  0.57212  0.91374  1.0000
  N   N54       1.0  0.79798  0.44796  0.66765  1.0000
  C   C927      1.0  0.80927  0.43511  0.64419  1.0000
  C   C928      1.0  0.77574  0.43879  0.67188  1.0000
  C   C929      1.0  0.79626  0.47168  0.65908  1.0000
  C   C930      1.0  0.81062  0.44618  0.69563  1.0000
  C   C931      1.0  0.81782  0.42270  0.70501  1.0000
  C   C932      1.0  0.83294  0.44159  0.63788  1.0000
  C   C933      1.0  0.78298  0.48709  0.67927  1.0000
  C   C934      1.0  0.75901  0.44214  0.64679  1.0000
  C   C935      1.0  0.73712  0.43257  0.65397  1.0000
  C   C936      1.0  0.82914  0.42296  0.73443  1.0000
  C   C937      1.0  0.84356  0.42588  0.61628  1.0000
  C   C938      1.0  0.78205  0.51049  0.66797  1.0000
  H   H1610     1.0  0.80005  0.43693  0.62357  1.0000
  H   H1611     1.0  0.80936  0.41730  0.64875  1.0000
  H   H1612     1.0  0.77724  0.42088  0.67566  1.0000
  H   H1613     1.0  0.76820  0.44564  0.69166  1.0000
  H   H1614     1.0  0.78937  0.47338  0.63696  1.0000
  H   H1615     1.0  0.81279  0.47854  0.65823  1.0000
  H   H1616     1.0  0.82543  0.45616  0.69527  1.0000
  H   H1617     1.0  0.80069  0.45328  0.71339  1.0000
  H   H1618     1.0  0.82952  0.41507  0.68978  1.0000
  H   H1619     1.0  0.80362  0.41208  0.70635  1.0000
  H   H1620     1.0  0.83294  0.45819  0.62848  1.0000
  H   H1621     1.0  0.84339  0.44141  0.65749  1.0000
  H   H1622     1.0  0.79064  0.48743  0.70096  1.0000
  H   H1623     1.0  0.76595  0.48190  0.68124  1.0000
  H   H1624     1.0  0.75590  0.45972  0.64214  1.0000
  H   H1625     1.0  0.76484  0.43388  0.62703  1.0000
  H   H1626     1.0  0.73046  0.44023  0.67375  1.0000
  H   H1627     1.0  0.72524  0.43570  0.63610  1.0000
  H   H1628     1.0  0.73903  0.41465  0.65702  1.0000
  H   H1629     1.0  0.83386  0.40596  0.74082  1.0000
  H   H1630     1.0  0.84408  0.43266  0.73390  1.0000
  H   H1631     1.0  0.81794  0.43003  0.75078  1.0000
  H   H1632     1.0  0.84559  0.40926  0.62554  1.0000
  H   H1633     1.0  0.83349  0.42503  0.59629  1.0000
  H   H1634     1.0  0.85994  0.43157  0.61073  1.0000
  H   H1635     1.0  0.79873  0.51682  0.66630  1.0000
  H   H1636     1.0  0.77366  0.51119  0.64671  1.0000
  H   H1637     1.0  0.77276  0.52133  0.68288  1.0000
  H   H1638     1.0  0.82696  0.45670  0.92128  1.0000
  H   H1639     1.0  0.91096  0.35578  0.50506  1.0000
  H   H1640     1.0  0.66609  0.55745  0.77631  1.0000
  H   H1641     1.0  0.89675  0.35438  0.55597  1.0000
  C   C939      1.0  0.89880  0.55093  0.87681  1.0000
  C   C940      1.0  0.84775  0.50542  0.89567  1.0000
  C   C941      1.0  0.82366  0.53727  0.90858  1.0000
  H   H1642     1.0  0.88003  0.53833  0.59918  1.0000
  C   C942      1.0  0.81638  0.56162  0.90476  1.0000
  H   H1643     1.0  0.87064  0.48279  0.59912  1.0000
  H   H1644     1.0  0.86652  0.54646  0.54750  1.0000
  H   H1645     1.0  0.83580  0.53232  0.52699  1.0000
  H   H1646     1.0  0.84798  0.47241  0.57818  1.0000
  C   C943      1.0  0.91873  0.32745  0.88238  1.0000
  H   H1647     1.0  0.67145  0.58500  0.68912  1.0000
  H   H1648     1.0  0.89019  0.58389  0.57708  1.0000
  C   C944      1.0  0.88699  0.36524  0.89253  1.0000
  C   C945      1.0  0.83057  0.49050  0.90869  1.0000
  C   C946      1.0  0.68580  0.60752  0.72115  1.0000
  H   H1649     1.0  0.96211  0.43351  0.96516  1.0000
  H   H1650     1.0  0.68688  0.56368  0.72948  1.0000
  H   H1651     1.0  0.82649  0.49627  0.93062  1.0000
  H   H1652     1.0  0.88938  0.37382  0.93825  1.0000
  C   C947      1.0  0.89785  0.33624  0.55466  1.0000
  H   H1653     1.0  0.87648  0.45821  0.98180  1.0000
  H   H1654     1.0  0.83617  0.34777  0.87117  1.0000
  H   H1655     1.0  0.85280  0.36633  0.85239  1.0000
  C   C948      1.0  0.86000  0.54272  0.89036  1.0000
  H   H1656     1.0  0.96709  0.52575  0.90629  1.0000
  C   C949      1.0  0.69497  0.53679  0.77253  1.0000
  C   C950      1.0  0.97600  0.61408  0.97416  1.0000
  H   H1657     1.0  0.97251  0.47015  0.55151  1.0000
  H   H1658     1.0  0.68932  0.60050  0.64679  1.0000
  H   H1659     1.0  0.91814  0.39748  0.89604  1.0000
  H   H1660     1.0  0.81348  0.56586  0.88195  1.0000
  C   C951      1.0  0.90722  0.39677  0.91467  1.0000
  H   H1661     1.0  0.83202  0.54689  0.84915  1.0000
  H   H1662     1.0  0.68449  0.33234  0.87489  1.0000
  H   H1663     1.0  0.85572  0.55965  0.88345  1.0000
  H   H1664     1.0  0.89699  0.36759  0.87323  1.0000
  C   C952      1.0  0.84049  0.34017  0.82688  1.0000
  H   H1665     1.0  0.70384  0.38292  0.86071  1.0000
  C   C953      1.0  0.83216  0.52972  0.85698  1.0000
  H   H1666     1.0  0.77955  0.32561  0.64370  1.0000
  H   H1667     1.0  0.88746  0.48658  0.94846  1.0000
  H   H1668     1.0  0.71301  0.53806  0.77284  1.0000
  C   C954      1.0  0.68619  0.59477  0.69231  1.0000
  H   H1669     1.0  0.95805  0.39000  0.56207  1.0000
  C   C955      1.0  0.97284  0.37980  0.98109  1.0000
  H   H1670     1.0  0.88167  0.33010  0.54805  1.0000
  H   H1671     1.0  0.67706  0.62345  0.71764  1.0000
  H   H1672     1.0  0.69005  0.56679  0.79514  1.0000
  H   H1673     1.0  0.74333  0.38921  0.86677  1.0000
  H   H1674     1.0  0.67309  0.62117  0.66516  1.0000
  H   H1675     1.0  0.98150  0.44639  0.50636  1.0000
  H   H1676     1.0  0.67600  0.59947  0.79231  1.0000
  H   H1677     1.0  0.91727  0.44915  0.94134  1.0000
  H   H1678     1.0  0.69670  0.33867  0.67774  1.0000
  H   H1679     1.0  0.96238  0.49113  0.52739  1.0000
  C   C956      1.0  0.72126  0.35251  0.84767  1.0000
  C   C957      1.0  0.67679  0.64381  0.80167  1.0000
  H   H1680     1.0  0.81436  0.51741  0.80423  1.0000
  H   H1681     1.0  0.67461  0.63456  0.82172  1.0000
  C   C958      1.0  0.61417  0.60350  0.72727  1.0000
  H   H1682     1.0  0.67050  0.64123  0.75668  1.0000
  Fe  Fe112     1.0  0.91597  0.60791  0.97461  1.0000
  H   H1683     1.0  0.69012  0.36959  0.64455  1.0000
  C   C959      1.0  0.91534  0.32872  0.53351  1.0000
  C   C960      1.0  0.86288  0.34089  0.91726  1.0000
  C   C961      1.0  0.80933  0.52074  0.85030  1.0000
  C   C962      1.0  0.70041  0.37160  0.66415  1.0000
  H   H1684     1.0  0.80131  0.54307  0.81500  1.0000
  H   H1685     1.0  0.79660  0.52857  0.86383  1.0000
  H   H1686     1.0  0.65085  0.62851  0.77881  1.0000
  H   H1687     1.0  0.70296  0.61193  0.72600  1.0000
  C   C963      1.0  0.87019  0.33571  0.86529  1.0000
  H   H1688     1.0  0.84363  0.52066  0.84264  1.0000
  H   H1689     1.0  0.84303  0.45984  0.88985  1.0000
  H   H1690     1.0  0.73542  0.34299  0.85707  1.0000
  H   H1691     1.0  0.85498  0.49676  0.87688  1.0000
  H   H1692     1.0  0.70543  0.36224  0.88818  1.0000
  C   C964      1.0  0.63841  0.60811  0.72514  1.0000
  C   C965      1.0  0.93514  0.44584  0.93960  1.0000
  H   H1693     1.0  0.91460  0.36321  0.92391  1.0000
  H   H1694     1.0  0.93113  0.33483  0.54167  1.0000
  H   H1695     1.0  0.88237  0.33793  0.84830  1.0000
  N   N55       1.0  0.67666  0.59551  0.74612  1.0000
  S   S218      1.0  0.90134  0.53671  0.50432  1.0000
  H   H1696     1.0  0.79164  0.58514  0.91899  1.0000
  H   H1697     1.0  0.81133  0.60127  0.97600  1.0000
  H   H1698     1.0  0.85438  0.46598  0.92497  1.0000
  H   H1699     1.0  0.80959  0.50280  0.85320  1.0000
  C   C966      1.0  0.68786  0.61018  0.66689  1.0000
  H   H1700     1.0  0.94598  0.44427  0.53118  1.0000
  H   H1701     1.0  0.79715  0.56294  0.94353  1.0000
  C   C967      1.0  0.68117  0.32705  0.74119  1.0000
  C   C968      1.0  0.73422  0.38087  0.88363  1.0000
  C   C969      1.0  0.89980  0.37355  0.91914  1.0000
  H   H1702     1.0  0.71929  0.35218  0.69422  1.0000
  C   C970      1.0  0.87876  0.47448  0.98966  1.0000
  H   H1703     1.0  0.70721  0.57678  0.75006  1.0000
  S   S219      1.0  0.91668  0.39521  0.53246  1.0000
  H   H1704     1.0  0.91637  0.40200  0.93409  1.0000
  H   H1705     1.0  0.60888  0.60488  0.74985  1.0000
  H   H1706     1.0  0.69021  0.36193  0.80858  1.0000
  C   C971      1.0  0.65833  0.32516  0.73883  1.0000
  H   H1707     1.0  0.76302  0.34108  0.61810  1.0000
  H   H1708     1.0  0.65453  0.36347  0.78334  1.0000
  H   H1709     1.0  0.92536  0.34406  0.88227  1.0000
  H   H1710     1.0  0.90256  0.49097  0.51715  1.0000
  H   H1711     1.0  0.91466  0.32271  0.86000  1.0000
  C   C972      1.0  0.89838  0.32635  0.90152  1.0000
  H   H1712     1.0  0.64518  0.58887  0.76351  1.0000
  C   C973      1.0  0.66850  0.63096  0.77574  1.0000
  H   H1713     1.0  0.90376  0.32854  0.92426  1.0000
  H   H1714     1.0  0.79567  0.32552  0.59589  1.0000
  C   C974      1.0  0.88467  0.49068  0.97068  1.0000
  H   H1715     1.0  0.69046  0.52665  0.79098  1.0000
  H   H1716     1.0  0.96915  0.37817  0.95846  1.0000
  H   H1717     1.0  0.67841  0.36245  0.84313  1.0000
  H   H1718     1.0  0.74534  0.36871  0.89452  1.0000
  H   H1719     1.0  0.83564  0.32296  0.82905  1.0000
  C   C975      1.0  0.79535  0.56729  0.92060  1.0000
  H   H1720     1.0  0.69435  0.64725  0.79936  1.0000
  H   H1721     1.0  0.79889  0.62975  0.89207  1.0000
  H   H1722     1.0  0.85059  0.35463  0.91539  1.0000
  C   C976      1.0  0.96152  0.39334  0.53994  1.0000
  H   H1723     1.0  0.78620  0.51836  0.81463  1.0000
  H   H1724     1.0  0.97683  0.63515  0.57042  1.0000
  H   H1725     1.0  0.70249  0.62027  0.66934  1.0000
  H   H1726     1.0  0.70063  0.58326  0.69207  1.0000
  H   H1727     1.0  0.93580  0.46501  0.50640  1.0000
  C   C977      1.0  0.68939  0.57398  0.74890  1.0000
  H   H1728     1.0  0.68996  0.37855  0.68139  1.0000
  S   S220      1.0  0.89519  0.59891  0.51638  1.0000
  H   H1729     1.0  0.93587  0.42527  0.97677  1.0000
  H   H1730     1.0  0.61084  0.58688  0.71895  1.0000
  S   S221      1.0  0.88512  0.62720  0.98622  1.0000
  H   H1731     1.0  0.97294  0.62024  0.53753  1.0000
  C   C978      1.0  0.71438  0.36978  0.87057  1.0000
  C   C979      1.0  0.88710  0.51208  0.98041  1.0000
  C   C980      1.0  0.98348  0.39360  0.53120  1.0000
  C   C981      1.0  0.88822  0.49456  0.50398  1.0000
  C   C982      1.0  0.76849  0.32438  0.62475  1.0000
  H   H1732     1.0  0.81757  0.56128  0.98806  1.0000
  H   H1733     1.0  0.79474  0.57163  0.49579  1.0000
  S   S222      1.0  0.92893  0.37328  0.98811  1.0000
  H   H1734     1.0  0.71594  0.33476  0.79425  1.0000
  S   S223      1.0  0.86405  0.36728  0.99113  1.0000
  H   H1735     1.0  0.65647  0.33132  0.83364  1.0000
  C   C983      1.0  0.66446  0.33911  0.81540  1.0000
  H   H1736     1.0  0.80715  0.64026  0.96158  1.0000
  H   H1737     1.0  0.66868  0.32649  0.79921  1.0000
  H   H1738     1.0  0.78367  0.59935  0.98648  1.0000
  H   H1739     1.0  0.74873  0.32317  0.81873  1.0000
  H   H1740     1.0  0.95398  0.32787  0.50617  1.0000
  N   N56       1.0  0.70381  0.33730  0.83738  1.0000
  H   H1741     1.0  0.63328  0.34581  0.79390  1.0000
  C   C984      1.0  0.94387  0.45881  0.98991  1.0000
  C   C985      1.0  0.77242  0.63563  0.96147  1.0000
  H   H1742     1.0  0.75894  0.63361  0.97664  1.0000
  C   C986      1.0  0.71314  0.32399  0.81289  1.0000
  H   H1743     1.0  0.78387  0.65406  0.53051  1.0000
  C   C987      1.0  0.79387  0.64135  0.97751  1.0000
  H   H1744     1.0  0.90211  0.32984  0.57631  1.0000
  H   H1745     1.0  0.92637  0.46428  0.99060  1.0000
  H   H1746     1.0  0.75066  0.64843  0.92792  1.0000
  C   C988      1.0  0.76542  0.65343  0.94006  1.0000
  S   S224      1.0  0.71884  0.65470  0.74259  1.0000
  H   H1747     1.0  0.95226  0.47264  0.98002  1.0000
  H   H1748     1.0  0.89269  0.33495  0.49768  1.0000
  H   H1749     1.0  0.84391  0.32204  0.96467  1.0000
  C   C989      1.0  0.69720  0.32339  0.86221  1.0000
  Fe  Fe113     1.0  0.59319  0.87423  0.45245  1.0000
  H   H1750     1.0  0.59934  0.95201  0.04208  1.0000
  S   S225      1.0  0.61205  0.85207  0.42099  1.0000
  H   H1751     1.0  0.59671  0.97022  0.10392  1.0000
  S   S226      1.0  0.57220  0.88392  0.01805  1.0000
  H   H1752     1.0  0.64740  0.86649  0.46279  1.0000
  Fe  Fe114     1.0  0.60411  0.86734  0.00728  1.0000
  S   S227      1.0  0.62777  0.85683  0.04332  1.0000
  H   H1753     1.0  0.66303  0.89512  0.05159  1.0000
  C   C990      1.0  0.49182  0.96787  0.02910  1.0000
  H   H1754     1.0  0.51842  0.81851  0.03678  1.0000
  S   S228      1.0  0.57875  0.90697  0.43991  1.0000
  Fe  Fe115     1.0  0.59118  0.79374  0.26371  1.0000
  S   S229      1.0  0.58362  0.75792  0.25999  1.0000
  S   S230      1.0  0.57764  0.81625  0.29952  1.0000
  Fe  Fe116     1.0  0.60739  0.79474  0.20070  1.0000
  S   S231      1.0  0.60065  0.75923  0.19342  1.0000
  S   S232      1.0  0.62481  0.81682  0.16957  1.0000
  Fe  Fe117     1.0  0.56907  0.76676  0.21670  1.0000
  S   S233      1.0  0.53583  0.75924  0.19638  1.0000
  Fe  Fe118     1.0  0.61604  0.75315  0.23709  1.0000
  S   S234      1.0  0.64412  0.72766  0.24857  1.0000
  S   S235      1.0  0.57534  0.80252  0.22117  1.0000
  S   S236      1.0  0.62414  0.78877  0.24361  1.0000
  C   C991      1.0  0.66096  0.70438  0.23760  1.0000
  C   C992      1.0  0.65761  0.69317  0.21169  1.0000
  C   C993      1.0  0.67173  0.67535  0.20376  1.0000
  H   H1755     1.0  0.81682  0.67471  0.44615  1.0000
  C   C994      1.0  0.69280  0.67941  0.24738  1.0000
  C   C995      1.0  0.67871  0.69727  0.25529  1.0000
  H   H1756     1.0  0.64405  0.69812  0.19780  1.0000
  H   H1757     1.0  0.76763  0.68063  0.43801  1.0000
  H   H1758     1.0  0.68165  0.70570  0.27534  1.0000
  C   C996      1.0  0.51037  0.75924  0.21406  1.0000
  S   S237      1.0  0.60875  0.95289  0.47763  1.0000
  H   H1759     1.0  0.52389  0.75228  0.25593  1.0000
  C   C997      1.0  0.53415  0.98263  0.45817  1.0000
  H   H1760     1.0  0.50503  0.80802  0.33123  1.0000
  H   H1761     1.0  0.83656  0.67158  0.20505  1.0000
  C   C998      1.0  0.62445  0.84614  0.07838  1.0000
  C   C999      1.0  0.60615  0.83476  0.08702  1.0000
  C   C1000     1.0  0.60558  0.82553  0.11491  1.0000
  C   C1001     1.0  0.62321  0.82799  0.13432  1.0000
  C   C1002     1.0  0.64102  0.83984  0.12562  1.0000
  C   C1003     1.0  0.64174  0.84858  0.09800  1.0000
  H   H1762     1.0  0.59285  0.83250  0.07196  1.0000
  H   H1763     1.0  0.59171  0.81641  0.12126  1.0000
  H   H1764     1.0  0.65466  0.84198  0.14028  1.0000
  H   H1765     1.0  0.65597  0.85720  0.09172  1.0000
  C   C1004     1.0  0.60214  0.84173  0.38760  1.0000
  C   C1005     1.0  0.58106  0.84694  0.37729  1.0000
  C   C1006     1.0  0.57393  0.83882  0.35049  1.0000
  C   C1007     1.0  0.58769  0.82539  0.33351  1.0000
  C   C1008     1.0  0.60879  0.82011  0.34386  1.0000
  C   C1009     1.0  0.61595  0.82826  0.37072  1.0000
  H   H1766     1.0  0.57032  0.85732  0.38995  1.0000
  H   H1767     1.0  0.55764  0.84302  0.34283  1.0000
  H   H1768     1.0  0.61960  0.80980  0.33116  1.0000
  H   H1769     1.0  0.63229  0.82408  0.37845  1.0000
  H   H1770     1.0  0.52900  0.88738  0.32441  1.0000
  H   H1771     1.0  0.74692  0.67111  0.39374  1.0000
  C   C1010     1.0  0.53005  0.78288  0.32866  1.0000
  H   H1772     1.0  0.49152  0.88715  0.04097  1.0000
  C   C1011     1.0  0.51958  0.81771  0.22383  1.0000
  H   H1773     1.0  0.75720  0.69831  0.39250  1.0000
  H   H1774     1.0  0.55282  0.90287  0.11062  1.0000
  H   H1775     1.0  0.53496  0.83973  0.27565  1.0000
  C   C1012     1.0  0.66431  0.86962  0.45628  1.0000
  H   H1776     1.0  0.51488  0.85680  0.08025  1.0000
  H   H1777     1.0  0.68188  0.87814  0.41919  1.0000
  H   H1778     1.0  0.53156  0.80236  0.27609  1.0000
  C   C1013     1.0  0.50125  0.85400  0.38839  1.0000
  C   C1014     1.0  0.52219  0.82626  0.05776  1.0000
  H   H1779     1.0  0.65060  0.89800  0.01643  1.0000
  H   H1780     1.0  0.63965  0.89765  0.32967  1.0000
  H   H1781     1.0  0.55350  0.89241  0.07435  1.0000
  H   H1782     1.0  0.82284  0.65786  0.39484  1.0000
  H   H1783     1.0  0.51956  0.81424  0.07489  1.0000
  H   H1784     1.0  0.62270  0.96063  0.06145  1.0000
  H   H1785     1.0  0.60297  0.89037  0.31030  1.0000
  H   H1786     1.0  0.70973  0.91421  0.34982  1.0000
  H   H1787     1.0  0.59252  0.89823  0.11547  1.0000
  H   H1788     1.0  0.48791  0.81449  0.42170  1.0000
  H   H1789     1.0  0.63542  0.89714  0.43046  1.0000
  H   H1790     1.0  0.51577  0.88596  0.38883  1.0000
  H   H1791     1.0  0.55147  0.83806  0.07920  1.0000
  H   H1792     1.0  0.54818  0.86956  0.30595  1.0000
  H   H1793     1.0  0.51950  0.94439  0.02845  1.0000
  H   H1794     1.0  0.53207  0.81741  0.32443  1.0000
  H   H1795     1.0  0.63862  0.87543  0.37387  1.0000
  H   H1796     1.0  0.59293  0.88670  0.34589  1.0000
  H   H1797     1.0  0.51107  0.95615  0.45852  1.0000
  H   H1798     1.0  0.67372  0.91395  0.02631  1.0000
  C   C1015     1.0  0.51729  0.84464  0.27691  1.0000
  H   H1799     1.0  0.86250  0.67021  0.43222  1.0000
  H   H1800     1.0  0.53160  0.86503  0.40801  1.0000
  C   C1016     1.0  0.68953  0.91706  0.38772  1.0000
  H   H1801     1.0  0.52822  0.81447  0.17919  1.0000
  C   C1017     1.0  0.63595  0.91234  0.11514  1.0000
  C   C1018     1.0  0.62564  0.89953  0.34425  1.0000
  C   C1019     1.0  0.77690  0.67574  0.41875  1.0000
  C   C1020     1.0  0.58557  0.89875  0.09341  1.0000
  C   C1021     1.0  0.52007  0.80490  0.31894  1.0000
  H   H1802     1.0  0.70626  0.67435  0.26138  1.0000
  C   C1022     1.0  0.59833  0.97976  0.48596  1.0000
  H   H1803     1.0  0.61306  0.96655  0.38010  1.0000
  H   H1804     1.0  0.56164  0.87494  0.10383  1.0000
  H   H1805     1.0  0.61736  0.89200  0.38802  1.0000
  H   H1806     1.0  0.51591  0.84979  0.32385  1.0000
  C   C1023     1.0  0.53139  0.87703  0.30504  1.0000
  H   H1807     1.0  0.65310  0.94013  0.40372  1.0000
  C   C1024     1.0  0.52107  0.86843  0.38881  1.0000
  N   N57       1.0  0.67650  0.75510  0.17008  1.0000
  C   C1025     1.0  0.66602  0.76919  0.19299  1.0000
  C   C1026     1.0  0.65902  0.74207  0.15537  1.0000
  C   C1027     1.0  0.69215  0.73911  0.18507  1.0000
  C   C1028     1.0  0.68890  0.76802  0.14863  1.0000
  C   C1029     1.0  0.68011  0.79167  0.14216  1.0000
  C   C1030     1.0  0.68186  0.78238  0.21238  1.0000
  C   C1031     1.0  0.70274  0.72083  0.16619  1.0000
  C   C1032     1.0  0.64174  0.75511  0.13717  1.0000
  C   C1033     1.0  0.62418  0.74015  0.12542  1.0000
  C   C1034     1.0  0.69109  0.80102  0.11606  1.0000
  C   C1035     1.0  0.68529  0.77261  0.24233  1.0000
  C   C1036     1.0  0.72207  0.70940  0.18176  1.0000
  H   H1808     1.0  0.65576  0.75916  0.20683  1.0000
  H   H1809     1.0  0.65409  0.78120  0.18360  1.0000
  H   H1810     1.0  0.66631  0.72999  0.14019  1.0000
  H   H1811     1.0  0.65032  0.73244  0.17153  1.0000
  H   H1812     1.0  0.68382  0.73085  0.20276  1.0000
  H   H1813     1.0  0.70577  0.74791  0.19544  1.0000
  H   H1814     1.0  0.70621  0.76967  0.15574  1.0000
  H   H1815     1.0  0.68988  0.75888  0.12797  1.0000
  H   H1816     1.0  0.68347  0.80266  0.16058  1.0000
  H   H1817     1.0  0.66230  0.79260  0.13804  1.0000
  H   H1818     1.0  0.69795  0.78429  0.20245  1.0000
  H   H1819     1.0  0.67472  0.79920  0.21525  1.0000
  H   H1820     1.0  0.70862  0.72745  0.14580  1.0000
  H   H1821     1.0  0.69072  0.70810  0.16127  1.0000
  H   H1822     1.0  0.63346  0.76825  0.14971  1.0000
  H   H1823     1.0  0.64949  0.76241  0.11839  1.0000
  H   H1824     1.0  0.63146  0.72754  0.11093  1.0000
  H   H1825     1.0  0.61592  0.73192  0.14313  1.0000
  H   H1826     1.0  0.61171  0.75000  0.11312  1.0000
  H   H1827     1.0  0.70907  0.80111  0.11945  1.0000
  H   H1828     1.0  0.68722  0.79127  0.09660  1.0000
  H   H1829     1.0  0.68496  0.81809  0.11245  1.0000
  H   H1830     1.0  0.69638  0.78294  0.25516  1.0000
  H   H1831     1.0  0.66955  0.77207  0.25359  1.0000
  H   H1832     1.0  0.69258  0.75580  0.24147  1.0000
  H   H1833     1.0  0.72831  0.69538  0.16869  1.0000
  H   H1834     1.0  0.73549  0.72087  0.18537  1.0000
  H   H1835     1.0  0.71699  0.70301  0.20271  1.0000
  H   H1836     1.0  0.66883  0.66696  0.18367  1.0000
  H   H1837     1.0  0.71508  0.89306  0.37627  1.0000
  H   H1838     1.0  0.55017  0.84272  0.04092  1.0000
  H   H1839     1.0  0.60585  0.92746  0.38931  1.0000
  H   H1840     1.0  0.65222  0.92938  0.15024  1.0000
  H   H1841     1.0  0.54551  0.77912  0.31727  1.0000
  H   H1842     1.0  0.61932  0.91671  0.34341  1.0000
  H   H1843     1.0  0.67422  0.85420  0.45892  1.0000
  H   H1844     1.0  0.79128  0.68605  0.41677  1.0000
  H   H1845     1.0  0.65976  0.91141  0.43436  1.0000
  C   C1037     1.0  0.59221  0.97011  0.08080  1.0000
  C   C1038     1.0  0.85129  0.67208  0.41336  1.0000
  H   H1846     1.0  0.67526  0.88692  0.37168  1.0000
  C   C1039     1.0  0.61865  0.93549  0.40224  1.0000
  S   S238      1.0  0.51726  0.90508  0.44612  1.0000
  C   C1040     1.0  0.54647  0.83109  0.05818  1.0000
  Fe  Fe119     1.0  0.59206  0.92004  0.48160  1.0000
  C   C1041     1.0  0.64305  0.91425  0.14655  1.0000
  C   C1042     1.0  0.51440  0.85933  0.30387  1.0000
  H   H1847     1.0  0.59676  0.96313  0.41143  1.0000
  C   C1043     1.0  0.49087  0.76281  0.19808  1.0000
  H   H1848     1.0  0.81154  0.66651  0.02744  1.0000
  H   H1849     1.0  0.52786  0.80167  0.22833  1.0000
  H   H1850     1.0  0.53375  0.98553  0.48163  1.0000
  H   H1851     1.0  0.61341  0.86781  0.33158  1.0000
  H   H1852     1.0  0.65098  0.91114  0.10228  1.0000
  H   H1853     1.0  0.50052  0.84972  0.43362  1.0000
  H   H1854     1.0  0.61787  0.92974  0.42460  1.0000
  C   C1044     1.0  0.49676  0.90317  0.47128  1.0000
  H   H1855     1.0  0.65383  0.89994  0.15245  1.0000
  C   C1045     1.0  0.82608  0.65829  0.01785  1.0000
  H   H1856     1.0  0.64240  0.93757  0.36852  1.0000
  N   N58       1.0  0.60933  0.93070  0.07711  1.0000
  C   C1046     1.0  0.62139  0.91637  0.05583  1.0000
  C   C1047     1.0  0.58679  0.92208  0.08102  1.0000
  C   C1048     1.0  0.60655  0.95320  0.06406  1.0000
  C   C1049     1.0  0.62139  0.93245  0.10558  1.0000
  H   H1857     1.0  0.62771  0.89666  0.11243  1.0000
  C   C1050     1.0  0.64336  0.92520  0.04558  1.0000
  C   C1051     1.0  0.51029  0.95467  0.04413  1.0000
  H   H1858     1.0  0.65748  0.86368  0.41176  1.0000
  S   S239      1.0  0.56342  0.86406  0.47536  1.0000
  H   H1859     1.0  0.57470  0.96626  0.07835  1.0000
  H   H1860     1.0  0.62862  0.91442  0.16058  1.0000
  H   H1861     1.0  0.53916  0.94788  0.46542  1.0000
  H   H1862     1.0  0.61101  0.91384  0.03634  1.0000
  H   H1863     1.0  0.62453  0.89973  0.06438  1.0000
  H   H1864     1.0  0.57729  0.93274  0.09595  1.0000
  H   H1865     1.0  0.57756  0.92254  0.06019  1.0000
  H   H1866     1.0  0.52173  0.96575  0.05520  1.0000
  C   C1052     1.0  0.82036  0.65711  0.44208  1.0000
  H   H1867     1.0  0.63244  0.94652  0.10564  1.0000
  H   H1868     1.0  0.60962  0.93634  0.12292  1.0000
  C   C1053     1.0  0.79260  0.66735  0.48934  1.0000
  C   C1054     1.0  0.51345  0.81823  0.19198  1.0000
  H   H1869     1.0  0.64011  0.93709  0.02797  1.0000
  H   H1870     1.0  0.65213  0.93381  0.06304  1.0000
  H   H1871     1.0  0.50646  0.78992  0.28099  1.0000
  H   H1872     1.0  0.49165  0.76549  0.17527  1.0000
  C   C1055     1.0  0.56190  0.89192  0.09560  1.0000
  C   C1056     1.0  0.65855  0.90692  0.03430  1.0000
  H   H1873     1.0  0.53093  0.86518  0.36953  1.0000
  C   C1057     1.0  0.84574  0.66236  0.03750  1.0000
  H   H1874     1.0  0.59426  0.88646  0.07987  1.0000
  C   C1058     1.0  0.60763  0.88520  0.33238  1.0000
  C   C1059     1.0  0.51540  0.80484  0.28633  1.0000
  H   H1875     1.0  0.52974  0.88766  0.28588  1.0000
  C   C1060     1.0  0.50099  0.98297  0.00599  1.0000
  H   H1876     1.0  0.72436  0.92030  0.38258  1.0000
  C   C1061     1.0  0.49908  0.82053  0.24270  1.0000
  H   H1877     1.0  0.53381  0.78347  0.35198  1.0000
  H   H1878     1.0  0.55621  0.81571  0.05454  1.0000
  H   H1879     1.0  0.53023  0.95468  0.42959  1.0000
  C   C1062     1.0  0.52818  0.95898  0.45254  1.0000
  H   H1880     1.0  0.86101  0.66961  0.39370  1.0000
  C   C1063     1.0  0.50909  0.75539  0.24343  1.0000
  H   H1881     1.0  0.53151  0.83062  0.22775  1.0000
  H   H1882     1.0  0.49082  0.85907  0.36981  1.0000
  Fe  Fe120     1.0  0.55027  0.89782  0.46576  1.0000
  N   N59       1.0  0.64904  0.90667  0.39012  1.0000
  C   C1064     1.0  0.65171  0.89895  0.42071  1.0000
  C   C1065     1.0  0.64169  0.93046  0.39033  1.0000
  C   C1066     1.0  0.63244  0.89270  0.37519  1.0000
  C   C1067     1.0  0.67023  0.90448  0.37436  1.0000
  C   C1068     1.0  0.61317  0.96004  0.40223  1.0000
  C   C1069     1.0  0.66454  0.87683  0.42504  1.0000
  C   C1070     1.0  0.48857  0.75504  0.25657  1.0000
  H   H1883     1.0  0.51400  0.85590  0.25852  1.0000
  H   H1884     1.0  0.84812  0.68019  0.03960  1.0000
  H   H1885     1.0  0.66812  0.91078  0.35218  1.0000
  C   C1071     1.0  0.76199  0.68063  0.39279  1.0000
  H   H1886     1.0  0.50123  0.80581  0.18679  1.0000
  C   C1072     1.0  0.71094  0.91071  0.37311  1.0000
  H   H1887     1.0  0.62518  0.96885  0.41567  1.0000
  H   H1888     1.0  0.82894  0.66627  0.99699  1.0000
  H   H1889     1.0  0.51104  0.85752  0.04241  1.0000
  H   H1890     1.0  0.77057  0.67655  0.37260  1.0000
  H   H1891     1.0  0.50742  0.83691  0.38523  1.0000
  H   H1892     1.0  0.49481  0.83153  0.10672  1.0000
  N   N60       1.0  0.50338  0.82470  0.27422  1.0000
  H   H1893     1.0  0.55117  0.98404  0.45104  1.0000
  H   H1894     1.0  0.69177  0.91382  0.41091  1.0000
  H   H1895     1.0  0.68662  0.93494  0.38494  1.0000
  C   C1073     1.0  0.68945  0.66821  0.22149  1.0000
  H   H1896     1.0  0.50337  0.94375  0.06025  1.0000
  H   H1897     1.0  0.49008  0.80524  0.23932  1.0000
  H   H1898     1.0  0.84398  0.68894  0.41315  1.0000
  H   H1899     1.0  0.51851  0.76960  0.32439  1.0000
  H   H1900     1.0  0.48843  0.83399  0.23352  1.0000
  H   H1901     1.0  0.78784  0.68186  0.47642  1.0000
  C   C1074     1.0  0.48882  0.85598  0.41686  1.0000
  C   C1075     1.0  0.50801  0.84759  0.06169  1.0000
  H   H1902     1.0  0.67123  0.88230  0.47057  1.0000
  H   H1903     1.0  0.50669  0.83465  0.18587  1.0000
  S   S240      1.0  0.56835  0.94448  0.99417  1.0000
  H   H1904     1.0  0.49538  0.78633  0.38445  1.0000
  H   H1905     1.0  0.96623  0.66938  0.48017  1.0000
  H   H1906     1.0  0.49804  0.86775  0.30331  1.0000
  H   H1907     1.0  0.48778  0.75167  0.27923  1.0000
  S   S241      1.0  0.60917  0.88757  0.49279  1.0000
  H   H1908     1.0  0.84313  0.65562  0.05914  1.0000
  C   C1076     1.0  0.83347  0.65527  0.41405  1.0000
  Fe  Fe121     1.0  0.59675  0.87374  0.94219  1.0000
  H   H1909     1.0  0.65768  0.78747  0.65070  1.0000
  S   S242      1.0  0.60508  0.87356  0.89458  1.0000
  H   H1910     1.0  0.66340  0.75983  0.66224  1.0000
  C   C1077     1.0  0.54238  0.82261  0.84720  1.0000
  C   C1078     1.0  0.77883  0.66785  0.51625  1.0000
  Fe  Fe122     1.0  0.57808  0.87936  0.51514  1.0000
  S   S243      1.0  0.57032  0.86108  0.55649  1.0000
  Fe  Fe123     1.0  0.55936  0.86444  0.98119  1.0000
  H   H1911     1.0  0.79232  0.65896  0.98348  1.0000
  H   H1912     1.0  0.54003  0.96727  0.91688  1.0000
  S   S244      1.0  0.56431  0.89073  0.94943  1.0000
  Fe  Fe124     1.0  0.60826  0.78389  0.76465  1.0000
  S   S245      1.0  0.59141  0.75209  0.75779  1.0000
  S   S246      1.0  0.61678  0.79056  0.81177  1.0000
  Fe  Fe125     1.0  0.60666  0.79404  0.69969  1.0000
  S   S247      1.0  0.58940  0.76313  0.68956  1.0000
  S   S248      1.0  0.61897  0.81711  0.66553  1.0000
  Fe  Fe126     1.0  0.56862  0.77145  0.72803  1.0000
  S   S249      1.0  0.53213  0.78067  0.73280  1.0000
  Fe  Fe127     1.0  0.61402  0.74647  0.72034  1.0000
  S   S250      1.0  0.63415  0.71548  0.70564  1.0000
  S   S251      1.0  0.58512  0.80332  0.73645  1.0000
  S   S252      1.0  0.63186  0.77729  0.72882  1.0000
  C   C1079     1.0  0.65799  0.69903  0.71620  1.0000
  C   C1080     1.0  0.66742  0.70000  0.74370  1.0000
  C   C1081     1.0  0.68614  0.68675  0.75108  1.0000
  S   S253      1.0  0.56226  0.91283  0.50672  1.0000
  H   H1913     1.0  0.56925  0.78285  0.79929  1.0000
  C   C1082     1.0  0.66749  0.68411  0.69646  1.0000
  H   H1914     1.0  0.65989  0.71060  0.75944  1.0000
  C   C1083     1.0  0.56795  0.92992  0.84836  1.0000
  C   C1084     1.0  0.55210  0.84963  0.79313  1.0000
  C   C1085     1.0  0.50600  0.76881  0.73320  1.0000
  C   C1086     1.0  0.50728  0.81403  0.66902  1.0000
  H   H1915     1.0  0.56086  0.85600  0.81228  1.0000
  H   H1916     1.0  0.51685  0.73604  0.72242  1.0000
  C   C1087     1.0  0.69573  0.67191  0.73130  1.0000
  H   H1917     1.0  0.76150  0.66907  0.95136  1.0000
  C   C1088     1.0  0.58425  0.85010  0.58734  1.0000
  C   C1089     1.0  0.60685  0.85115  0.59154  1.0000
  C   C1090     1.0  0.61709  0.84135  0.61585  1.0000
  C   C1091     1.0  0.60496  0.83030  0.63621  1.0000
  C   C1092     1.0  0.58234  0.82950  0.63219  1.0000
  C   C1093     1.0  0.57209  0.83937  0.60796  1.0000
  H   H1918     1.0  0.61644  0.85940  0.57600  1.0000
  H   H1919     1.0  0.63459  0.84218  0.61876  1.0000
  H   H1920     1.0  0.57273  0.82125  0.64771  1.0000
  H   H1921     1.0  0.55460  0.83854  0.60504  1.0000
  C   C1094     1.0  0.60653  0.85017  0.87171  1.0000
  C   C1095     1.0  0.60716  0.85308  0.84185  1.0000
  C   C1096     1.0  0.60941  0.83499  0.82308  1.0000
  C   C1097     1.0  0.61136  0.81378  0.83400  1.0000
  C   C1098     1.0  0.61043  0.81087  0.86379  1.0000
  C   C1099     1.0  0.60778  0.82890  0.88253  1.0000
  H   H1922     1.0  0.60631  0.86945  0.83322  1.0000
  H   H1923     1.0  0.61055  0.83753  0.80030  1.0000
  H   H1924     1.0  0.61208  0.79455  0.87253  1.0000
  H   H1925     1.0  0.60739  0.82638  0.90541  1.0000
  C   C1100     1.0  0.61246  0.75008  0.57475  1.0000
  H   H1926     1.0  0.53531  0.86582  0.89628  1.0000
  H   H1927     1.0  0.65192  0.82974  0.78907  1.0000
  H   H1928     1.0  0.56571  0.79421  0.59655  1.0000
  C   C1101     1.0  0.55185  0.77245  0.62622  1.0000
  C   C1102     1.0  0.66814  0.83015  0.80005  1.0000
  H   H1929     1.0  0.50635  0.96051  0.50902  1.0000
  H   H1930     1.0  0.54633  0.81792  0.77364  1.0000
  H   H1931     1.0  0.56051  0.82344  0.84875  1.0000
  H   H1932     1.0  0.66668  0.84127  0.81886  1.0000
  H   H1933     1.0  0.57418  0.93869  0.80412  1.0000
  H   H1934     1.0  0.49093  0.82700  0.63153  1.0000
  C   C1103     1.0  0.52654  0.93693  0.92840  1.0000
  H   H1935     1.0  0.69309  0.68776  0.77248  1.0000
  N   N61       1.0  0.53545  0.81591  0.81720  1.0000
  H   H1936     1.0  0.62396  0.77879  0.53220  1.0000
  H   H1937     1.0  0.52968  0.78570  0.79415  1.0000
  H   H1938     1.0  0.58604  0.97633  0.92603  1.0000
  H   H1939     1.0  0.66040  0.68293  0.67515  1.0000
  H   H1940     1.0  0.55439  0.92251  0.85981  1.0000
  H   H1941     1.0  0.55288  0.75500  0.63266  1.0000
  H   H1942     1.0  0.54981  0.74817  0.80332  1.0000
  H   H1943     1.0  0.54603  0.94280  0.81469  1.0000
  H   H1944     1.0  0.60864  0.82722  0.53510  1.0000
  H   H1945     1.0  0.61653  0.98130  0.88827  1.0000
  C   C1104     1.0  0.60282  0.94011  0.89424  1.0000
  C   C1105     1.0  0.63746  0.76300  0.63024  1.0000
  H   H1946     1.0  0.69308  0.65952  0.68826  1.0000
  H   H1947     1.0  0.58166  0.84862  0.76772  1.0000
  C   C1106     1.0  0.53656  0.79122  0.81513  1.0000
  H   H1948     1.0  0.53582  0.85791  0.79119  1.0000
  H   H1949     1.0  0.71034  0.73672  0.71841  1.0000
  H   H1950     1.0  0.56705  0.98494  0.89927  1.0000
  H   H1951     1.0  0.58233  0.91841  0.84939  1.0000
  H   H1952     1.0  0.59685  0.80640  0.51263  1.0000
  H   H1953     1.0  0.63387  0.91079  0.91809  1.0000
  H   H1954     1.0  0.64763  0.93476  0.90638  1.0000
  H   H1955     1.0  0.60605  0.70816  0.55390  1.0000
  C   C1107     1.0  0.54288  0.85033  0.88802  1.0000
  H   H1956     1.0  0.51262  0.79816  0.65932  1.0000
  H   H1957     1.0  0.62726  0.74998  0.56132  1.0000
  H   H1958     1.0  0.60533  0.93496  0.94081  1.0000
  S   S254      1.0  0.52697  0.84881  0.98162  1.0000
  H   H1959     1.0  0.56529  0.92335  0.90599  1.0000
  C   C1108     1.0  0.51242  0.82341  0.80921  1.0000
  H   H1960     1.0  0.63595  0.79972  0.55430  1.0000
  H   H1961     1.0  0.53465  0.85827  0.84443  1.0000
  H   H1962     1.0  0.58776  0.78741  0.55695  1.0000
  H   H1963     1.0  0.53234  0.93754  0.95105  1.0000
  C   C1109     1.0  0.61205  0.81151  0.52372  1.0000
  N   N62       1.0  0.60914  0.77200  0.58928  1.0000
  N   N63       1.0  0.68339  0.76763  0.79093  1.0000
  C   C1110     1.0  0.67695  0.79114  0.78420  1.0000
  C   C1111     1.0  0.68567  0.75416  0.76366  1.0000
  C   C1112     1.0  0.66503  0.75830  0.80759  1.0000
  C   C1113     1.0  0.70394  0.76581  0.80907  1.0000
  C   C1114     1.0  0.72445  0.77565  0.79622  1.0000
  C   C1115     1.0  0.67546  0.80725  0.81000  1.0000
  C   C1116     1.0  0.66860  0.73429  0.81766  1.0000
  C   C1117     1.0  0.69375  0.76567  0.73651  1.0000
  C   C1118     1.0  0.69756  0.74921  0.71219  1.0000
  C   C1119     1.0  0.74322  0.77584  0.81821  1.0000
  H   H1964     1.0  0.64418  0.77619  0.58891  1.0000
  C   C1120     1.0  0.64703  0.72446  0.82586  1.0000
  H   H1965     1.0  0.66084  0.79186  0.77280  1.0000
  H   H1966     1.0  0.68850  0.79840  0.76932  1.0000
  H   H1967     1.0  0.69658  0.73948  0.76746  1.0000
  H   H1968     1.0  0.66963  0.74759  0.75687  1.0000
  H   H1969     1.0  0.64959  0.75949  0.79457  1.0000
  H   H1970     1.0  0.66168  0.76784  0.82738  1.0000
  H   H1971     1.0  0.70111  0.77318  0.83059  1.0000
  H   H1972     1.0  0.70847  0.74834  0.81332  1.0000
  H   H1973     1.0  0.72130  0.79269  0.78898  1.0000
  H   H1974     1.0  0.73009  0.76547  0.77788  1.0000
  H   H1975     1.0  0.66349  0.80226  0.82591  1.0000
  H   H1976     1.0  0.69158  0.80858  0.82094  1.0000
  H   H1977     1.0  0.67959  0.73375  0.83685  1.0000
  H   H1978     1.0  0.67615  0.72368  0.80107  1.0000
  H   H1979     1.0  0.68122  0.77791  0.72876  1.0000
  H   H1980     1.0  0.70911  0.77420  0.74058  1.0000
  H   H1981     1.0  0.70300  0.75782  0.69287  1.0000
  H   H1982     1.0  0.57500  0.74798  0.82389  1.0000
  H   H1983     1.0  0.68223  0.74086  0.70663  1.0000
  H   H1984     1.0  0.75789  0.78249  0.80827  1.0000
  H   H1985     1.0  0.73878  0.78633  0.83685  1.0000
  H   H1986     1.0  0.74742  0.75899  0.82573  1.0000
  H   H1987     1.0  0.60069  0.92238  0.89004  1.0000
  H   H1988     1.0  0.50035  0.92492  0.98597  1.0000
  S   S255      1.0  0.59066  0.84591  0.97204  1.0000
  H   H1989     1.0  0.63585  0.72371  0.80689  1.0000
  H   H1990     1.0  0.65010  0.70759  0.83394  1.0000
  H   H1991     1.0  0.63900  0.73444  0.84288  1.0000
  C   C1121     1.0  0.56772  0.77666  0.60219  1.0000
  C   C1122     1.0  0.68612  0.67072  0.70386  1.0000
  H   H1992     1.0  0.61395  0.94542  0.87728  1.0000
  C   C1123     1.0  0.55957  0.78013  0.81869  1.0000
  C   C1124     1.0  0.56517  0.94116  0.91084  1.0000
  H   H1993     1.0  0.57978  0.73718  0.57026  1.0000
  H   H1994     1.0  0.67237  0.76838  0.62764  1.0000
  H   H1995     1.0  0.55903  0.96388  0.85824  1.0000
  H   H1996     1.0  0.52627  0.78402  0.83175  1.0000
  C   C1125     1.0  0.50295  0.74667  0.72734  1.0000
  H   H1997     1.0  0.59227  0.75495  0.62240  1.0000
  H   H1998     1.0  0.53490  0.77650  0.61875  1.0000
  H   H1999     1.0  0.63970  0.74558  0.62400  1.0000
  H   H2000     1.0  0.62523  0.76418  0.64738  1.0000
  C   C1126     1.0  0.63045  0.77744  0.60411  1.0000
  C   C1127     1.0  0.59322  0.74186  0.55624  1.0000
  H   H2001     1.0  0.54939  0.75152  0.84193  1.0000
  H   H2002     1.0  0.68016  0.83680  0.78520  1.0000
  C   C1128     1.0  0.62048  0.79393  0.54470  1.0000
  H   H2003     1.0  0.50955  0.94383  0.92734  1.0000
  H   H2004     1.0  0.56781  0.81859  0.79973  1.0000
  H   H2005     1.0  0.62451  0.81427  0.50730  1.0000
  H   H2006     1.0  0.52634  0.91959  0.92124  1.0000
  H   H2007     1.0  0.61911  0.95862  0.92886  1.0000
  C   C1129     1.0  0.53246  0.84447  0.85911  1.0000
  H   H2008     1.0  0.78130  0.68335  0.52818  1.0000
  H   H2009     1.0  0.53432  0.94933  0.88723  1.0000
  H   H2010     1.0  0.55713  0.91559  0.80818  1.0000
  C   C1130     1.0  0.63677  0.92828  0.92283  1.0000
  H   H2011     1.0  0.49809  0.81142  0.84905  1.0000
  H   H2012     1.0  0.56613  0.87410  0.76625  1.0000
  H   H2013     1.0  0.61592  0.73712  0.59093  1.0000
  C   C1131     1.0  0.54116  0.95010  0.90932  1.0000
  C   C1132     1.0  0.49636  0.90825  0.98091  1.0000
  C   C1133     1.0  0.56489  0.85606  0.76689  1.0000
  H   H2014     1.0  0.55551  0.78288  0.64515  1.0000
  C   C1134     1.0  0.59171  0.77121  0.61178  1.0000
  H   H2015     1.0  0.57420  0.96968  0.51544  1.0000
  H   H2016     1.0  0.56848  0.78668  0.83759  1.0000
  C   C1135     1.0  0.56089  0.93198  0.81691  1.0000
  C   C1136     1.0  0.60354  0.79003  0.56818  1.0000
  H   H2017     1.0  0.58628  0.95922  0.84759  1.0000
  H   H2018     1.0  0.56263  0.76709  0.58325  1.0000
  C   C1137     1.0  0.50164  0.89624  0.49920  1.0000
  C   C1138     1.0  0.61519  0.94153  0.92342  1.0000
  H   H2019     1.0  0.55652  0.85062  0.74691  1.0000
  H   H2020     1.0  0.50431  0.81158  0.69214  1.0000
  H   H2021     1.0  0.49766  0.96800  0.54438  1.0000
  H   H2022     1.0  0.64516  0.92935  0.94405  1.0000
  H   H2023     1.0  0.59502  0.78330  0.62915  1.0000
  H   H2024     1.0  0.62980  0.79474  0.61166  1.0000
  C   C1139     1.0  0.65908  0.77018  0.64339  1.0000
  H   H2025     1.0  0.57038  0.94229  0.93365  1.0000
  H   H2026     1.0  0.61314  0.72512  0.52404  1.0000
  H   H2027     1.0  0.60103  0.80574  0.57995  1.0000
  C   C1140     1.0  0.55824  0.75542  0.82220  1.0000
  N   N64       1.0  0.58108  0.95245  0.89222  1.0000
  C   C1141     1.0  0.57349  0.95256  0.86132  1.0000
  H   H2028     1.0  0.53824  0.80991  0.86301  1.0000
  C   C1142     1.0  0.58152  0.98345  0.50543  1.0000
  C   C1143     1.0  0.60008  0.72140  0.53925  1.0000
  H   H2029     1.0  0.54041  0.83731  0.90399  1.0000
  S   S256      1.0  0.61329  0.89398  0.97654  1.0000
  H   H2030     1.0  0.52067  0.82565  0.66705  1.0000
  C   C1144     1.0  0.55074  0.82448  0.79526  1.0000
  H   H2031     1.0  0.61404  0.95608  0.98621  1.0000
  H   H2032     1.0  0.56064  0.85264  0.88582  1.0000
  C   C1145     1.0  0.58132  0.96970  0.98922  1.0000
  C   C1146     1.0  0.49350  0.95829  0.52499  1.0000
  H   H2033     1.0  0.58710  0.75425  0.54061  1.0000
  H   H2034     1.0  0.80991  0.66896  0.49640  1.0000
  C   C1147     1.0  0.58285  0.97576  0.90248  1.0000
  C   C1148     1.0  0.50714  0.86983  0.97752  1.0000
  H   H2035     1.0  0.58586  0.71545  0.52676  1.0000
  H   H2036     1.0  0.51831  0.89215  0.50564  1.0000
  H   H2037     1.0  0.51470  0.84318  0.86252  1.0000
  C   C1149     1.0  0.60390  0.97089  0.98612  1.0000
  H   H2038     1.0  0.76122  0.66681  0.51059  1.0000
  H   H2039     1.0  0.48856  0.88884  0.54043  1.0000
  H   H2040     1.0  0.66751  0.65968  0.80320  1.0000
  H   H2041     1.0  0.50914  0.82017  0.78601  1.0000
  C   C1150     1.0  0.51238  0.89148  0.98349  1.0000
  H   H2042     1.0  0.48973  0.79947  0.74413  1.0000
  H   H2043     1.0  0.51011  0.97190  0.99110  1.0000
  H   H2044     1.0  0.51011  0.84135  0.81168  1.0000
  H   H2045     1.0  0.49352  0.94069  0.53068  1.0000
  Fe  Fe128     1.0  0.58020  0.90917  0.98541  1.0000
  H   H2046     1.0  0.52864  0.89532  0.99067  1.0000
  C   C1151     1.0  0.49405  0.81249  0.82584  1.0000
  C   C1152     1.0  0.48763  0.78233  0.73954  1.0000
  H   H2047     1.0  0.49181  0.79563  0.81755  1.0000
  H   H2048     1.0  0.77862  0.65604  0.92459  1.0000
