data_image0
_chemical_formula_structural       FeS2FeS2FeSFeS3FeS2FeS2FeSFeS3FeS2FeS2FeSFeS3C3HC3H3C6H4C2H3CH6C3HCH3C6H5CHCH2CHC2H2CHNC4HCH4CH9CNC10H24CHCH4NC6HC5H28CH2CHCH7CH6C3HNHC2H3C2H7C2H3CH3C3HCH3CNH2CHCH3CHNC3H2CHC2H5C2HC2H2CH5CHCH3CH2NHCHCHCH2C2H6C2H4CH7C5H2C2HC3HCH2C2FeS2FeS2FeHFeS3FeS2FeS2FeSFeS3FeS2FeS2FeSFeS3C3H2CH2CHC3H3C2H2C6H4NC6H3C6H4C2H8CH7CH5CHC3H7CHCHCH2C3H2C2HC2H13C2H4CH4NC4HC4HC2H7CH8CH3CH7NCH5CH2C2HCH10CH2CHCH3NC10H21NC12H17CH4CHC3HCH2C4HCH2CHC2H4C3H16C2H2CHCH5C2H2SHNCHC2H4CFeS2FeSHFeSFeS3FeS2FeS2FeSFeS3FeS2FeS2FeCFeS3C3HC2H2CHC3H2CH2CHC6H5C2H3CH2C7H6C3H2C4H5CHNC11H26C2H3CH14CHC2H2CH2CH3C3H4CH2CH4C2H5NSH2CH7SH4CH7CH3CHCH4CHCHNHC2HCHC2H11CHC2H4CH5CHNH2C2H5CH2C2HC3HCH2CHC2H5CH2C3H6CHC2HC2HCNHCH2CNHCH3CH4C3HCH3CHFeS2FeS2FeSFeS3FeS2FeS2FeSFeS3FeS2FeS2FeCFeS3C3H2CH4C2H3C3H2CH4CH2CHC6H4C6H10C7H4C2H5CSH2CH4C2H2CHCH2CH2CHCH3CHC2H3CH4CHCH8C2NC5HC5H4CH11CH10CHC5H13CHCH5C2H3CH2CHCHCH8CH2CHCHCH3NC6HC2H9CH12CH3CH3CHCH2CHC2H2NHC2HCHNC2H3C2HC3H5CHCH2CNCH5NCH2C2HCH3CH3CHCFeS2FeSHFeSFeS3FeS2FeSCFeSFeS3C2HC2H2NC6H4CHC2H3CH7C2H2C2H3CH3CH2CH4NH3CH3C3H2CHCH2C2H6CH3CH2CH3CHSHSCHCHCH2C3H3CHCHCH5CH4C2HCH2CHFeSHFeS2FeHFeS3FeS2FeS2FeSFeHS2C4H2C6H4C4HCHCH9CHCHCHCH2CH6CH7CH4SH3C2HCHCHCH2CH5CH3CH4CH2NH2C2H2CH4CH2SH3C2HC2H7FeS2FeS2FeSFeS2FeS2FeS2FeSFeS3C2H2C3H5CH3C5H3C6H4NH5C4H3CHCH3C2H5CH2CHCHCH5CHNC2H3CHCH2CH2C2HCH2CH4C4H4C2H3NC4HC2NC3H9CH4CH4CH8C6H2CHCH2C2H4SH2CHCHCH5CHCH3CH9FeS2FeS2FeSFeS2FeS2FeS2FeSFeS3C2H3CH5C8H4C6H4CHCH2C4H2CH3CHCH8C2HCHCH2CH2C2H3C2HC2HCH6CHC2H4CH3C2H5CH3CHNHCH2CH2CH9CH4CH2C2H2CH2C3NC2HC2HCH2CH2CH8C3HNCH7SHCH2CH9C2HC2H2CHC2HCH5CH3C3H2C2H3C2H3CHCHCHCH2CHNHNH3C2H6SH2NHCHNH2CFeS2FeS2FeSFeS3FeS2FeS2FeSFeS3FeS2FeS2FeSFeS3C6H4CHCH2C2H2CH7CH2C3H2C6H6CHNC4H4C3HNC12H28NC3HC3H2C3H3CH3CHCH6C2H2CH8CHCH2C2H4CHCH2CHCH5CH2C2HCH5NH3CH5CNH4CH7CH3CH6CH5CH3CHCHCH7CHCH2CH2CHCH2C2H5C2HCHC4H5NC2HC3H2CH5FeS2FeS2FeSFeS3FeS2FeS2FeSFeHS2FeS2FeS2FeSFeS3C2H3CH4C6H5CHCH2CHCHC3H2C6H7C3H4C3H4CH4CNCHC8H3CH10CH2CH13C3H2NCNC2HC2H2CH3CNHCHNC12H28CHC2H2C2NCH2CH3CH13C2HC2HC4H2C2H4C4H3C2HC2H3CH4CH3C2HC2HCH2C2H4C2HCH3CH5SH3C3H3C2H11CH2CH2CH2CH5NHFeS2FeS2FeSFeS3CFeS2FeS2FeSFeS3FeSHFeS2FeSFeS3H4C7H5C2H2C3H2C6H4C2H3CH6C3H2C3HNHC3HC2HCH4CH2CH5CH3CH2SH2C2HCH5NCH5CH3CH6CH3C2H5CHCHC2H3C2H6CH8C2HCH5CH2CH15C2H4CNC6HCHC3H3CH8CH3CH13C2HCH4C3HCH2C4H2CNC3HC5HCH5C2H2CH2NCHCHNC2H3CHCH3CHCH11C2HC2H6C2HCFeS2FeS2FeSFeS3CFeS2FeS2FeSFeS3FeS2FeS2FeSFeS3H2CH2C2H3C2H2C7H5C6H4CH4C3H2CHCH2C3H3NC12H28C2HCNH3CHC3HCH4CHCH3C3H6C2HCH5C4H2CHCHC2H3CH7CH3C3H4CNCHC3H3CH2CH10C2H4CH3C2H6CHCH4CH4CH2CH4C2H3CH2NC4H2CH3NH6C3H3C4H12C2H2CH2NC2H
_chemical_formula_sum              "Fe128 S256 C1152 H2048 N64"
_cell_length_a       67.3747
_cell_length_b       67.3235
_cell_length_c       42.5697
_cell_angle_alpha    90.1008
_cell_angle_beta     90.0153
_cell_angle_gamma    84.0832

_space_group_name_H-M_alt    "P 1"
_space_group_IT_number       1

loop_
  _space_group_symop_operation_xyz
  'x, y, z'

loop_
  _atom_site_type_symbol
  _atom_site_label
  _atom_site_symmetry_multiplicity
  _atom_site_fract_x
  _atom_site_fract_y
  _atom_site_fract_z
  _atom_site_occupancy
  Fe  Fe1       1.0  0.25333  0.05626  0.10661  1.0000
  S   S1        1.0  0.22511  0.06341  0.13453  1.0000
  S   S2        1.0  0.24815  0.04488  0.05718  1.0000
  Fe  Fe2       1.0  0.28021  0.06512  0.16306  1.0000
  S   S3        1.0  0.25349  0.07403  0.19355  1.0000
  S   S4        1.0  0.31286  0.05825  0.17894  1.0000
  Fe  Fe3       1.0  0.24170  0.04641  0.17367  1.0000
  S   S5        1.0  0.22939  0.02493  0.20787  1.0000
  Fe  Fe4       1.0  0.23923  0.09029  0.15131  1.0000
  S   S6        1.0  0.22367  0.12241  0.14653  1.0000
  S   S7        1.0  0.26850  0.03714  0.14457  1.0000
  S   S8        1.0  0.26727  0.08355  0.12192  1.0000
  Fe  Fe5       1.0  0.09986  0.41480  0.32813  1.0000
  S   S9        1.0  0.09133  0.40947  0.37778  1.0000
  S   S10       1.0  0.09571  0.44606  0.30675  1.0000
  Fe  Fe6       1.0  0.10665  0.36899  0.31313  1.0000
  S   S11       1.0  0.09862  0.36068  0.36276  1.0000
  S   S12       1.0  0.11291  0.34989  0.26829  1.0000
  Fe  Fe7       1.0  0.07408  0.38579  0.35841  1.0000
  S   S13       1.0  0.04388  0.38463  0.37955  1.0000
  Fe  Fe8       1.0  0.11671  0.38527  0.37852  1.0000
  S   S14       1.0  0.13594  0.38746  0.42191  1.0000
  S   S15       1.0  0.08054  0.39256  0.30833  1.0000
  S   S16       1.0  0.12684  0.39204  0.32932  1.0000
  Fe  Fe9       1.0  0.11564  0.23150  0.10327  1.0000
  S   S17       1.0  0.10054  0.20341  0.10653  1.0000
  S   S18       1.0  0.12994  0.23925  0.05699  1.0000
  Fe  Fe10      1.0  0.11049  0.24129  0.17422  1.0000
  S   S19       1.0  0.09557  0.21310  0.18160  1.0000
  S   S20       1.0  0.11239  0.25900  0.22067  1.0000
  Fe  Fe11      1.0  0.11945  0.19747  0.15003  1.0000
  S   S21       1.0  0.13466  0.16598  0.16124  1.0000
  Fe  Fe12      1.0  0.07819  0.22135  0.13769  1.0000
  S   S22       1.0  0.04430  0.22682  0.13127  1.0000
  S   S23       1.0  0.13554  0.22489  0.14564  1.0000
  S   S24       1.0  0.09222  0.25013  0.13128  1.0000
  C   C1        1.0  0.02327  0.21429  0.14144  1.0000
  C   C2        1.0  0.15483  0.18556  0.06334  1.0000
  C   C3        1.0  0.17193  0.42416  0.36256  1.0000
  H   H1        1.0  0.09334  0.48652  0.28530  1.0000
  C   C4        1.0  0.02472  0.19540  0.15544  1.0000
  C   C5        1.0  0.02645  0.37877  0.35158  1.0000
  C   C6        1.0  0.02802  0.38471  0.32028  1.0000
  H   H2        1.0  0.02656  0.21213  0.07128  1.0000
  H   H3        1.0  0.03950  0.39382  0.31338  1.0000
  H   H4        1.0  0.05117  0.21608  0.02882  1.0000
  C   C7        1.0  0.11241  0.32449  0.25571  1.0000
  C   C8        1.0  0.11346  0.32007  0.22330  1.0000
  C   C9        1.0  0.11315  0.30030  0.21205  1.0000
  C   C10       1.0  0.11206  0.28449  0.23312  1.0000
  C   C11       1.0  0.11096  0.28892  0.26552  1.0000
  C   C12       1.0  0.11105  0.30872  0.27674  1.0000
  H   H5        1.0  0.11459  0.33205  0.20670  1.0000
  H   H6        1.0  0.11409  0.29725  0.18711  1.0000
  H   H7        1.0  0.11013  0.27690  0.28213  1.0000
  H   H8        1.0  0.11031  0.31174  0.30170  1.0000
  C   C13       1.0  0.09642  0.23811  0.01936  1.0000
  C   C14       1.0  0.11690  0.23987  0.02078  1.0000
  H   H9        1.0  0.32342  0.00210  0.21108  1.0000
  H   H10       1.0  0.08812  0.23665  0.04085  1.0000
  H   H11       1.0  0.18741  0.43960  0.27353  1.0000
  C   C15       1.0  0.12901  0.37759  0.45843  1.0000
  H   H12       1.0  0.23684  0.09686  0.02927  1.0000
  H   H13       1.0  0.16210  0.22569  0.29492  1.0000
  H   H14       1.0  0.12217  0.34946  0.43948  1.0000
  H   H15       1.0  0.05325  0.33865  0.38881  1.0000
  H   H16       1.0  0.00588  0.17743  0.04800  1.0000
  H   H17       1.0  0.00298  0.23848  0.12383  1.0000
  C   C16       1.0  0.10014  0.48611  0.30833  1.0000
  C   C17       1.0  0.10303  0.46793  0.32468  1.0000
  C   C18       1.0  0.11214  0.46752  0.35421  1.0000
  H   H18       1.0  0.00717  0.24418  0.25881  1.0000
  C   C19       1.0  0.24804  0.11816  0.06020  1.0000
  H   H19       1.0  0.13726  0.44936  0.26047  1.0000
  H   H20       1.0  0.11435  0.45364  0.36712  1.0000
  H   H21       1.0  0.16764  0.17380  0.06273  1.0000
  C   C20       1.0  0.15939  0.15402  0.15591  1.0000
  C   C21       1.0  0.16386  0.13419  0.16625  1.0000
  C   C22       1.0  0.18322  0.12408  0.16289  1.0000
  C   C23       1.0  0.19853  0.13378  0.14945  1.0000
  C   C24       1.0  0.19401  0.15357  0.13884  1.0000
  C   C25       1.0  0.17461  0.16362  0.14196  1.0000
  H   H22       1.0  0.15225  0.12655  0.17704  1.0000
  H   H23       1.0  0.18638  0.10892  0.17128  1.0000
  H   H24       1.0  0.20570  0.16129  0.12847  1.0000
  H   H25       1.0  0.17152  0.17886  0.13395  1.0000
  H   H26       1.0  0.12662  0.48443  0.38904  1.0000
  C   C26       1.0  0.00179  0.23174  0.24514  1.0000
  H   H27       1.0  0.15148  0.21781  0.34807  1.0000
  C   C27       1.0  0.29240  0.01323  0.22296  1.0000
  H   H28       1.0  0.24590  0.12392  0.08458  1.0000
  H   H29       1.0  0.30434  0.08657  0.23134  1.0000
  C   C28       1.0  0.06455  0.35047  0.44877  1.0000
  H   H30       1.0  0.03863  0.24060  0.02000  1.0000
  C   C29       1.0  0.25613  0.05575  0.02224  1.0000
  C   C30       1.0  0.27219  0.06733  0.02157  1.0000
  H   H31       1.0  0.02951  0.21331  0.25485  1.0000
  H   H32       1.0  0.27970  0.07053  0.04320  1.0000
  C   C31       1.0  0.00151  0.37427  0.46079  1.0000
  H   H33       1.0  0.18299  0.48269  0.32852  1.0000
  N   N1        1.0  0.19553  0.09929  0.04529  1.0000
  C   C32       1.0  0.20171  0.07729  0.04990  1.0000
  C   C33       1.0  0.17684  0.10457  0.06454  1.0000
  C   C34       1.0  0.00995  0.21351  0.02655  1.0000
  C   C35       1.0  0.17012  0.12719  0.06890  1.0000
  H   H34       1.0  0.13803  0.43492  0.31321  1.0000
  C   C36       1.0  0.14944  0.13036  0.08401  1.0000
  H   H35       1.0  0.20555  0.07437  0.07503  1.0000
  H   H36       1.0  0.17879  0.09812  0.08865  1.0000
  H   H37       1.0  0.16398  0.09785  0.05397  1.0000
  H   H38       1.0  0.01417  0.23649  0.06255  1.0000
  C   C37       1.0  0.27760  0.05055  0.26475  1.0000
  H   H39       1.0  0.00949  0.47430  0.29617  1.0000
  H   H40       1.0  0.16942  0.13535  0.04635  1.0000
  H   H41       1.0  0.18064  0.13416  0.08448  1.0000
  H   H42       1.0  0.03926  0.18784  0.16093  1.0000
  H   H43       1.0  0.02922  0.22611  0.21762  1.0000
  H   H44       1.0  0.14554  0.14644  0.08935  1.0000
  H   H45       1.0  0.13794  0.12538  0.06794  1.0000
  H   H46       1.0  0.14917  0.12196  0.10641  1.0000
  H   H47       1.0  0.16180  0.41328  0.35432  1.0000
  C   C38       1.0  0.13488  0.41821  0.25314  1.0000
  N   N2        1.0  0.16808  0.19558  0.24437  1.0000
  C   C39       1.0  0.14656  0.19379  0.23575  1.0000
  C   C40       1.0  0.17505  0.21432  0.23017  1.0000
  C   C41       1.0  0.18055  0.17786  0.23016  1.0000
  C   C42       1.0  0.17140  0.19513  0.27945  1.0000
  C   C43       1.0  0.13755  0.17497  0.24820  1.0000
  C   C44       1.0  0.20342  0.17699  0.23591  1.0000
  C   C45       1.0  0.15952  0.23293  0.22739  1.0000
  C   C46       1.0  0.16930  0.25135  0.21705  1.0000
  C   C47       1.0  0.11498  0.17653  0.24326  1.0000
  C   C48       1.0  0.21483  0.16038  0.21666  1.0000
  H   H48       1.0  0.14489  0.19393  0.20968  1.0000
  H   H49       1.0  0.13662  0.20694  0.24393  1.0000
  H   H50       1.0  0.18813  0.21890  0.24332  1.0000
  H   H51       1.0  0.18047  0.21138  0.20565  1.0000
  H   H52       1.0  0.17793  0.17733  0.20433  1.0000
  H   H53       1.0  0.17608  0.16357  0.23951  1.0000
  H   H54       1.0  0.17002  0.17990  0.28882  1.0000
  H   H55       1.0  0.18700  0.19795  0.28502  1.0000
  H   H56       1.0  0.14401  0.16139  0.23550  1.0000
  H   H57       1.0  0.14025  0.17285  0.27369  1.0000
  H   H58       1.0  0.20685  0.17381  0.26103  1.0000
  H   H59       1.0  0.20936  0.19120  0.22952  1.0000
  H   H60       1.0  0.14822  0.23017  0.20943  1.0000
  H   H61       1.0  0.15152  0.23660  0.24964  1.0000
  H   H62       1.0  0.17679  0.24867  0.19395  1.0000
  H   H63       1.0  0.15769  0.26423  0.21457  1.0000
  H   H64       1.0  0.18035  0.25528  0.23478  1.0000
  H   H65       1.0  0.11137  0.17740  0.21785  1.0000
  H   H66       1.0  0.10897  0.16304  0.25287  1.0000
  H   H67       1.0  0.10751  0.18990  0.25537  1.0000
  H   H68       1.0  0.23079  0.15865  0.22372  1.0000
  H   H69       1.0  0.20865  0.14587  0.22031  1.0000
  H   H70       1.0  0.21411  0.16420  0.19134  1.0000
  H   H71       1.0  0.05588  0.31218  0.39634  1.0000
  C   C49       1.0  0.19451  0.04109  0.04542  1.0000
  H   H72       1.0  0.26365  0.11118  0.05785  1.0000
  C   C50       1.0  0.12324  0.35826  0.46058  1.0000
  H   H73       1.0  0.28011  0.01003  0.05519  1.0000
  H   H74       1.0  0.26021  0.07930  0.27024  1.0000
  H   H75       1.0  0.00884  0.47066  0.38655  1.0000
  H   H76       1.0  0.25544  0.06127  0.29988  1.0000
  N   N3        1.0  0.04421  0.33119  0.23328  1.0000
  C   C51       1.0  0.05827  0.34606  0.22325  1.0000
  C   C52       1.0  0.05267  0.31070  0.22241  1.0000
  C   C53       1.0  0.02398  0.33729  0.21903  1.0000
  C   C54       1.0  0.04196  0.33080  0.26850  1.0000
  C   C55       1.0  0.06161  0.32673  0.28740  1.0000
  C   C56       1.0  0.05379  0.36751  0.23667  1.0000
  H   H77       1.0  0.31725  0.00719  0.31581  1.0000
  C   C57       1.0  0.05346  0.30744  0.18633  1.0000
  C   C58       1.0  0.06082  0.28580  0.17828  1.0000
  C   C59       1.0  0.05778  0.32869  0.32261  1.0000
  C   C60       1.0  0.06850  0.38134  0.22394  1.0000
  C   C61       1.0  0.07746  0.41096  0.47372  1.0000
  H   H78       1.0  0.05825  0.34750  0.19722  1.0000
  H   H79       1.0  0.07396  0.34066  0.22930  1.0000
  H   H80       1.0  0.06830  0.30732  0.23088  1.0000
  H   H81       1.0  0.04439  0.29894  0.23315  1.0000
  H   H82       1.0  0.02537  0.34065  0.19358  1.0000
  H   H83       1.0  0.01722  0.35151  0.22973  1.0000
  H   H84       1.0  0.03386  0.34496  0.27709  1.0000
  H   H85       1.0  0.03242  0.31903  0.27558  1.0000
  H   H86       1.0  0.07240  0.33744  0.28134  1.0000
  H   H87       1.0  0.06860  0.31135  0.28288  1.0000
  H   H88       1.0  0.03860  0.37405  0.23006  1.0000
  H   H89       1.0  0.05503  0.36757  0.26265  1.0000
  H   H90       1.0  0.22700  0.42325  0.31183  1.0000
  H   H91       1.0  0.03360  0.46223  0.28759  1.0000
  H   H92       1.0  0.03858  0.31074  0.17533  1.0000
  H   H93       1.0  0.06389  0.31711  0.17534  1.0000
  H   H94       1.0  0.06120  0.28386  0.15237  1.0000
  H   H95       1.0  0.18230  0.06460  0.01502  1.0000
  H   H96       1.0  0.25820  0.00331  0.00901  1.0000
  H   H97       1.0  0.04704  0.31824  0.33041  1.0000
  H   H98       1.0  0.07206  0.32513  0.33541  1.0000
  H   H99       1.0  0.05180  0.34423  0.32858  1.0000
  H   H100      1.0  0.06738  0.38249  0.19796  1.0000
  H   H101      1.0  0.06511  0.39650  0.23417  1.0000
  H   H102      1.0  0.08403  0.37573  0.23046  1.0000
  H   H103      1.0  0.12750  0.19450  0.03950  1.0000
  H   H104      1.0  0.14712  0.18476  0.08632  1.0000
  H   H105      1.0  0.16044  0.20048  0.06161  1.0000
  C   C62       1.0  0.18735  0.43864  0.29957  1.0000
  H   H106      1.0  0.17719  0.09713  0.00397  1.0000
  H   H107      1.0  0.06627  0.48482  0.37080  1.0000
  C   C63       1.0  0.07117  0.39121  0.46145  1.0000
  H   H108      1.0  0.16560  0.46929  0.27691  1.0000
  C   C64       1.0  0.17017  0.42505  0.39834  1.0000
  H   H109      1.0  0.08348  0.38430  0.44634  1.0000
  H   H110      1.0  0.21165  0.99893  0.24836  1.0000
  H   H111      1.0  0.01542  0.20464  0.22258  1.0000
  H   H112      1.0  0.00848  0.17174  0.17346  1.0000
  H   H113      1.0  0.01982  0.20080  0.01655  1.0000
  H   H114      1.0  0.26154  0.02488  0.25739  1.0000
  H   H115      1.0  0.06419  0.31787  0.45154  1.0000
  C   C65       1.0  0.99890  0.36814  0.30705  1.0000
  H   H116      1.0  0.28068  0.05380  0.23984  1.0000
  H   H117      1.0  0.16460  0.17481  0.00432  1.0000
  H   H118      1.0  0.22564  0.43643  0.27467  1.0000
  H   H119      1.0  0.15407  0.20009  0.00327  1.0000
  H   H120      1.0  0.18032  0.43541  0.40837  1.0000
  H   H121      1.0  0.19900  0.03857  0.07035  1.0000
  C   C66       1.0  0.02272  0.46568  0.30712  1.0000
  C   C67       1.0  0.19063  0.10423  0.01139  1.0000
  C   C68       1.0  0.27552  0.02801  0.26959  1.0000
  H   H122      1.0  0.17642  0.45517  0.35887  1.0000
  N   N4        1.0  0.29286  0.01372  0.25840  1.0000
  H   H123      1.0  0.06514  0.41916  0.48730  1.0000
  C   C69       1.0  0.01664  0.44495  0.31723  1.0000
  C   C70       1.0  0.01094  0.36780  0.36069  1.0000
  H   H124      1.0  0.99891  0.24937  0.20323  1.0000
  H   H125      1.0  0.18292  0.03109  0.03957  1.0000
  H   H126      1.0  0.01337  0.43318  0.26994  1.0000
  C   C71       1.0  0.29290  0.00965  0.03864  1.0000
  C   C72       1.0  0.05674  0.33065  0.43808  1.0000
  H   H127      1.0  0.18647  0.12051  0.00855  1.0000
  H   H128      1.0  0.13432  0.16805  0.04004  1.0000
  H   H129      1.0  0.27245  0.02576  0.29495  1.0000
  H   H130      1.0  0.14389  0.40350  0.25540  1.0000
  H   H131      1.0  0.29481  0.02810  0.21328  1.0000
  H   H132      1.0  0.20765  0.03705  0.03016  1.0000
  H   H133      1.0  0.15123  0.45063  0.35624  1.0000
  C   C73       1.0  0.00440  0.43587  0.29171  1.0000
  C   C74       1.0  0.11897  0.48501  0.36666  1.0000
  H   H134      1.0  0.05604  0.45548  0.34100  1.0000
  H   H135      1.0  0.06033  0.36169  0.43036  1.0000
  H   H136      1.0  0.23754  0.44666  0.30807  1.0000
  C   C75       1.0  0.14672  0.43507  0.26443  1.0000
  H   H137      1.0  0.30709  0.01230  0.16112  1.0000
  H   H138      1.0  0.00958  0.36322  0.38485  1.0000
  H   H139      1.0  0.00744  0.22442  0.00697  1.0000
  C   C76       1.0  0.18624  0.06285  0.04024  1.0000
  C   C77       1.0  0.01557  0.49154  0.34875  1.0000
  C   C78       1.0  0.06116  0.32664  0.40336  1.0000
  H   H140      1.0  0.00425  0.32091  0.24816  1.0000
  C   C79       1.0  0.31252  0.02036  0.26890  1.0000
  H   H141      1.0  0.00777  0.44570  0.33910  1.0000
  H   H142      1.0  0.14191  0.20990  0.29411  1.0000
  H   H143      1.0  0.05045  0.23578  0.05758  1.0000
  C   C80       1.0  0.15797  0.21042  0.29925  1.0000
  N   N5        1.0  0.16707  0.44615  0.31243  1.0000
  H   H144      1.0  0.21002  0.11353  0.08349  1.0000
  H   H145      1.0  0.17426  0.40993  0.40831  1.0000
  C   C81       1.0  0.01421  0.37940  0.29797  1.0000
  H   H146      1.0  0.18752  0.41840  0.35671  1.0000
  C   C82       1.0  0.16643  0.44508  0.34785  1.0000
  H   H147      1.0  0.19080  0.42243  0.30466  1.0000
  H   H148      1.0  0.15455  0.42998  0.40543  1.0000
  H   H149      1.0  0.01514  0.38431  0.27390  1.0000
  C   C83       1.0  0.31526  0.02226  0.30496  1.0000
  H   H150      1.0  0.99666  0.38073  0.48391  1.0000
  N   N6        1.0  0.03163  0.47819  0.33205  1.0000
  C   C84       1.0  0.00817  0.32227  0.22301  1.0000
  C   C85       1.0  0.00428  0.22383  0.13450  1.0000
  C   C86       1.0  0.21158  0.11146  0.05758  1.0000
  H   H151      1.0  0.08123  0.42037  0.45360  1.0000
  H   H152      1.0  0.20972  0.12677  0.04742  1.0000
  C   C87       1.0  0.04433  0.46490  0.35444  1.0000
  H   H153      1.0  0.12092  0.41794  0.26692  1.0000
  C   C88       1.0  0.23076  0.99840  0.20784  1.0000
  C   C89       1.0  0.16090  0.20637  0.33436  1.0000
  H   H154      1.0  0.15644  0.19142  0.34050  1.0000
  H   H155      1.0  0.05846  0.48219  0.30586  1.0000
  H   H156      1.0  0.13076  0.42054  0.22806  1.0000
  H   H157      1.0  0.17674  0.20713  0.34114  1.0000
  H   H158      1.0  0.02777  0.36714  0.43364  1.0000
  C   C90       1.0  0.00723  0.18628  0.16243  1.0000
  C   C91       1.0  0.31900  0.07872  0.23483  1.0000
  H   H159      1.0  0.32511  0.00961  0.26092  1.0000
  C   C92       1.0  0.02243  0.22294  0.05221  1.0000
  C   C93       1.0  0.15229  0.43264  0.29981  1.0000
  H   H160      1.0  0.15799  0.41669  0.30324  1.0000
  H   H161      1.0  0.16009  0.43495  0.24932  1.0000
  C   C94       1.0  0.23363  0.10263  0.05319  1.0000
  H   H162      1.0  0.30226  0.03087  0.31623  1.0000
  H   H163      1.0  0.04038  0.33103  0.44131  1.0000
  H   H164      1.0  0.23707  0.09000  0.06973  1.0000
  H   H165      1.0  0.20443  0.46452  0.29948  1.0000
  H   H166      1.0  0.24576  0.13080  0.04342  1.0000
  C   C95       1.0  0.25850  0.06330  0.27451  1.0000
  H   H167      1.0  0.05071  0.27538  0.18819  1.0000
  C   C96       1.0  0.12011  0.34984  0.49022  1.0000
  H   H168      1.0  0.28992  0.05548  0.27915  1.0000
  H   H169      1.0  0.24557  0.05918  0.26057  1.0000
  H   H170      1.0  0.07613  0.28183  0.18755  1.0000
  C   C97       1.0  0.28993  0.99570  0.01104  1.0000
  H   H171      1.0  0.21555  0.07242  0.03688  1.0000
  H   H172      1.0  0.02873  0.34707  0.48507  1.0000
  N   N7        1.0  0.05777  0.35807  0.48078  1.0000
  H   H173      1.0  0.99983  0.42137  0.29994  1.0000
  C   C98       1.0  0.04183  0.22920  0.03864  1.0000
  H   H174      1.0  0.05604  0.45080  0.41394  1.0000
  C   C99       1.0  0.22501  0.43822  0.30062  1.0000
  H   H175      1.0  0.07745  0.32594  0.39877  1.0000
  C   C100      1.0  0.16064  0.46724  0.30155  1.0000
  H   H176      1.0  0.02775  0.38945  0.45746  1.0000
  H   H177      1.0  0.07815  0.45142  0.38992  1.0000
  C   C101      1.0  0.05503  0.47567  0.38079  1.0000
  C   C102      1.0  0.14015  0.18265  0.03673  1.0000
  H   H178      1.0  0.17247  0.06548  0.05457  1.0000
  H   H179      1.0  0.07354  0.46878  0.42185  1.0000
  H   H180      1.0  0.13572  0.40344  0.48473  1.0000
  H   H181      1.0  0.99682  0.35897  0.45871  1.0000
  H   H182      1.0  0.20559  0.45119  0.33652  1.0000
  H   H183      1.0  0.04414  0.48530  0.39506  1.0000
  C   C103      1.0  0.20519  0.44958  0.31064  1.0000
  C   C104      1.0  0.06631  0.46068  0.40298  1.0000
  H   H184      1.0  0.03549  0.45412  0.36633  1.0000
  H   H185      1.0  0.01353  0.30724  0.21390  1.0000
  H   H186      1.0  0.29432  0.02506  0.03021  1.0000
  H   H187      1.0  0.11056  0.17678  0.00079  1.0000
  C   C105      1.0  0.02010  0.21816  0.23429  1.0000
  H   H188      1.0  0.08118  0.34824  0.44789  1.0000
  H   H189      1.0  0.00252  0.19358  0.08070  1.0000
  H   H190      1.0  0.14402  0.46993  0.30107  1.0000
  H   H191      1.0  0.27730  0.01045  0.21431  1.0000
  H   H192      1.0  0.14225  0.14233  0.00971  1.0000
  H   H193      1.0  0.03023  0.43441  0.32133  1.0000
  H   H194      1.0  0.31520  0.03471  0.25744  1.0000
  C   C106      1.0  0.02412  0.37379  0.45694  1.0000
  C   C107      1.0  0.13099  0.38860  0.48615  1.0000
  C   C108      1.0  0.15010  0.18438  0.00401  1.0000
  C   C109      1.0  0.06731  0.37687  0.48886  1.0000
  C   C110      1.0  0.03529  0.36155  0.48343  1.0000
  H   H195      1.0  0.05792  0.39465  0.44639  1.0000
  H   H196      1.0  0.30671  0.00428  0.05162  1.0000
  C   C111      1.0  0.99725  0.36240  0.33839  1.0000
  C   C112      1.0  0.16709  0.48470  0.32184  1.0000
  H   H197      1.0  0.11661  0.33456  0.49168  1.0000
  C   C113      1.0  0.00096  0.48121  0.36967  1.0000
  C   C114      1.0  0.04527  0.49145  0.31585  1.0000
  C   C115      1.0  0.30811  0.99797  0.20698  1.0000
  H   H198      1.0  0.15832  0.48592  0.34397  1.0000
  C   C116      1.0  0.30502  0.99751  0.17146  1.0000
  H   H199      1.0  0.09084  0.40828  0.48897  1.0000
  H   H200      1.0  0.32508  0.09518  0.27680  1.0000
  C   C117      1.0  0.32647  0.06422  0.21309  1.0000
  C   C118      1.0  0.99500  0.18894  0.05902  1.0000
  Fe  Fe13      1.0  0.27670  0.06158  0.81089  1.0000
  S   S25       1.0  0.24800  0.04755  0.80367  1.0000
  S   S26       1.0  0.29591  0.06370  0.76615  1.0000
  Fe  Fe14      1.0  0.26722  0.06701  0.88178  1.0000
  S   S27       1.0  0.23856  0.05290  0.87867  1.0000
  S   S28       1.0  0.27915  0.07769  0.92814  1.0000
  Fe  Fe15      1.0  0.25581  0.02989  0.84778  1.0000
  H   H201      1.0  0.14911  0.32599  0.75348  1.0000
  Fe  Fe16      1.0  0.23318  0.07215  0.83522  1.0000
  S   S29       1.0  0.20242  0.08923  0.82327  1.0000
  S   S30       1.0  0.28497  0.04317  0.85358  1.0000
  S   S31       1.0  0.26141  0.08718  0.83959  1.0000
  Fe  Fe17      1.0  0.12206  0.40057  0.64439  1.0000
  S   S32       1.0  0.10362  0.40010  0.60059  1.0000
  S   S33       1.0  0.14352  0.42369  0.65459  1.0000
  Fe  Fe18      1.0  0.10710  0.36198  0.67211  1.0000
  S   S34       1.0  0.08741  0.35894  0.63035  1.0000
  S   S35       1.0  0.10437  0.34471  0.71852  1.0000
  Fe  Fe19      1.0  0.11288  0.36713  0.60023  1.0000
  S   S36       1.0  0.11773  0.34960  0.55465  1.0000
  Fe  Fe20      1.0  0.07972  0.39209  0.63327  1.0000
  S   S37       1.0  0.04886  0.40794  0.63059  1.0000
  S   S38       1.0  0.13360  0.36775  0.64201  1.0000
  S   S39       1.0  0.09731  0.39497  0.67719  1.0000
  Fe  Fe21      1.0  0.12435  0.19528  0.84471  1.0000
  S   S40       1.0  0.12671  0.22797  0.85565  1.0000
  S   S41       1.0  0.15348  0.17458  0.85483  1.0000
  Fe  Fe22      1.0  0.07967  0.20483  0.82603  1.0000
  S   S42       1.0  0.07975  0.23755  0.83530  1.0000
  S   S43       1.0  0.05161  0.19411  0.80466  1.0000
  Fe  Fe23      1.0  0.10941  0.23542  0.81074  1.0000
  S   S44       1.0  0.11810  0.25396  0.76802  1.0000
  Fe  Fe24      1.0  0.09679  0.22752  0.87918  1.0000
  S   S45       1.0  0.08424  0.24009  0.92571  1.0000
  S   S46       1.0  0.10861  0.20278  0.79885  1.0000
  S   S47       1.0  0.09521  0.19469  0.87085  1.0000
  C   C119      1.0  0.03327  0.46520  0.69097  1.0000
  C   C120      1.0  0.02807  0.19427  0.82367  1.0000
  C   C121      1.0  0.02530  0.35746  0.60691  1.0000
  H   H202      1.0  0.03840  0.20114  0.86987  1.0000
  H   H203      1.0  0.01832  0.42841  0.68903  1.0000
  C   C122      1.0  0.09723  0.24008  0.96193  1.0000
  H   H204      1.0  0.17032  0.31453  0.73196  1.0000
  H   H205      1.0  0.21556  0.02995  0.94327  1.0000
  C   C123      1.0  0.00691  0.19695  0.87023  1.0000
  H   H206      1.0  0.18762  0.09152  0.94867  1.0000
  C   C124      1.0  0.01217  0.39438  0.63391  1.0000
  C   C125      1.0  0.03185  0.39059  0.62347  1.0000
  C   C126      1.0  0.03819  0.37241  0.60905  1.0000
  H   H207      1.0  0.00713  0.40856  0.64449  1.0000
  H   H208      1.0  0.05295  0.36999  0.59926  1.0000
  H   H209      1.0  0.15126  0.46592  0.54907  1.0000
  C   C127      1.0  0.12186  0.36092  0.51794  1.0000
  C   C128      1.0  0.13575  0.49192  0.67016  1.0000
  H   H210      1.0  0.02248  0.44193  0.63959  1.0000
  H   H211      1.0  0.12861  0.38910  0.53688  1.0000
  C   C129      1.0  0.11281  0.27916  0.75437  1.0000
  C   C130      1.0  0.11694  0.28360  0.72280  1.0000
  C   C131      1.0  0.11398  0.30337  0.71115  1.0000
  C   C132      1.0  0.10717  0.31917  0.73111  1.0000
  C   C133      1.0  0.10285  0.31474  0.76259  1.0000
  C   C134      1.0  0.10551  0.29491  0.77410  1.0000
  H   H212      1.0  0.12263  0.27162  0.70723  1.0000
  H   H213      1.0  0.11739  0.30640  0.68691  1.0000
  H   H214      1.0  0.09760  0.32675  0.77837  1.0000
  H   H215      1.0  0.10239  0.29189  0.79845  1.0000
  N   N8        1.0  0.13800  0.17993  0.97518  1.0000
  C   C135      1.0  0.11932  0.48250  0.65931  1.0000
  C   C136      1.0  0.12118  0.46152  0.65414  1.0000
  C   C137      1.0  0.13947  0.45002  0.65976  1.0000
  C   C138      1.0  0.15576  0.45965  0.66992  1.0000
  C   C139      1.0  0.15386  0.48028  0.67540  1.0000
  C   C140      1.0  0.11764  0.24210  0.96336  1.0000
  H   H216      1.0  0.10853  0.45429  0.64593  1.0000
  H   H217      1.0  0.16998  0.45108  0.67404  1.0000
  H   H218      1.0  0.21115  0.00831  0.91994  1.0000
  C   C141      1.0  0.18883  0.11277  0.83352  1.0000
  C   C142      1.0  0.16931  0.11744  0.82176  1.0000
  C   C143      1.0  0.15817  0.13603  0.82826  1.0000
  C   C144      1.0  0.16639  0.15040  0.84663  1.0000
  C   C145      1.0  0.18581  0.14566  0.85872  1.0000
  C   C146      1.0  0.19691  0.12704  0.85232  1.0000
  H   H219      1.0  0.16277  0.10658  0.80732  1.0000
  H   H220      1.0  0.14325  0.13921  0.81890  1.0000
  H   H221      1.0  0.19241  0.15654  0.87301  1.0000
  H   H222      1.0  0.21183  0.12381  0.86165  1.0000
  C   C147      1.0  0.26970  0.06970  0.96429  1.0000
  C   C148      1.0  0.25325  0.05869  0.96524  1.0000
  H   H223      1.0  0.05392  0.30749  0.61667  1.0000
  H   H224      1.0  0.24577  0.05537  0.94378  1.0000
  H   H225      1.0  0.16237  0.20750  0.89653  1.0000
  H   H226      1.0  0.20819  0.39776  0.68185  1.0000
  H   H227      1.0  0.18898  0.20420  0.72823  1.0000
  H   H228      1.0  0.03356  0.46615  0.71706  1.0000
  H   H229      1.0  0.04974  0.43509  0.69029  1.0000
  H   H230      1.0  0.13005  0.12074  0.95021  1.0000
  C   C149      1.0  0.24651  0.05177  0.99403  1.0000
  H   H231      1.0  0.09462  0.41375  0.77027  1.0000
  H   H232      1.0  0.08423  0.32419  0.55582  1.0000
  H   H233      1.0  0.07376  0.47144  0.68526  1.0000
  H   H234      1.0  0.17583  0.16525  0.70082  1.0000
  H   H235      1.0  0.17928  0.42029  0.82685  1.0000
  H   H236      1.0  0.17003  0.19225  0.66113  1.0000
  H   H237      1.0  0.19646  0.40167  0.80810  1.0000
  C   C150      1.0  0.30991  0.00612  0.90911  1.0000
  H   H238      1.0  0.17751  0.46715  0.54359  1.0000
  H   H239      1.0  0.14892  0.32590  0.71092  1.0000
  H   H240      1.0  0.27182  0.01894  0.98606  1.0000
  H   H241      1.0  0.24778  0.99568  0.92205  1.0000
  H   H242      1.0  0.99828  0.30285  0.52884  1.0000
  C   C151      1.0  0.18541  0.18687  0.66885  1.0000
  H   H243      1.0  0.05307  0.44947  0.65546  1.0000
  C   C152      1.0  0.01013  0.31027  0.69075  1.0000
  C   C153      1.0  0.29233  0.00963  0.93181  1.0000
  C   C154      1.0  0.00589  0.36095  0.61847  1.0000
  H   H244      1.0  0.28643  0.13683  0.77842  1.0000
  H   H245      1.0  0.10335  0.42221  0.73305  1.0000
  H   H246      1.0  0.13378  0.11041  0.98906  1.0000
  H   H247      1.0  0.17612  0.39420  0.83175  1.0000
  H   H248      1.0  0.31368  0.06461  0.70486  1.0000
  H   H249      1.0  0.07074  0.23745  0.98913  1.0000
  H   H250      1.0  0.05743  0.32840  0.50047  1.0000
  C   C155      1.0  0.08004  0.18552  0.96336  1.0000
  H   H251      1.0  0.29163  0.08292  0.99218  1.0000
  C   C156      1.0  0.21229  0.01411  0.94427  1.0000
  H   H252      1.0  0.03203  0.45257  0.58678  1.0000
  C   C157      1.0  0.14421  0.19275  0.94855  1.0000
  H   H253      1.0  0.00533  0.19937  0.89526  1.0000
  H   H254      1.0  0.02483  0.25378  0.83049  1.0000
  C   C158      1.0  0.10187  0.18391  0.95298  1.0000
  C   C159      1.0  0.16666  0.18991  0.93950  1.0000
  C   C160      1.0  0.24911  0.00178  0.94621  1.0000
  H   H255      1.0  0.15873  0.15440  0.96306  1.0000
  H   H256      1.0  0.01435  0.30736  0.66582  1.0000
  C   C161      1.0  0.03886  0.26605  0.87031  1.0000
  C   C162      1.0  0.17196  0.20665  0.91780  1.0000
  H   H257      1.0  0.00815  0.48821  0.73209  1.0000
  C   C163      1.0  0.28101  0.12021  0.73680  1.0000
  C   C164      1.0  0.99916  0.37952  0.63152  1.0000
  H   H258      1.0  0.18776  0.20373  0.91024  1.0000
  H   H259      1.0  0.01100  0.44279  0.72259  1.0000
  H   H260      1.0  0.13596  0.19000  0.92655  1.0000
  H   H261      1.0  0.13652  0.15624  0.94098  1.0000
  H   H262      1.0  0.03545  0.27679  0.88988  1.0000
  H   H263      1.0  0.28056  0.01965  0.91992  1.0000
  H   H264      1.0  0.16657  0.48728  0.68397  1.0000
  H   H265      1.0  0.10342  0.19641  0.93654  1.0000
  H   H266      1.0  0.10511  0.16957  0.94025  1.0000
  H   H267      1.0  0.17012  0.17553  0.92680  1.0000
  H   H268      1.0  0.00351  0.18377  0.98275  1.0000
  H   H269      1.0  0.01027  0.33503  0.72352  1.0000
  H   H270      1.0  0.19329  0.11729  0.94934  1.0000
  C   C165      1.0  0.32583  0.06248  0.72155  1.0000
  C   C166      1.0  0.19941  0.10154  0.95338  1.0000
  H   H271      1.0  0.09050  0.49003  0.58276  1.0000
  H   H272      1.0  0.25057  0.00773  0.75841  1.0000
  H   H273      1.0  0.01655  0.27946  0.83907  1.0000
  H   H274      1.0  0.08232  0.37300  0.49947  1.0000
  C   C167      1.0  0.32148  0.06072  0.75376  1.0000
  H   H275      1.0  0.12604  0.47878  0.58326  1.0000
  H   H276      1.0  0.08125  0.33756  0.50085  1.0000
  H   H277      1.0  0.12586  0.24388  0.94189  1.0000
  H   H278      1.0  0.01307  0.18712  0.78103  1.0000
  N   N9        1.0  0.04078  0.32844  0.70754  1.0000
  C   C168      1.0  0.04794  0.31249  0.73105  1.0000
  C   C169      1.0  0.05218  0.32510  0.67702  1.0000
  C   C170      1.0  0.04536  0.34827  0.72099  1.0000
  C   C171      1.0  0.01854  0.32959  0.70204  1.0000
  H   H279      1.0  0.08346  0.44553  0.68768  1.0000
  C   C172      1.0  0.03843  0.31445  0.76422  1.0000
  C   C173      1.0  0.04202  0.36657  0.69868  1.0000
  C   C174      1.0  0.05825  0.30313  0.66690  1.0000
  C   C175      1.0  0.06600  0.30196  0.63319  1.0000
  H   H280      1.0  0.28688  0.13103  0.72043  1.0000
  C   C176      1.0  0.04582  0.29660  0.78480  1.0000
  C   C177      1.0  0.04741  0.38550  0.71507  1.0000
  H   H281      1.0  0.06442  0.31218  0.73408  1.0000
  H   H282      1.0  0.04564  0.29736  0.72241  1.0000
  H   H283      1.0  0.04370  0.33294  0.65738  1.0000
  H   H284      1.0  0.06663  0.33184  0.67835  1.0000
  H   H285      1.0  0.06119  0.34725  0.72908  1.0000
  H   H286      1.0  0.03605  0.35221  0.74210  1.0000
  H   H287      1.0  0.28417  0.10485  0.72711  1.0000
  C   C178      1.0  0.31340  0.11645  0.76768  1.0000
  H   H288      1.0  0.07602  0.19969  0.97627  1.0000
  H   H289      1.0  0.30594  0.17891  0.80915  1.0000
  H   H290      1.0  0.04256  0.32803  0.77635  1.0000
  H   H291      1.0  0.02193  0.31508  0.76287  1.0000
  H   H292      1.0  0.02619  0.36930  0.69129  1.0000
  H   H293      1.0  0.05142  0.36447  0.67731  1.0000
  H   H294      1.0  0.07046  0.29637  0.68232  1.0000
  H   H295      1.0  0.04570  0.29382  0.66844  1.0000
  C   C179      1.0  0.14234  0.15842  0.96512  1.0000
  H   H296      1.0  0.30003  0.00878  0.76123  1.0000
  H   H297      1.0  0.07885  0.31094  0.63054  1.0000
  H   H298      1.0  0.19767  0.01353  0.95612  1.0000
  C   C180      1.0  0.12702  0.38048  0.51574  1.0000
  H   H299      1.0  0.16995  0.22126  0.93019  1.0000
  H   H300      1.0  0.06236  0.29514  0.78666  1.0000
  H   H301      1.0  0.03954  0.29877  0.80880  1.0000
  H   H302      1.0  0.04107  0.28254  0.77494  1.0000
  H   H303      1.0  0.03771  0.38895  0.73587  1.0000
  H   H304      1.0  0.06329  0.38371  0.72257  1.0000
  H   H305      1.0  0.04524  0.39827  0.69855  1.0000
  N   N10       1.0  0.01311  0.46010  0.67994  1.0000
  C   C181      1.0  0.18509  0.17791  0.70180  1.0000
  H   H306      1.0  0.07108  0.28621  0.62711  1.0000
  H   H307      1.0  0.23397  0.04300  0.99434  1.0000
  H   H308      1.0  0.22877  0.00753  0.98673  1.0000
  H   H309      1.0  0.17653  0.18991  0.96034  1.0000
  H   H310      1.0  0.18692  0.40986  0.66084  1.0000
  C   C182      1.0  0.06199  0.34778  0.53933  1.0000
  H   H311      1.0  0.19479  0.19952  0.66838  1.0000
  H   H312      1.0  0.31886  0.12610  0.74920  1.0000
  C   C183      1.0  0.16563  0.46648  0.56152  1.0000
  C   C184      1.0  0.06841  0.32987  0.56031  1.0000
  H   H313      1.0  0.11540  0.42864  0.76911  1.0000
  C   C185      1.0  0.13451  0.14256  0.98679  1.0000
  H   H314      1.0  0.02579  0.47807  0.57449  1.0000
  H   H315      1.0  0.30519  0.99908  0.88706  1.0000
  H   H316      1.0  0.03614  0.48029  0.68269  1.0000
  H   H317      1.0  0.14027  0.20873  0.95432  1.0000
  H   H318      1.0  0.18428  0.44659  0.59257  1.0000
  H   H319      1.0  0.05854  0.38560  0.50734  1.0000
  H   H320      1.0  0.21179  0.09774  0.93644  1.0000
  H   H321      1.0  0.04611  0.35259  0.54451  1.0000
  H   H322      1.0  0.07101  0.36003  0.54601  1.0000
  H   H323      1.0  0.16408  0.20316  0.71605  1.0000
  C   C186      1.0  0.05139  0.45029  0.68136  1.0000
  H   H324      1.0  0.20266  0.42453  0.68345  1.0000
  H   H325      1.0  0.31986  0.01997  0.78030  1.0000
  C   C187      1.0  0.02098  0.46592  0.58939  1.0000
  H   H326      1.0  0.17094  0.43412  0.56293  1.0000
  C   C188      1.0  0.22856  0.00149  0.96252  1.0000
  H   H327      1.0  0.20066  0.17215  0.70778  1.0000
  H   H328      1.0  0.06703  0.33448  0.58526  1.0000
  H   H329      1.0  0.05879  0.31768  0.55621  1.0000
  N   N11       1.0  0.17201  0.18617  0.75804  1.0000
  C   C189      1.0  0.15612  0.17190  0.75620  1.0000
  C   C190      1.0  0.19046  0.17654  0.77469  1.0000
  C   C191      1.0  0.16363  0.20385  0.77767  1.0000
  C   C192      1.0  0.17718  0.19386  0.72617  1.0000
  C   C193      1.0  0.13753  0.17870  0.73582  1.0000
  C   C194      1.0  0.17795  0.22016  0.78374  1.0000
  C   C195      1.0  0.19631  0.15385  0.76946  1.0000
  C   C196      1.0  0.21698  0.14720  0.78286  1.0000
  C   C197      1.0  0.12171  0.16407  0.73882  1.0000
  C   C198      1.0  0.16999  0.23461  0.80956  1.0000
  H   H330      1.0  0.15102  0.16850  0.78037  1.0000
  H   H331      1.0  0.16198  0.15726  0.74622  1.0000
  H   H332      1.0  0.20369  0.18437  0.76842  1.0000
  H   H333      1.0  0.18874  0.17821  0.80070  1.0000
  H   H334      1.0  0.15857  0.19863  0.80087  1.0000
  H   H335      1.0  0.15009  0.21178  0.76670  1.0000
  H   H336      1.0  0.13055  0.19369  0.74244  1.0000
  H   H337      1.0  0.14170  0.17923  0.71064  1.0000
  H   H338      1.0  0.17947  0.22905  0.76207  1.0000
  H   H339      1.0  0.19301  0.21371  0.79116  1.0000
  H   H340      1.0  0.18552  0.14521  0.78173  1.0000
  H   H341      1.0  0.19635  0.14956  0.74439  1.0000
  H   H342      1.0  0.22866  0.15421  0.76970  1.0000
  H   H343      1.0  0.21773  0.15128  0.80810  1.0000
  H   H344      1.0  0.22005  0.13070  0.78087  1.0000
  H   H345      1.0  0.11688  0.16293  0.76366  1.0000
  H   H346      1.0  0.10843  0.16939  0.72453  1.0000
  H   H347      1.0  0.12763  0.14900  0.73033  1.0000
  H   H348      1.0  0.18005  0.24656  0.81243  1.0000
  H   H349      1.0  0.15489  0.24172  0.80344  1.0000
  H   H350      1.0  0.16932  0.22660  0.83228  1.0000
  N   N12       1.0  0.15846  0.38537  0.73709  1.0000
  C   C199      1.0  0.14067  0.40074  0.73336  1.0000
  C   C200      1.0  0.17332  0.38838  0.71137  1.0000
  C   C201      1.0  0.15126  0.36504  0.73211  1.0000
  C   C202      1.0  0.16804  0.38589  0.76918  1.0000
  C   C203      1.0  0.16717  0.40653  0.78590  1.0000
  C   C204      1.0  0.12239  0.39767  0.75436  1.0000
  C   C205      1.0  0.16759  0.34698  0.73161  1.0000
  C   C206      1.0  0.18286  0.40834  0.71166  1.0000
  C   C207      1.0  0.19595  0.41015  0.68265  1.0000
  C   C208      1.0  0.18060  0.40552  0.81491  1.0000
  C   C209      1.0  0.10809  0.41678  0.75679  1.0000
  C   C210      1.0  0.15836  0.32718  0.73208  1.0000
  H   H351      1.0  0.13531  0.40087  0.70864  1.0000
  H   H352      1.0  0.14476  0.41609  0.73728  1.0000
  H   H353      1.0  0.18620  0.37671  0.71241  1.0000
  H   H354      1.0  0.16622  0.38680  0.68791  1.0000
  H   H355      1.0  0.14275  0.36473  0.70970  1.0000
  H   H356      1.0  0.14054  0.36184  0.75089  1.0000
  H   H357      1.0  0.16101  0.37594  0.78585  1.0000
  H   H358      1.0  0.18397  0.37959  0.76780  1.0000
  H   H359      1.0  0.15176  0.41136  0.79391  1.0000
  H   H360      1.0  0.17174  0.41841  0.77043  1.0000
  H   H361      1.0  0.11398  0.38589  0.74400  1.0000
  H   H362      1.0  0.12695  0.39280  0.77840  1.0000
  H   H363      1.0  0.17769  0.34728  0.75215  1.0000
  H   H364      1.0  0.17657  0.34699  0.70974  1.0000
  H   H365      1.0  0.17148  0.42143  0.71181  1.0000
  H   H366      1.0  0.19272  0.40896  0.73243  1.0000
  H   H367      1.0  0.15470  0.11811  0.96740  1.0000
  C   C211      1.0  0.02568  0.19798  0.85589  1.0000
  H   H368      1.0  0.03031  0.34320  0.59636  1.0000
  H   H369      1.0  0.15774  0.44505  0.59648  1.0000
  H   H370      1.0  0.19173  0.17531  0.65197  1.0000
  H   H371      1.0  0.99809  0.23499  0.82363  1.0000
  C   C212      1.0  0.13856  0.12170  0.97244  1.0000
  H   H372      1.0  0.29758  0.01756  0.95259  1.0000
  C   C213      1.0  0.20731  0.09871  0.98693  1.0000
  C   C214      1.0  0.16995  0.44691  0.57956  1.0000
  C   C215      1.0  0.02049  0.26459  0.84966  1.0000
  H   H373      1.0  0.05104  0.27141  0.85609  1.0000
  C   C216      1.0  0.01138  0.19009  0.80592  1.0000
  H   H374      1.0  0.03089  0.36945  0.50572  1.0000
  H   H375      1.0  0.10517  0.49129  0.65550  1.0000
  C   C217      1.0  0.29042  0.12150  0.76932  1.0000
  C   C218      1.0  0.07086  0.45662  0.69466  1.0000
  C   C219      1.0  0.27896  0.07428  0.99264  1.0000
  C   C220      1.0  0.32237  0.17615  0.80604  1.0000
  H   H376      1.0  0.21370  0.08296  0.98903  1.0000
  C   C221      1.0  0.11606  0.18560  0.98126  1.0000
  H   H377      1.0  0.11818  0.14534  0.99049  1.0000
  H   H378      1.0  0.30600  0.14256  0.81910  1.0000
  C   C222      1.0  0.00817  0.44156  0.69694  1.0000
  H   H379      1.0  0.07027  0.18539  0.94234  1.0000
  C   C223      1.0  0.01974  0.47276  0.62364  1.0000
  C   C224      1.0  0.06502  0.34212  0.50423  1.0000
  H   H380      1.0  0.18094  0.48500  0.59215  1.0000
  H   H381      1.0  0.04421  0.25120  0.88026  1.0000
  H   H382      1.0  0.25137  0.01774  0.94260  1.0000
  H   H383      1.0  0.07031  0.45729  0.72072  1.0000
  C   C225      1.0  0.01310  0.45602  0.64509  1.0000
  C   C226      1.0  0.08661  0.23854  0.99008  1.0000
  C   C227      1.0  0.99783  0.47755  0.68661  1.0000
  H   H384      1.0  0.99885  0.30666  0.57075  1.0000
  H   H385      1.0  0.26458  0.12369  0.73861  1.0000
  H   H386      1.0  0.14322  0.24367  0.99358  1.0000
  H   H387      1.0  0.00882  0.48628  0.62475  1.0000
  H   H388      1.0  0.07728  0.17274  0.97864  1.0000
  H   H389      1.0  0.31628  0.10104  0.75816  1.0000
  H   H390      1.0  0.15673  0.48178  0.60555  1.0000
  H   H391      1.0  0.32058  0.15601  0.76750  1.0000
  H   H392      1.0  0.21931  0.10869  0.98967  1.0000
  H   H393      1.0  0.32099  0.07043  0.86102  1.0000
  H   H394      1.0  0.28350  0.11073  0.78448  1.0000
  H   H395      1.0  0.01550  0.29716  0.70520  1.0000
  H   H396      1.0  0.11371  0.20137  0.98945  1.0000
  H   H397      1.0  0.01391  0.34094  0.68378  1.0000
  H   H398      1.0  0.10008  0.49018  0.54318  1.0000
  H   H399      1.0  0.03462  0.47703  0.63031  1.0000
  C   C228      1.0  0.16530  0.48472  0.58395  1.0000
  C   C229      1.0  0.31587  0.00614  0.76870  1.0000
  H   H400      1.0  0.32236  0.99643  0.92002  1.0000
  H   H401      1.0  0.99793  0.45336  0.63708  1.0000
  C   C230      1.0  0.27086  0.00305  0.99219  1.0000
  H   H402      1.0  0.00616  0.46224  0.58104  1.0000
  C   C231      1.0  0.12742  0.24204  0.99267  1.0000
  H   H403      1.0  0.31535  0.02066  0.90307  1.0000
  H   H404      1.0  0.30084  0.10931  0.82780  1.0000
  H   H405      1.0  0.32585  0.01314  0.72267  1.0000
  H   H406      1.0  0.00198  0.49124  0.67481  1.0000
  H   H407      1.0  0.27070  0.99797  0.73311  1.0000
  C   C232      1.0  0.31908  0.08520  0.87293  1.0000
  C   C233      1.0  0.00301  0.25771  0.86927  1.0000
  H   H408      1.0  0.32663  0.11504  0.86689  1.0000
  H   H409      1.0  0.30296  0.08954  0.87703  1.0000
  S   S48       1.0  0.26320  0.99615  0.85520  1.0000
  H   H410      1.0  0.31590  0.08902  0.81053  1.0000
  N   N13       1.0  0.32471  0.11799  0.79809  1.0000
  C   C234      1.0  0.31650  0.10400  0.82138  1.0000
  H   H411      1.0  0.32668  0.08380  0.89611  1.0000
  C   C235      1.0  0.32180  0.13876  0.81177  1.0000
  C   C236      1.0  0.32789  0.10098  0.85306  1.0000
  H   H412      1.0  0.00795  0.24222  0.87744  1.0000
  H   H413      1.0  0.00176  0.26723  0.89072  1.0000
  H   H414      1.0  0.30349  0.99517  0.99619  1.0000
  H   H415      1.0  0.32729  0.18809  0.79080  1.0000
  C   C237      1.0  0.32800  0.15578  0.79074  1.0000
  Fe  Fe25      1.0  0.25942  0.88793  0.12612  1.0000
  S   S49       1.0  0.23084  0.88703  0.15318  1.0000
  S   S50       1.0  0.25666  0.89835  0.07543  1.0000
  Fe  Fe26      1.0  0.28567  0.87789  0.18469  1.0000
  S   S51       1.0  0.25874  0.87566  0.21510  1.0000
  H   H416      1.0  0.00717  0.69724  0.03491  1.0000
  Fe  Fe27      1.0  0.24560  0.85889  0.17499  1.0000
  S   S52       1.0  0.23335  0.82790  0.17659  1.0000
  Fe  Fe28      1.0  0.24628  0.90390  0.19014  1.0000
  S   S53       1.0  0.23158  0.93004  0.21831  1.0000
  S   S54       1.0  0.27379  0.85914  0.14604  1.0000
  S   S55       1.0  0.27366  0.90673  0.16174  1.0000
  Fe  Fe29      1.0  0.13512  0.76110  0.15749  1.0000
  S   S56       1.0  0.15151  0.73046  0.16242  1.0000
  S   S57       1.0  0.14871  0.79109  0.16530  1.0000
  Fe  Fe30      1.0  0.09571  0.74299  0.13849  1.0000
  S   S58       1.0  0.11022  0.71143  0.14134  1.0000
  S   S59       1.0  0.06372  0.74787  0.11957  1.0000
  Fe  Fe31      1.0  0.12406  0.72098  0.18630  1.0000
  S   S60       1.0  0.12133  0.70545  0.23404  1.0000
  Fe  Fe32      1.0  0.13607  0.72363  0.11704  1.0000
  S   S61       1.0  0.15523  0.70764  0.07924  1.0000
  S   S62       1.0  0.10824  0.75235  0.18456  1.0000
  S   S63       1.0  0.12090  0.75452  0.11103  1.0000
  Fe  Fe33      1.0  0.10136  0.59442  0.38678  1.0000
  S   S64       1.0  0.13127  0.58336  0.36619  1.0000
  S   S65       1.0  0.09326  0.60747  0.43494  1.0000
  Fe  Fe34      1.0  0.07947  0.58186  0.32883  1.0000
  S   S66       1.0  0.10735  0.56934  0.30449  1.0000
  S   S67       1.0  0.05018  0.57889  0.30561  1.0000
  Fe  Fe35      1.0  0.11618  0.55620  0.35158  1.0000
  C   C238      1.0  0.16338  0.68918  0.02350  1.0000
  Fe  Fe36      1.0  0.11928  0.59786  0.32074  1.0000
  S   S68       1.0  0.13519  0.61481  0.28290  1.0000
  S   S69       1.0  0.08716  0.56678  0.37454  1.0000
  S   S70       1.0  0.09054  0.61080  0.34269  1.0000
  C   C239      1.0  0.03339  0.57392  0.33510  1.0000
  C   C240      1.0  0.03357  0.58367  0.36418  1.0000
  C   C241      1.0  0.01949  0.58008  0.38723  1.0000
  H   H417      1.0  0.20941  0.72770  0.01901  1.0000
  C   C242      1.0  0.16324  0.50462  0.30462  1.0000
  C   C243      1.0  0.01986  0.55995  0.32962  1.0000
  H   H418      1.0  0.04432  0.59420  0.36874  1.0000
  H   H419      1.0  0.01915  0.58811  0.40927  1.0000
  C   C244      1.0  0.13557  0.71487  0.02137  1.0000
  H   H420      1.0  0.26759  0.96651  0.30276  1.0000
  C   C245      1.0  0.04195  0.74249  0.14022  1.0000
  C   C246      1.0  0.04197  0.73976  0.17277  1.0000
  C   C247      1.0  0.02435  0.73572  0.18840  1.0000
  H   H421      1.0  0.03775  0.70202  0.00129  1.0000
  H   H422      1.0  0.27339  0.83016  0.21270  1.0000
  C   C248      1.0  0.02404  0.74136  0.12359  1.0000
  H   H423      1.0  0.05553  0.74098  0.18589  1.0000
  H   H424      1.0  0.02455  0.73370  0.21360  1.0000
  C   C249      1.0  0.08953  0.66269  0.18680  1.0000
  H   H425      1.0  0.02377  0.74373  0.09851  1.0000
  C   C250      1.0  0.12526  0.68007  0.24680  1.0000
  C   C251      1.0  0.11628  0.67459  0.27497  1.0000
  C   C252      1.0  0.11879  0.65470  0.28601  1.0000
  C   C253      1.0  0.13075  0.64001  0.26942  1.0000
  C   C254      1.0  0.13987  0.64553  0.24140  1.0000
  C   C255      1.0  0.13710  0.66537  0.23007  1.0000
  H   H426      1.0  0.10721  0.68575  0.28834  1.0000
  H   H427      1.0  0.11180  0.65079  0.30771  1.0000
  H   H428      1.0  0.14926  0.63436  0.22842  1.0000
  H   H429      1.0  0.14430  0.66928  0.20856  1.0000
  H   H430      1.0  0.20577  0.88580  0.05360  1.0000
  C   C256      1.0  0.10631  0.59954  0.46958  1.0000
  C   C257      1.0  0.12505  0.58847  0.46867  1.0000
  H   H431      1.0  0.08093  0.56281  0.46523  1.0000
  H   H432      1.0  0.13204  0.58468  0.44627  1.0000
  H   H433      1.0  0.32554  0.94596  0.27156  1.0000
  C   C258      1.0  0.15064  0.70380  0.03878  1.0000
  H   H434      1.0  0.19273  0.80871  0.30864  1.0000
  H   H435      1.0  0.12590  0.72641  0.03297  1.0000
  C   C259      1.0  0.26077  0.82971  0.25895  1.0000
  C   C260      1.0  0.20959  0.81818  0.17249  1.0000
  C   C261      1.0  0.19141  0.83032  0.17313  1.0000
  C   C262      1.0  0.17309  0.82175  0.17095  1.0000
  C   C263      1.0  0.17252  0.80096  0.16753  1.0000
  C   C264      1.0  0.19073  0.78887  0.16618  1.0000
  C   C265      1.0  0.20903  0.79739  0.16897  1.0000
  H   H436      1.0  0.19142  0.84629  0.17590  1.0000
  H   H437      1.0  0.15920  0.83136  0.17196  1.0000
  H   H438      1.0  0.19073  0.77292  0.16310  1.0000
  H   H439      1.0  0.22291  0.78776  0.16828  1.0000
  H   H440      1.0  0.05502  0.51914  0.38622  1.0000
  H   H441      1.0  0.07272  0.53361  0.42882  1.0000
  C   C266      1.0  0.26067  0.88293  0.04202  1.0000
  C   C267      1.0  0.26938  0.86322  0.04415  1.0000
  C   C268      1.0  0.25484  0.89076  0.01249  1.0000
  H   H442      1.0  0.27413  0.85718  0.06676  1.0000
  H   H443      1.0  0.03119  0.52990  0.40127  1.0000
  C   C269      1.0  0.03585  0.50485  0.28891  1.0000
  C   C270      1.0  0.24254  0.96484  0.18867  1.0000
  C   C271      1.0  0.23183  0.95621  0.21260  1.0000
  C   C272      1.0  0.22082  0.96880  0.23389  1.0000
  H   H444      1.0  0.30937  0.91899  0.22540  1.0000
  H   H445      1.0  0.08772  0.60553  0.26308  1.0000
  H   H446      1.0  0.25111  0.95529  0.17205  1.0000
  H   H447      1.0  0.21253  0.96240  0.25243  1.0000
  H   H448      1.0  0.09154  0.67738  0.17605  1.0000
  C   C273      1.0  0.27286  0.98284  0.25984  1.0000
  H   H449      1.0  0.20306  0.74945  0.04366  1.0000
  N   N14       1.0  0.15341  0.75984  0.26708  1.0000
  C   C274      1.0  0.14425  0.77496  0.24370  1.0000
  C   C275      1.0  0.16768  0.74471  0.25002  1.0000
  C   C276      1.0  0.13674  0.74884  0.28010  1.0000
  C   C277      1.0  0.16372  0.76929  0.29402  1.0000
  C   C278      1.0  0.17332  0.78886  0.28690  1.0000
  C   C279      1.0  0.12621  0.78906  0.25601  1.0000
  C   C280      1.0  0.14316  0.73047  0.30113  1.0000
  C   C281      1.0  0.18585  0.75276  0.23405  1.0000
  C   C282      1.0  0.18653  0.79443  0.31405  1.0000
  C   C283      1.0  0.12125  0.80693  0.23430  1.0000
  C   C284      1.0  0.12535  0.72365  0.31888  1.0000
  H   H450      1.0  0.13901  0.76721  0.22262  1.0000
  H   H451      1.0  0.15546  0.78432  0.23425  1.0000
  H   H452      1.0  0.17420  0.73296  0.26639  1.0000
  H   H453      1.0  0.15943  0.73680  0.23190  1.0000
  H   H454      1.0  0.12753  0.74360  0.26057  1.0000
  H   H455      1.0  0.12637  0.75910  0.29445  1.0000
  H   H456      1.0  0.15311  0.77310  0.31373  1.0000
  H   H457      1.0  0.17546  0.75830  0.30421  1.0000
  H   H458      1.0  0.16158  0.80149  0.28351  1.0000
  H   H459      1.0  0.18254  0.78781  0.26536  1.0000
  H   H460      1.0  0.11273  0.78086  0.25716  1.0000
  H   H461      1.0  0.12909  0.79470  0.27990  1.0000
  H   H462      1.0  0.15456  0.73387  0.31860  1.0000
  H   H463      1.0  0.14942  0.71768  0.28640  1.0000
  H   H464      1.0  0.18115  0.76497  0.21745  1.0000
  H   H465      1.0  0.19591  0.75812  0.25208  1.0000
  H   H466      1.0  0.28882  0.98062  0.02092  1.0000
  H   H467      1.0  0.19918  0.78269  0.31751  1.0000
  H   H468      1.0  0.06833  0.78194  0.03559  1.0000
  H   H469      1.0  0.11659  0.80181  0.21086  1.0000
  H   H470      1.0  0.10875  0.81699  0.24433  1.0000
  H   H471      1.0  0.13436  0.81553  0.23145  1.0000
  H   H472      1.0  0.00023  0.56246  0.24296  1.0000
  H   H473      1.0  0.18922  0.86779  0.01596  1.0000
  H   H474      1.0  0.11330  0.72069  0.30222  1.0000
  H   H475      1.0  0.02600  0.62701  0.26847  1.0000
  C   C285      1.0  0.19656  0.85892  0.07721  1.0000
  C   C286      1.0  0.20449  0.87977  0.07766  1.0000
  H   H476      1.0  0.13007  0.70963  0.33179  1.0000
  H   H477      1.0  0.17514  0.68068  0.03656  1.0000
  H   H478      1.0  0.11865  0.66266  0.14048  1.0000
  C   C287      1.0  0.19049  0.89487  0.09606  1.0000
  H   H479      1.0  0.23709  0.84998  0.08334  1.0000
  H   H480      1.0  0.19390  0.85493  0.10215  1.0000
  H   H481      1.0  0.21939  0.87901  0.08875  1.0000
  H   H482      1.0  0.18250  0.82473  0.10228  1.0000
  H   H483      1.0  0.05130  0.50183  0.33290  1.0000
  H   H484      1.0  0.30053  0.81321  0.17990  1.0000
  H   H485      1.0  0.02297  0.51500  0.29737  1.0000
  H   H486      1.0  0.06390  0.63196  0.19307  1.0000
  H   H487      1.0  0.26782  0.82713  0.09793  1.0000
  H   H488      1.0  0.08192  0.70227  0.20747  1.0000
  H   H489      1.0  0.18885  0.88983  0.12068  1.0000
  H   H490      1.0  0.19680  0.90949  0.09659  1.0000
  H   H491      1.0  0.17557  0.89698  0.08474  1.0000
  H   H492      1.0  0.25012  0.99259  0.16780  1.0000
  C   C288      1.0  0.07603  0.55477  0.48631  1.0000
  H   H493      1.0  0.05117  0.56417  0.43725  1.0000
  C   C289      1.0  0.09507  0.64680  0.16097  1.0000
  C   C290      1.0  0.02154  0.72461  0.02848  1.0000
  H   H494      1.0  0.27886  0.83617  0.01861  1.0000
  H   H495      1.0  0.22613  0.83649  0.01792  1.0000
  C   C291      1.0  0.08107  0.63277  0.23634  1.0000
  H   H496      1.0  0.19061  0.72725  0.04895  1.0000
  H   H497      1.0  0.01999  0.61200  0.30007  1.0000
  C   C292      1.0  0.24217  0.81881  0.07156  1.0000
  H   H498      1.0  0.07978  0.67376  0.24473  1.0000
  H   H499      1.0  0.21120  0.74255  0.20470  1.0000
  H   H500      1.0  0.14961  0.57446  0.49603  1.0000
  C   C293      1.0  0.29772  0.82250  0.24672  1.0000
  C   C294      1.0  0.07633  0.61192  0.24599  1.0000
  C   C295      1.0  0.04181  0.71382  0.01768  1.0000
  H   H501      1.0  0.17758  0.54812  0.49096  1.0000
  H   H502      1.0  0.22328  0.83481  0.10675  1.0000
  H   H503      1.0  0.25863  0.99246  0.26299  1.0000
  H   H504      1.0  0.29845  0.81570  0.27055  1.0000
  C   C296      1.0  0.00646  0.73712  0.13914  1.0000
  H   H505      1.0  0.08273  0.70693  0.01490  1.0000
  H   H506      1.0  0.11490  0.54647  0.46449  1.0000
  C   C297      1.0  0.11655  0.64762  0.14985  1.0000
  H   H507      1.0  0.32110  0.86970  0.31538  1.0000
  H   H508      1.0  0.24551  0.83007  0.24887  1.0000
  H   H509      1.0  0.18918  0.73047  0.19656  1.0000
  H   H510      1.0  0.00256  0.68338  0.16751  1.0000
  C   C298      1.0  0.27610  0.82136  0.23458  1.0000
  C   C299      1.0  0.06527  0.64254  0.21289  1.0000
  H   H511      1.0  0.10104  0.66073  0.20547  1.0000
  H   H512      1.0  0.02337  0.73800  0.04284  1.0000
  H   H513      1.0  0.05069  0.64333  0.22528  1.0000
  H   H514      1.0  0.18147  0.86070  0.06627  1.0000
  H   H515      1.0  0.25873  0.95568  0.26741  1.0000
  N   N15       1.0  0.20985  0.84242  0.06140  1.0000
  S   S71       1.0  0.31872  0.87516  0.19951  1.0000
  H   H516      1.0  0.08520  0.64947  0.14022  1.0000
  H   H517      1.0  0.30339  0.87398  0.26417  1.0000
  C   C300      1.0  0.05654  0.53259  0.43231  1.0000
  H   H518      1.0  0.29916  0.78711  0.21389  1.0000
  H   H519      1.0  0.09433  0.74332  0.01780  1.0000
  H   H520      1.0  0.00316  0.65158  0.24586  1.0000
  H   H521      1.0  0.31049  0.93336  0.18999  1.0000
  H   H522      1.0  0.24798  0.90597  0.01082  1.0000
  H   H523      1.0  0.01815  0.70649  0.07027  1.0000
  H   H524      1.0  0.05779  0.68266  0.16312  1.0000
  S   S72       1.0  0.12749  0.52410  0.36457  1.0000
  H   H525      1.0  0.24915  0.82161  0.04863  1.0000
  H   H526      1.0  0.06183  0.59215  0.47690  1.0000
  H   H527      1.0  0.12717  0.64407  0.16952  1.0000
  H   H528      1.0  0.18913  0.78544  0.06473  1.0000
  C   C301      1.0  0.06247  0.74138  0.02614  1.0000
  H   H529      1.0  0.18397  0.82937  0.04406  1.0000
  H   H530      1.0  0.01840  0.66835  0.14056  1.0000
  H   H531      1.0  0.04934  0.54562  0.38642  1.0000
  H   H532      1.0  0.26157  0.82015  0.28024  1.0000
  H   H533      1.0  0.27460  0.97909  0.23454  1.0000
  H   H534      1.0  0.29957  0.83863  0.25022  1.0000
  H   H535      1.0  0.11943  0.73520  0.33607  1.0000
  C   C302      1.0  0.19201  0.81421  0.08716  1.0000
  H   H536      1.0  0.03067  0.55174  0.44927  1.0000
  H   H537      1.0  0.17774  0.79640  0.33612  1.0000
  H   H538      1.0  0.04909  0.70587  0.03832  1.0000
  C   C303      1.0  0.06583  0.71296  0.24855  1.0000
  H   H539      1.0  0.25290  0.81045  0.11852  1.0000
  C   C304      1.0  0.06777  0.69971  0.21930  1.0000
  H   H540      1.0  0.99518  0.71879  0.05496  1.0000
  H   H541      1.0  0.07825  0.70868  0.26516  1.0000
  H   H542      1.0  0.01074  0.76294  0.26111  1.0000
  H   H543      1.0  0.12187  0.52481  0.48838  1.0000
  C   C305      1.0  0.00989  0.71087  0.04834  1.0000
  H   H544      1.0  0.17493  0.52259  0.48066  1.0000
  C   C306      1.0  0.06730  0.67740  0.22797  1.0000
  H   H545      1.0  0.05535  0.70483  0.20339  1.0000
  N   N16       1.0  0.06894  0.66290  0.20079  1.0000
  H   H546      1.0  0.02296  0.69388  0.14872  1.0000
  C   C307      1.0  0.19819  0.73635  0.21560  1.0000
  C   C308      1.0  0.10652  0.50370  0.32109  1.0000
  H   H547      1.0  0.03743  0.59265  0.46024  1.0000
  C   C309      1.0  0.05381  0.66905  0.17555  1.0000
  H   H548      1.0  0.12008  0.63648  0.13087  1.0000
  C   C310      1.0  0.03174  0.67287  0.18648  1.0000
  C   C311      1.0  0.31946  0.87381  0.26508  1.0000
  H   H549      1.0  0.05414  0.65734  0.15702  1.0000
  H   H550      1.0  0.02643  0.65898  0.19579  1.0000
  H   H551      1.0  0.02976  0.68451  0.20499  1.0000
  H   H552      1.0  0.05352  0.67594  0.24184  1.0000
  H   H553      1.0  0.06656  0.72877  0.24166  1.0000
  H   H554      1.0  0.04896  0.64828  0.34018  1.0000
  H   H555      1.0  0.09625  0.63110  0.22598  1.0000
  H   H556      1.0  0.22690  0.86090  0.03238  1.0000
  H   H557      1.0  0.17590  0.78933  0.10128  1.0000
  H   H558      1.0  0.30169  0.94558  0.22570  1.0000
  H   H559      1.0  0.05134  0.71174  0.26045  1.0000
  C   C312      1.0  0.00111  0.59269  0.26018  1.0000
  H   H560      1.0  0.08145  0.64183  0.25807  1.0000
  C   C313      1.0  0.00565  0.56639  0.38140  1.0000
  C   C314      1.0  0.05096  0.51805  0.27550  1.0000
  H   H561      1.0  0.31691  0.84434  0.13911  1.0000
  H   H562      1.0  0.02141  0.65756  0.30346  1.0000
  H   H563      1.0  0.09391  0.63146  0.16971  1.0000
  H   H564      1.0  0.16853  0.75268  0.02142  1.0000
  C   C315      1.0  0.11638  0.50315  0.35005  1.0000
  H   H565      1.0  0.28503  0.95319  0.27581  1.0000
  H   H566      1.0  0.04386  0.52770  0.25663  1.0000
  H   H567      1.0  0.30462  0.98316  0.26833  1.0000
  H   H568      1.0  0.07672  0.60184  0.22527  1.0000
  H   H569      1.0  0.06147  0.61248  0.25737  1.0000
  C   C316      1.0  0.22787  0.83721  0.08202  1.0000
  H   H570      1.0  0.16681  0.51695  0.32037  1.0000
  N   N17       1.0  0.05626  0.72655  0.00233  1.0000
  H   H571      1.0  0.31612  0.98618  0.16069  1.0000
  H   H572      1.0  0.06399  0.50876  0.26537  1.0000
  C   C317      1.0  0.31132  0.82141  0.19332  1.0000
  C   C318      1.0  0.08188  0.77111  0.03741  1.0000
  H   H573      1.0  0.01966  0.53050  0.48326  1.0000
  H   H574      1.0  0.05447  0.63760  0.30193  1.0000
  H   H575      1.0  0.03075  0.49569  0.26938  1.0000
  H   H576      1.0  0.17273  0.50472  0.28330  1.0000
  H   H577      1.0  0.05426  0.51843  0.44435  1.0000
  C   C319      1.0  0.31257  0.93369  0.21588  1.0000
  H   H578      1.0  0.20377  0.72386  0.23135  1.0000
  H   H579      1.0  0.08750  0.52377  0.47265  1.0000
  C   C320      1.0  0.00636  0.55583  0.35306  1.0000
  C   C321      1.0  0.27105  0.96339  0.27762  1.0000
  H   H580      1.0  0.20524  0.80822  0.10095  1.0000
  C   C322      1.0  0.00655  0.73425  0.17169  1.0000
  C   C323      1.0  0.04457  0.63725  0.32273  1.0000
  C   C324      1.0  0.27210  0.85141  0.01687  1.0000
  H   H581      1.0  0.04677  0.62221  0.33354  1.0000
  C   C325      1.0  0.18009  0.79670  0.07929  1.0000
  H   H582      1.0  0.08389  0.76625  0.06225  1.0000
  H   H583      1.0  0.05624  0.52791  0.29406  1.0000
  C   C326      1.0  0.04722  0.55102  0.45086  1.0000
  H   H584      1.0  0.16614  0.80199  0.06660  1.0000
  C   C327      1.0  0.19812  0.82473  0.05678  1.0000
  C   C328      1.0  0.01613  0.62688  0.28946  1.0000
  H   H585      1.0  0.10461  0.51751  0.30792  1.0000
  H   H586      1.0  0.01373  0.64232  0.33524  1.0000
  H   H587      1.0  0.09504  0.77873  0.03034  1.0000
  H   H588      1.0  0.06701  0.73364  0.04859  1.0000
  H   H589      1.0  0.02003  0.55211  0.30741  1.0000
  C   C329      1.0  0.01816  0.68001  0.15909  1.0000
  H   H590      1.0  0.27306  0.80581  0.22963  1.0000
  H   H591      1.0  0.00591  0.50035  0.33150  1.0000
  C   C330      1.0  0.04734  0.53179  0.39962  1.0000
  C   C331      1.0  0.19707  0.73684  0.03122  1.0000
  C   C332      1.0  0.21682  0.84892  0.02971  1.0000
  H   H592      1.0  0.26917  0.80118  0.08703  1.0000
  H   H593      1.0  0.26337  0.84515  0.26583  1.0000
  H   H594      1.0  0.23428  0.80523  0.06939  1.0000
  H   H595      1.0  0.20639  0.81336  0.04132  1.0000
  H   H596      1.0  0.04980  0.75239  0.03282  1.0000
  H   H597      1.0  0.30429  0.83712  0.19448  1.0000
  C   C333      1.0  0.25902  0.81418  0.09529  1.0000
  H   H598      1.0  0.02232  0.50292  0.36312  1.0000
  C   C334      1.0  0.24198  0.98597  0.18626  1.0000
  C   C335      1.0  0.22032  0.98958  0.23157  1.0000
  H   H599      1.0  0.01703  0.59251  0.25320  1.0000
  C   C336      1.0  0.02275  0.64229  0.31344  1.0000
  C   C337      1.0  0.08008  0.75312  0.01607  1.0000
  H   H600      1.0  0.14730  0.50749  0.29773  1.0000
  C   C338      1.0  0.32475  0.82899  0.13919  1.0000
  N   N18       1.0  0.05383  0.55258  0.48457  1.0000
  H   H601      1.0  0.00080  0.58755  0.28475  1.0000
  C   C339      1.0  0.20009  0.85599  0.00596  1.0000
  H   H602      1.0  0.99825  0.60676  0.33509  1.0000
  H   H603      1.0  0.04051  0.62301  0.49095  1.0000
  C   C340      1.0  0.04598  0.59113  0.48257  1.0000
  N   N19       1.0  0.31431  0.81288  0.22611  1.0000
  H   H604      1.0  0.01221  0.72904  0.00763  1.0000
  C   C341      1.0  0.31295  0.79063  0.22612  1.0000
  H   H605      1.0  0.31355  0.75132  0.20553  1.0000
  H   H606      1.0  0.99680  0.54419  0.34943  1.0000
  H   H607      1.0  0.30722  0.98263  0.21579  1.0000
  C   C342      1.0  0.18090  0.74452  0.00779  1.0000
  H   H608      1.0  0.31508  0.81854  0.12815  1.0000
  H   H609      1.0  0.31136  0.78512  0.25054  1.0000
  H   H610      1.0  0.05678  0.52084  0.49527  1.0000
  H   H611      1.0  0.99676  0.50480  0.40516  1.0000
  C   C343      1.0  0.13498  0.58269  0.49688  1.0000
  C   C344      1.0  0.09035  0.53526  0.49020  1.0000
  C   C345      1.0  0.11216  0.53915  0.48725  1.0000
  H   H612      1.0  0.02633  0.57040  0.49787  1.0000
  C   C346      1.0  0.29077  0.99338  0.27208  1.0000
  H   H613      1.0  0.19186  0.84328  0.99875  1.0000
  H   H614      1.0  0.28906  0.99450  0.29806  1.0000
  H   H615      1.0  0.28982  0.99354  0.16572  1.0000
  C   C347      1.0  0.32797  0.75522  0.21524  1.0000
  H   H616      1.0  0.32818  0.82175  0.29036  1.0000
  Fe  Fe37      1.0  0.23502  0.88541  0.86417  1.0000
  S   S73       1.0  0.26671  0.88115  0.88012  1.0000
  S   S74       1.0  0.21875  0.91693  0.86287  1.0000
  Fe  Fe38      1.0  0.23345  0.84025  0.85171  1.0000
  S   S75       1.0  0.26602  0.83390  0.86542  1.0000
  S   S76       1.0  0.21884  0.81125  0.84060  1.0000
  Fe  Fe39      1.0  0.25799  0.85452  0.90602  1.0000
  S   S77       1.0  0.26937  0.84380  0.95386  1.0000
  Fe  Fe40      1.0  0.27224  0.86112  0.83784  1.0000
  S   S78       1.0  0.29963  0.87076  0.81161  1.0000
  S   S79       1.0  0.22552  0.85998  0.89363  1.0000
  S   S80       1.0  0.24037  0.86630  0.82069  1.0000
  Fe  Fe41      1.0  0.12338  0.74125  0.85407  1.0000
  S   S81       1.0  0.14144  0.71147  0.85019  1.0000
  S   S82       1.0  0.13565  0.77210  0.85155  1.0000
  Fe  Fe42      1.0  0.08526  0.72083  0.87038  1.0000
  S   S83       1.0  0.10155  0.68993  0.86810  1.0000
  S   S84       1.0  0.05420  0.72404  0.89207  1.0000
  Fe  Fe43      1.0  0.12573  0.70365  0.89439  1.0000
  S   S85       1.0  0.14363  0.68854  0.93422  1.0000
  Fe  Fe44      1.0  0.11538  0.70059  0.82390  1.0000
  S   S86       1.0  0.12327  0.68244  0.77869  1.0000
  S   S87       1.0  0.10881  0.73363  0.89949  1.0000
  S   S88       1.0  0.09789  0.73128  0.82489  1.0000
  Fe  Fe45      1.0  0.08040  0.55928  0.62049  1.0000
  S   S89       1.0  0.08690  0.55777  0.67214  1.0000
  S   S90       1.0  0.05700  0.54314  0.59690  1.0000
  Fe  Fe46      1.0  0.11924  0.57567  0.60447  1.0000
  S   S91       1.0  0.12943  0.57509  0.65515  1.0000
  S   S92       1.0  0.13825  0.57894  0.56118  1.0000
  Fe  Fe47      1.0  0.11749  0.54492  0.65753  1.0000
  C   C348      1.0  0.26118  0.97675  0.76738  1.0000
  Fe  Fe48      1.0  0.09793  0.58827  0.66618  1.0000
  S   S93       1.0  0.08612  0.61171  0.70329  1.0000
  S   S94       1.0  0.11014  0.54481  0.60668  1.0000
  S   S95       1.0  0.08850  0.59059  0.61493  1.0000
  C   C349      1.0  0.03472  0.55825  0.59154  1.0000
  C   C350      1.0  0.03452  0.57889  0.58764  1.0000
  C   C351      1.0  0.01628  0.59077  0.58447  1.0000
  H   H617      1.0  0.19799  0.76557  0.69015  1.0000
  H   H618      1.0  0.11462  0.78312  0.97101  1.0000
  C   C352      1.0  0.01686  0.54945  0.59213  1.0000
  H   H619      1.0  0.04838  0.58566  0.58691  1.0000
  H   H620      1.0  0.01603  0.60675  0.58147  1.0000
  H   H621      1.0  0.24574  0.99095  0.72695  1.0000
  H   H622      1.0  0.01702  0.53349  0.59525  1.0000
  C   C353      1.0  0.12587  0.58715  0.52612  1.0000
  C   C354      1.0  0.10707  0.59806  0.52695  1.0000
  H   H623      1.0  0.01596  0.62368  0.63482  1.0000
  H   H624      1.0  0.10009  0.60195  0.54927  1.0000
  H   H625      1.0  0.27621  0.96259  0.98451  1.0000
  C   C355      1.0  0.03149  0.72323  0.87134  1.0000
  C   C356      1.0  0.03027  0.72610  0.83885  1.0000
  C   C357      1.0  0.99546  0.72091  0.87292  1.0000
  H   H626      1.0  0.06115  0.69938  0.95226  1.0000
  H   H627      1.0  0.12036  0.77031  0.74278  1.0000
  C   C358      1.0  0.01404  0.72053  0.88825  1.0000
  H   H628      1.0  0.04357  0.72832  0.82563  1.0000
  H   H629      1.0  0.24451  0.96327  0.93204  1.0000
  H   H630      1.0  0.02413  0.59424  0.76832  1.0000
  H   H631      1.0  0.01485  0.71821  0.91335  1.0000
  C   C359      1.0  0.14583  0.69568  0.97408  1.0000
  H   H632      1.0  0.20379  0.75161  0.97476  1.0000
  H   H633      1.0  0.03223  0.69678  0.77967  1.0000
  C   C360      1.0  0.07471  0.71295  0.99345  1.0000
  H   H634      1.0  0.04291  0.51591  0.65940  1.0000
  C   C361      1.0  0.11278  0.66240  0.75884  1.0000
  C   C362      1.0  0.12353  0.65248  0.73396  1.0000
  C   C363      1.0  0.11583  0.63681  0.71710  1.0000
  C   C364      1.0  0.09704  0.63094  0.72451  1.0000
  C   C365      1.0  0.08620  0.64097  0.74923  1.0000
  C   C366      1.0  0.09402  0.65647  0.76639  1.0000
  H   H635      1.0  0.13801  0.65687  0.72774  1.0000
  H   H636      1.0  0.12439  0.62940  0.69818  1.0000
  H   H637      1.0  0.07166  0.63668  0.75526  1.0000
  H   H638      1.0  0.08547  0.66391  0.78530  1.0000
  C   C367      1.0  0.19565  0.80063  0.84566  1.0000
  C   C368      1.0  0.19525  0.77985  0.84173  1.0000
  C   C369      1.0  0.17726  0.77078  0.84429  1.0000
  C   C370      1.0  0.15920  0.78239  0.85033  1.0000
  C   C371      1.0  0.15960  0.80313  0.85449  1.0000
  C   C372      1.0  0.17764  0.81217  0.85243  1.0000
  H   H639      1.0  0.20900  0.77070  0.83646  1.0000
  H   H640      1.0  0.17736  0.75485  0.84111  1.0000
  H   H641      1.0  0.14578  0.81237  0.85901  1.0000
  H   H642      1.0  0.17752  0.82815  0.85531  1.0000
  H   H643      1.0  0.00363  0.56867  0.75930  1.0000
  H   H644      1.0  0.11621  0.54875  0.50694  1.0000
  H   H645      1.0  0.16892  0.49856  0.52292  1.0000
  H   H646      1.0  0.25292  0.88514  0.96259  1.0000
  H   H647      1.0  0.18491  0.72229  0.95052  1.0000
  H   H648      1.0  0.15605  0.73433  0.70794  1.0000
  C   C373      1.0  0.16953  0.71936  0.77573  1.0000
  C   C374      1.0  0.24993  0.97481  0.85886  1.0000
  C   C375      1.0  0.22934  0.97537  0.85415  1.0000
  C   C376      1.0  0.21990  0.95762  0.85617  1.0000
  C   C377      1.0  0.23094  0.93914  0.86260  1.0000
  C   C378      1.0  0.25144  0.93875  0.86801  1.0000
  C   C379      1.0  0.26081  0.95647  0.86620  1.0000
  H   H649      1.0  0.32190  0.81643  0.62190  1.0000
  H   H650      1.0  0.20399  0.95813  0.85218  1.0000
  H   H651      1.0  0.26008  0.92480  0.87353  1.0000
  H   H652      1.0  0.27665  0.95596  0.87047  1.0000
  C   C380      1.0  0.02656  0.53158  0.50677  1.0000
  C   C381      1.0  0.30338  0.92281  0.73407  1.0000
  H   H653      1.0  0.99951  0.64016  0.52035  1.0000
  H   H654      1.0  0.08827  0.67226  0.94360  1.0000
  H   H655      1.0  0.15091  0.77559  0.98499  1.0000
  H   H656      1.0  0.08345  0.61376  0.49987  1.0000
  H   H657      1.0  0.03520  0.76348  0.92598  1.0000
  C   C382      1.0  0.01165  0.72680  0.82360  1.0000
  S   S96       1.0  0.13468  0.51769  0.68002  1.0000
  H   H658      1.0  0.19861  0.72731  0.79109  1.0000
  H   H659      1.0  0.31093  0.84416  0.93620  1.0000
  C   C383      1.0  0.25123  0.93674  0.95935  1.0000
  H   H660      1.0  0.02270  0.60847  0.50951  1.0000
  H   H661      1.0  0.14800  0.51681  0.61497  1.0000
  H   H662      1.0  0.11176  0.70395  0.71071  1.0000
  H   H663      1.0  0.18301  0.71926  0.82227  1.0000
  C   C384      1.0  0.03070  0.69292  0.75445  1.0000
  C   C385      1.0  0.31736  0.83977  0.91285  1.0000
  H   H664      1.0  0.19682  0.86785  0.95859  1.0000
  H   H665      1.0  0.00416  0.55870  0.67592  1.0000
  C   C386      1.0  0.31313  0.92820  0.83712  1.0000
  H   H666      1.0  0.01326  0.75293  0.94010  1.0000
  C   C387      1.0  0.31051  0.88273  0.92992  1.0000
  H   H667      1.0  0.04097  0.67933  0.74909  1.0000
  H   H668      1.0  0.18692  0.50601  0.54933  1.0000
  C   C388      1.0  0.00912  0.68952  0.74673  1.0000
  H   H669      1.0  0.99758  0.64548  0.72604  1.0000
  H   H670      1.0  0.14490  0.75918  0.70534  1.0000
  C   C389      1.0  0.15400  0.76547  0.96443  1.0000
  H   H671      1.0  0.16027  0.72855  0.93397  1.0000
  C   C390      1.0  0.17956  0.78594  0.94596  1.0000
  H   H672      1.0  0.30439  0.93661  0.72025  1.0000
  H   H673      1.0  0.27017  0.95270  0.93068  1.0000
  H   H674      1.0  0.09768  0.69627  0.94269  1.0000
  C   C391      1.0  0.30752  0.80496  0.92321  1.0000
  H   H675      1.0  0.09483  0.51334  0.56487  1.0000
  C   C392      1.0  0.11226  0.73497  0.72589  1.0000
  C   C393      1.0  0.30437  0.90517  0.92700  1.0000
  H   H676      1.0  0.05451  0.53669  0.52854  1.0000
  H   H677      1.0  0.30460  0.84121  0.89603  1.0000
  H   H678      1.0  0.21542  0.87844  0.98178  1.0000
  C   C394      1.0  0.18257  0.76115  0.68892  1.0000
  H   H679      1.0  0.31094  0.87482  0.88047  1.0000
  H   H680      1.0  0.17082  0.79090  0.92470  1.0000
  H   H681      1.0  0.08900  0.71984  0.70353  1.0000
  H   H682      1.0  0.13760  0.81535  0.78119  1.0000
  C   C395      1.0  0.15439  0.74882  0.72087  1.0000
  H   H683      1.0  0.09506  0.71143  0.74284  1.0000
  C   C396      1.0  0.11719  0.77211  0.95160  1.0000
  H   H684      1.0  0.17266  0.77388  0.67919  1.0000
  H   H685      1.0  0.18257  0.74810  0.67289  1.0000
  H   H686      1.0  0.19503  0.70125  0.79530  1.0000
  H   H687      1.0  0.11741  0.74008  0.70280  1.0000
  H   H688      1.0  0.12319  0.76355  0.78309  1.0000
  H   H689      1.0  0.12204  0.79881  0.80009  1.0000
  H   H690      1.0  0.15941  0.70806  0.78255  1.0000
  H   H691      1.0  0.24767  0.92685  0.93964  1.0000
  C   C397      1.0  0.13840  0.77198  0.93870  1.0000
  C   C398      1.0  0.13654  0.50432  0.55768  1.0000
  N   N20       1.0  0.01995  0.57904  0.70372  1.0000
  C   C399      1.0  0.13004  0.73061  0.74894  1.0000
  C   C400      1.0  0.02469  0.59048  0.67460  1.0000
  C   C401      1.0  0.01663  0.55814  0.69325  1.0000
  C   C402      1.0  0.03707  0.57790  0.72691  1.0000
  C   C403      1.0  0.03685  0.59478  0.75195  1.0000
  H   H692      1.0  0.08847  0.52888  0.51391  1.0000
  C   C404      1.0  0.03485  0.54548  0.67861  1.0000
  C   C405      1.0  0.02870  0.61251  0.67928  1.0000
  C   C406      1.0  0.03034  0.62301  0.64774  1.0000
  C   C407      1.0  0.05583  0.59247  0.77187  1.0000
  C   C408      1.0  0.02985  0.52438  0.67090  1.0000
  H   H693      1.0  0.04761  0.60857  0.52551  1.0000
  H   H694      1.0  0.21973  0.81275  0.92595  1.0000
  H   H695      1.0  0.03842  0.58343  0.66299  1.0000
  H   H696      1.0  0.01245  0.59004  0.65699  1.0000
  C   C409      1.0  0.12900  0.80233  0.77740  1.0000
  H   H697      1.0  0.99658  0.65422  0.82499  1.0000
  H   H698      1.0  0.03784  0.56370  0.74048  1.0000
  H   H699      1.0  0.05157  0.57731  0.71411  1.0000
  H   H700      1.0  0.30268  0.94855  0.78436  1.0000
  H   H701      1.0  0.03559  0.60980  0.74128  1.0000
  H   H702      1.0  0.29911  0.90564  0.69147  1.0000
  H   H703      1.0  0.17067  0.67333  0.98054  1.0000
  H   H704      1.0  0.04775  0.54417  0.69492  1.0000
  H   H705      1.0  0.03944  0.55210  0.65644  1.0000
  H   H706      1.0  0.01672  0.62114  0.69275  1.0000
  H   H707      1.0  0.04314  0.61314  0.69154  1.0000
  C   C410      1.0  0.07135  0.69489  0.97203  1.0000
  H   H708      1.0  0.03410  0.63849  0.65173  1.0000
  H   H709      1.0  0.04236  0.61505  0.63319  1.0000
  H   H710      1.0  0.05705  0.57813  0.78493  1.0000
  H   H711      1.0  0.06927  0.59290  0.75690  1.0000
  H   H712      1.0  0.05554  0.60491  0.78909  1.0000
  H   H713      1.0  0.30792  0.89071  0.72491  1.0000
  H   H714      1.0  0.30817  0.94084  0.85299  1.0000
  H   H715      1.0  0.19592  0.52862  0.50429  1.0000
  H   H716      1.0  0.25097  0.97122  0.99152  1.0000
  H   H717      1.0  0.07843  0.75839  0.99144  1.0000
  C   C411      1.0  0.25716  0.95642  0.94634  1.0000
  H   H718      1.0  0.12374  0.72725  0.77225  1.0000
  C   C412      1.0  0.18075  0.75159  0.92739  1.0000
  C   C413      1.0  0.17646  0.72961  0.93069  1.0000
  C   C414      1.0  0.20153  0.78896  0.93753  1.0000
  C   C415      1.0  0.18317  0.71781  0.90117  1.0000
  C   C416      1.0  0.20418  0.81109  0.93345  1.0000
  H   H719      1.0  0.17123  0.55578  0.61673  1.0000
  H   H720      1.0  0.17282  0.75777  0.90608  1.0000
  H   H721      1.0  0.19690  0.75113  0.92171  1.0000
  H   H722      1.0  0.18369  0.51074  0.62411  1.0000
  H   H723      1.0  0.20581  0.78148  0.91490  1.0000
  H   H724      1.0  0.24683  0.97403  0.77850  1.0000
  H   H725      1.0  0.17897  0.70233  0.90295  1.0000
  H   H726      1.0  0.17597  0.72495  0.88004  1.0000
  H   H727      1.0  0.19963  0.71704  0.89842  1.0000
  H   H728      1.0  0.19393  0.81790  0.91509  1.0000
  H   H729      1.0  0.20129  0.81927  0.95589  1.0000
  H   H730      1.0  0.29610  0.80669  0.90432  1.0000
  H   H731      1.0  0.03091  0.51264  0.54820  1.0000
  C   C417      1.0  0.15753  0.52042  0.59494  1.0000
  H   H732      1.0  0.05940  0.73851  0.95541  1.0000
  C   C418      1.0  0.00054  0.58844  0.71751  1.0000
  H   H733      1.0  0.01206  0.54916  0.71336  1.0000
  H   H734      1.0  0.22072  0.98939  0.84863  1.0000
  H   H735      1.0  0.01660  0.77862  0.94839  1.0000
  H   H736      1.0  0.19128  0.54423  0.64064  1.0000
  H   H737      1.0  0.11455  0.75708  0.96038  1.0000
  C   C419      1.0  0.09101  0.68544  0.95809  1.0000
  C   C420      1.0  0.17090  0.50898  0.54276  1.0000
  H   H738      1.0  0.31470  0.92225  0.75304  1.0000
  H   H739      1.0  0.01382  0.66040  0.76893  1.0000
  H   H740      1.0  0.03527  0.70546  0.74014  1.0000
  C   C421      1.0  0.99839  0.58202  0.58653  1.0000
  H   H741      1.0  0.30232  0.91125  0.79974  1.0000
  H   H742      1.0  0.00124  0.67995  0.79196  1.0000
  C   C422      1.0  0.17978  0.53247  0.49949  1.0000
  H   H743      1.0  0.13832  0.71632  0.74098  1.0000
  C   C423      1.0  0.17810  0.52370  0.60934  1.0000
  H   H744      1.0  0.04550  0.76871  0.98176  1.0000
  C   C424      1.0  0.26279  0.97046  0.97313  1.0000
  H   H745      1.0  0.26365  0.92895  0.97322  1.0000
  H   H746      1.0  0.02625  0.51649  0.69271  1.0000
  H   H747      1.0  0.13986  0.78725  0.92998  1.0000
  H   H748      1.0  0.12175  0.71935  0.97534  1.0000
  H   H749      1.0  0.00864  0.68561  0.72149  1.0000
  H   H750      1.0  0.29704  0.97952  0.95102  1.0000
  H   H751      1.0  0.31742  0.91474  0.85163  1.0000
  H   H752      1.0  0.29517  0.90850  0.90563  1.0000
  C   C425      1.0  0.03870  0.60886  0.50350  1.0000
  H   H753      1.0  0.31776  0.91349  0.92589  1.0000
  H   H754      1.0  0.21217  0.78290  0.95585  1.0000
  C   C426      1.0  0.20880  0.86441  0.97628  1.0000
  H   H755      1.0  0.32342  0.86413  0.64572  1.0000
  C   C427      1.0  0.16752  0.53050  0.52931  1.0000
  H   H756      1.0  0.10107  0.74658  0.73572  1.0000
  C   C428      1.0  0.16088  0.68504  0.99164  1.0000
  H   H757      1.0  0.03110  0.49914  0.51133  1.0000
  H   H758      1.0  0.06490  0.68314  0.98585  1.0000
  H   H759      1.0  0.15040  0.75052  0.97224  1.0000
  N   N21       1.0  0.27445  0.93913  0.76897  1.0000
  C   C429      1.0  0.28204  0.92212  0.74754  1.0000
  C   C430      1.0  0.25536  0.93400  0.78408  1.0000
  C   C431      1.0  0.27094  0.95798  0.74973  1.0000
  C   C432      1.0  0.28933  0.94245  0.79444  1.0000
  C   C433      1.0  0.29641  0.92391  0.81462  1.0000
  C   C434      1.0  0.04892  0.53501  0.50411  1.0000
  H   H760      1.0  0.32495  0.98678  0.73032  1.0000
  C   C435      1.0  0.23745  0.93263  0.76150  1.0000
  C   C436      1.0  0.21914  0.92695  0.77918  1.0000
  H   H761      1.0  0.23779  0.93944  0.97451  1.0000
  H   H762      1.0  0.01817  0.54381  0.52029  1.0000
  H   H763      1.0  0.00204  0.60370  0.72635  1.0000
  H   H764      1.0  0.27200  0.92145  0.72691  1.0000
  H   H765      1.0  0.28156  0.90746  0.75958  1.0000
  H   H766      1.0  0.25785  0.91934  0.79633  1.0000
  H   H767      1.0  0.25053  0.94490  0.80287  1.0000
  H   H768      1.0  0.26177  0.95549  0.72861  1.0000
  H   H769      1.0  0.28531  0.96220  0.74027  1.0000
  C   C437      1.0  0.02403  0.51227  0.52449  1.0000
  H   H770      1.0  0.28293  0.95408  0.81117  1.0000
  H   H771      1.0  0.15060  0.53502  0.58591  1.0000
  H   H772      1.0  0.28394  0.91912  0.82879  1.0000
  H   H773      1.0  0.17449  0.79666  0.96503  1.0000
  H   H774      1.0  0.22045  0.85346  0.96587  1.0000
  H   H775      1.0  0.29666  0.87537  0.93328  1.0000
  H   H776      1.0  0.11706  0.80650  0.75993  1.0000
  H   H777      1.0  0.23310  0.94714  0.74981  1.0000
  H   H778      1.0  0.24107  0.92107  0.74324  1.0000
  H   H779      1.0  0.20672  0.92557  0.76242  1.0000
  H   H780      1.0  0.22252  0.91241  0.79136  1.0000
  H   H781      1.0  0.21410  0.93861  0.79672  1.0000
  C   C438      1.0  0.31916  0.86134  0.78553  1.0000
  H   H782      1.0  0.31318  0.78891  0.92489  1.0000
  H   H783      1.0  0.28052  0.98237  0.91874  1.0000
  H   H784      1.0  0.15525  0.78188  0.78302  1.0000
  C   C439      1.0  0.30905  0.90501  0.71234  1.0000
  H   H785      1.0  0.14914  0.78905  0.74294  1.0000
  H   H786      1.0  0.18660  0.74376  0.73089  1.0000
  H   H787      1.0  0.17660  0.76900  0.73705  1.0000
  C   C440      1.0  0.17568  0.75584  0.72177  1.0000
  H   H788      1.0  0.10627  0.77635  0.93259  1.0000
  C   C441      1.0  0.14301  0.78453  0.76570  1.0000
  H   H789      1.0  0.17459  0.71596  0.75134  1.0000
  H   H790      1.0  0.29539  0.91045  0.94784  1.0000
  C   C442      1.0  0.17646  0.54219  0.63043  1.0000
  H   H791      1.0  0.01697  0.52490  0.65449  1.0000
  C   C443      1.0  0.32172  0.84143  0.77555  1.0000
  C   C444      1.0  0.00186  0.67315  0.76805  1.0000
  H   H792      1.0  0.99982  0.70388  0.75097  1.0000
  H   H793      1.0  0.04671  0.57214  0.52408  1.0000
  N   N22       1.0  0.17571  0.76498  0.95526  1.0000
  H   H794      1.0  0.16959  0.75144  0.78130  1.0000
  C   C445      1.0  0.10142  0.71639  0.72043  1.0000
  C   C446      1.0  0.25683  0.99436  0.74496  1.0000
  H   H795      1.0  0.16587  0.54051  0.65002  1.0000
  C   C447      1.0  0.13168  0.76586  0.76109  1.0000
  H   H796      1.0  0.15024  0.74133  0.80131  1.0000
  N   N23       1.0  0.14404  0.74669  0.75204  1.0000
  C   C448      1.0  0.15835  0.74066  0.77845  1.0000
  C   C449      1.0  0.18766  0.71673  0.79746  1.0000
  H   H797      1.0  0.13996  0.76145  0.91860  1.0000
  H   H798      1.0  0.12992  0.51980  0.55242  1.0000
  H   H799      1.0  0.01073  0.72960  0.79861  1.0000
  C   C450      1.0  0.99870  0.56137  0.59015  1.0000
  C   C451      1.0  0.02447  0.76339  0.94581  1.0000
  H   H800      1.0  0.17211  0.54155  0.54654  1.0000
  C   C452      1.0  0.25758  0.87899  0.98521  1.0000
  C   C453      1.0  0.03537  0.75718  0.97631  1.0000
  C   C454      1.0  0.26610  0.85923  0.98737  1.0000
  H   H801      1.0  0.31977  0.88026  0.95138  1.0000
  H   H802      1.0  0.15162  0.53467  0.52339  1.0000
  H   H803      1.0  0.18936  0.52585  0.59104  1.0000
  H   H804      1.0  0.27129  0.98146  0.78593  1.0000
  H   H805      1.0  0.32811  0.84545  0.85467  1.0000
  C   C455      1.0  0.32477  0.81731  0.91600  1.0000
  H   H806      1.0  0.03773  0.72625  0.96079  1.0000
  C   C456      1.0  0.04744  0.73635  0.97281  1.0000
  H   H807      1.0  0.31140  0.83117  0.78333  1.0000
  H   H808      1.0  0.30041  0.80964  0.94595  1.0000
  C   C457      1.0  0.09760  0.60463  0.49886  1.0000
  N   N24       1.0  0.15761  0.50456  0.56984  1.0000
  C   C458      1.0  0.32188  0.87429  0.90020  1.0000
  H   H809      1.0  0.02415  0.75761  0.99527  1.0000
  H   H810      1.0  0.07942  0.56434  0.50667  1.0000
  H   H811      1.0  0.22415  0.98607  0.96372  1.0000
  H   H812      1.0  0.30790  0.78453  0.62953  1.0000
  H   H813      1.0  0.31731  0.99374  0.78598  1.0000
  N   N25       1.0  0.26681  0.99117  0.96320  1.0000
  C   C459      1.0  0.28443  0.98957  0.94116  1.0000
  H   H814      1.0  0.12132  0.50222  0.60322  1.0000
  H   H815      1.0  0.08542  0.72155  0.98067  1.0000
  C   C460      1.0  0.13327  0.71092  0.98884  1.0000
  C   C461      1.0  0.12174  0.49499  0.57988  1.0000
  H   H816      1.0  0.13638  0.49630  0.53481  1.0000
  C   C462      1.0  0.18902  0.75868  0.98306  1.0000
  H   H817      1.0  0.32645  0.93180  0.82375  1.0000
  H   H818      1.0  0.10179  0.68050  0.97696  1.0000
  H   H819      1.0  0.00790  0.51062  0.52740  1.0000
  C   C463      1.0  0.10053  0.49731  0.56668  1.0000
  H   H820      1.0  0.19241  0.77198  0.99694  1.0000
  H   H821      1.0  0.17506  0.73136  0.99696  1.0000
  H   H822      1.0  0.32364  0.80162  0.58657  1.0000
  C   C464      1.0  0.32434  0.78488  0.62939  1.0000
  H   H823      1.0  0.32469  0.90519  0.70416  1.0000
  C   C465      1.0  0.04273  0.57109  0.49873  1.0000
  Fe  Fe49      1.0  0.61744  0.08040  0.38498  1.0000
  S   S97       1.0  0.59963  0.08686  0.34032  1.0000
  S   S98       1.0  0.62038  0.10411  0.42186  1.0000
  Fe  Fe50      1.0  0.62923  0.03780  0.36696  1.0000
  S   S99       1.0  0.61188  0.04068  0.32221  1.0000
  H   H824      1.0  0.33620  0.03261  0.33862  1.0000
  Fe  Fe51      1.0  0.62595  0.06927  0.31576  1.0000
  S   S100      1.0  0.63958  0.07226  0.26641  1.0000
  Fe  Fe52      1.0  0.58746  0.05751  0.35064  1.0000
  S   S101      1.0  0.55648  0.04611  0.35176  1.0000
  S   S102      1.0  0.64429  0.06548  0.35967  1.0000
  S   S103      1.0  0.60414  0.05218  0.39620  1.0000
  Fe  Fe53      1.0  0.41305  0.04959  0.37878  1.0000
  S   S104      1.0  0.41130  0.08003  0.35678  1.0000
  S   S105      1.0  0.41201  0.03843  0.42903  1.0000
  Fe  Fe54      1.0  0.42337  0.02910  0.31619  1.0000
  S   S106      1.0  0.42280  0.05776  0.28921  1.0000
  C   C466      1.0  0.40738  0.08130  0.49770  1.0000
  Fe  Fe55      1.0  0.43955  0.06841  0.33106  1.0000
  S   S107      1.0  0.46723  0.08546  0.32857  1.0000
  Fe  Fe56      1.0  0.39460  0.06659  0.31673  1.0000
  S   S108      1.0  0.36465  0.08118  0.29777  1.0000
  S   S109      1.0  0.44202  0.03901  0.35537  1.0000
  S   S110      1.0  0.39437  0.03710  0.34112  1.0000
  C   C467      1.0  0.35017  0.07391  0.26531  1.0000
  C   C468      1.0  0.35735  0.05889  0.24418  1.0000
  H   H825      1.0  0.37213  0.05125  0.24744  1.0000
  C   C469      1.0  0.37623  0.99622  0.26211  1.0000
  C   C470      1.0  0.41256  0.05144  0.46512  1.0000
  H   H826      1.0  0.64465  0.00305  0.24587  1.0000
  H   H827      1.0  0.40263  0.08068  0.44728  1.0000
  N   N26       1.0  0.45985  0.09828  0.44537  1.0000
  C   C471      1.0  0.53187  0.05815  0.34742  1.0000
  C   C472      1.0  0.51569  0.04711  0.35360  1.0000
  C   C473      1.0  0.49590  0.05523  0.34793  1.0000
  C   C474      1.0  0.49198  0.07465  0.33630  1.0000
  C   C475      1.0  0.50813  0.08591  0.33084  1.0000
  C   C476      1.0  0.52799  0.07769  0.33622  1.0000
  H   H828      1.0  0.51848  0.03200  0.36232  1.0000
  H   H829      1.0  0.48372  0.04639  0.35236  1.0000
  H   H830      1.0  0.50528  0.10098  0.32197  1.0000
  H   H831      1.0  0.54027  0.08637  0.33128  1.0000
  C   C477      1.0  0.56533  0.05788  0.24434  1.0000
  H   H832      1.0  0.60411  0.01082  0.36702  1.0000
  C   C478      1.0  0.57675  0.07293  0.26193  1.0000
  C   C479      1.0  0.46730  0.03978  0.43750  1.0000
  H   H833      1.0  0.58270  0.08335  0.24497  1.0000
  H   H834      1.0  0.55358  0.06657  0.23041  1.0000
  H   H835      1.0  0.55039  0.08360  0.49798  1.0000
  C   C480      1.0  0.62482  0.09972  0.46244  1.0000
  H   H836      1.0  0.49824  0.08051  0.41961  1.0000
  H   H837      1.0  0.61643  0.06969  0.46423  1.0000
  H   H838      1.0  0.40153  0.00006  0.45631  1.0000
  H   H839      1.0  0.56685  0.08179  0.27883  1.0000
  H   H840      1.0  0.44825  0.07286  0.46750  1.0000
  H   H841      1.0  0.35159  0.04298  0.20155  1.0000
  H   H842      1.0  0.54918  0.05236  0.28679  1.0000
  C   C481      1.0  0.52424  0.04135  0.23879  1.0000
  C   C482      1.0  0.51165  0.05630  0.26053  1.0000
  H   H843      1.0  0.50875  0.12291  0.40545  1.0000
  H   H844      1.0  0.48245  0.00918  0.37659  1.0000
  C   C483      1.0  0.33371  0.03274  0.31283  1.0000
  C   C484      1.0  0.40723  0.07203  0.46790  1.0000
  H   H845      1.0  0.56239  0.00900  0.30704  1.0000
  H   H846      1.0  0.56645  0.01285  0.15060  1.0000
  H   H847      1.0  0.45403  0.09367  0.39562  1.0000
  C   C485      1.0  0.55647  0.04338  0.26735  1.0000
  H   H848      1.0  0.43815  0.11746  0.35611  1.0000
  H   H849      1.0  0.57613  0.04941  0.22837  1.0000
  H   H850      1.0  0.34725  0.02522  0.30130  1.0000
  C   C486      1.0  0.49351  0.09653  0.41518  1.0000
  H   H851      1.0  0.41628  0.12243  0.38077  1.0000
  H   H852      1.0  0.52085  0.10643  0.43489  1.0000
  C   C487      1.0  0.46143  0.07627  0.45350  1.0000
  H   H853      1.0  0.43714  0.13433  0.42324  1.0000
  H   H854      1.0  0.52235  0.09962  0.39402  1.0000
  H   H855      1.0  0.48285  0.03779  0.44648  1.0000
  H   H856      1.0  0.54484  0.04617  0.45877  1.0000
  N   N27       1.0  0.54227  0.02976  0.25361  1.0000
  H   H857      1.0  0.48908  0.10199  0.46416  1.0000
  H   H858      1.0  0.56855  0.01127  0.23755  1.0000
  H   H859      1.0  0.55723  0.03744  0.19235  1.0000
  C   C488      1.0  0.33084  0.08361  0.26059  1.0000
  H   H860      1.0  0.48566  0.09818  0.39234  1.0000
  H   H861      1.0  0.63885  0.02856  0.25917  1.0000
  H   H862      1.0  0.45688  0.03614  0.45636  1.0000
  C   C489      1.0  0.46203  0.06114  0.42590  1.0000
  C   C490      1.0  0.55280  0.01544  0.23007  1.0000
  C   C491      1.0  0.48027  0.10543  0.44245  1.0000
  H   H863      1.0  0.50545  0.04858  0.28070  1.0000
  H   H864      1.0  0.53237  0.07090  0.45182  1.0000
  C   C492      1.0  0.54822  0.06750  0.49665  1.0000
  H   H865      1.0  0.43288  0.10764  0.47148  1.0000
  C   C493      1.0  0.44456  0.12445  0.40497  1.0000
  H   H866      1.0  0.52075  0.06790  0.26947  1.0000
  H   H867      1.0  0.45911  0.12982  0.39892  1.0000
  C   C494      1.0  0.62158  0.08179  0.47766  1.0000
  C   C495      1.0  0.44752  0.10237  0.41596  1.0000
  H   H868      1.0  0.48522  0.07758  0.25917  1.0000
  H   H869      1.0  0.47903  0.12199  0.44047  1.0000
  H   H870      1.0  0.44704  0.06189  0.41481  1.0000
  H   H871      1.0  0.58958  0.06514  0.27480  1.0000
  H   H872      1.0  0.55912  0.06638  0.44856  1.0000
  H   H873      1.0  0.47285  0.06417  0.40745  1.0000
  C   C496      1.0  0.34562  0.05421  0.21817  1.0000
  H   H874      1.0  0.46592  0.02919  0.41784  1.0000
  H   H875      1.0  0.51408  0.03075  0.22920  1.0000
  H   H876      1.0  0.56945  0.03456  0.27853  1.0000
  C   C497      1.0  0.51249  0.10706  0.41236  1.0000
  H   H877      1.0  0.47459  0.07222  0.46889  1.0000
  H   H878      1.0  0.58274  0.00835  0.18399  1.0000
  C   C498      1.0  0.53478  0.01758  0.28014  1.0000
  H   H879      1.0  0.44981  0.12613  0.46904  1.0000
  H   H880      1.0  0.52892  0.02746  0.29964  1.0000
  H   H881      1.0  0.42987  0.14262  0.36795  1.0000
  C   C499      1.0  0.56715  0.00806  0.17557  1.0000
  H   H882      1.0  0.48385  0.05615  0.23422  1.0000
  S   S111      1.0  0.64640  0.00809  0.37627  1.0000
  H   H883      1.0  0.53520  0.99987  0.34064  1.0000
  S   S112      1.0  0.43095  0.99846  0.29586  1.0000
  C   C500      1.0  0.49390  0.06703  0.24295  1.0000
  H   H884      1.0  0.62789  0.00842  0.27832  1.0000
  C   C501      1.0  0.54589  0.06242  0.46188  1.0000
  H   H885      1.0  0.43247  0.09715  0.41930  1.0000
  C   C502      1.0  0.41815  0.04036  0.49215  1.0000
  H   H886      1.0  0.59348  0.00590  0.44139  1.0000
  H   H887      1.0  0.53767  0.02194  0.18504  1.0000
  C   C503      1.0  0.43141  0.12679  0.37568  1.0000
  C   C504      1.0  0.63144  0.11530  0.48010  1.0000
  C   C505      1.0  0.55286  0.02217  0.19518  1.0000
  H   H888      1.0  0.52846  0.05014  0.21832  1.0000
  H   H889      1.0  0.52200  0.00964  0.27191  1.0000
  H   H890      1.0  0.63390  0.12917  0.46867  1.0000
  C   C506      1.0  0.44906  0.10981  0.47195  1.0000
  H   H891      1.0  0.49906  0.07569  0.22289  1.0000
  C   C507      1.0  0.47546  0.99776  0.36279  1.0000
  H   H892      1.0  0.36216  0.00477  0.25412  1.0000
  C   C508      1.0  0.59555  0.02324  0.48330  1.0000
  H   H893      1.0  0.41929  0.00347  0.36077  1.0000
  H   H894      1.0  0.54571  0.00118  0.22949  1.0000
  H   H895      1.0  0.61849  0.00985  0.45310  1.0000
  H   H896      1.0  0.59474  0.03759  0.47028  1.0000
  H   H897      1.0  0.42252  0.02451  0.49020  1.0000
  C   C509      1.0  0.55022  0.00176  0.29554  1.0000
  H   H898      1.0  0.58031  0.02092  0.49149  1.0000
  H   H899      1.0  0.45987  0.99733  0.37103  1.0000
  H   H900      1.0  0.38409  0.00592  0.27805  1.0000
  H   H901      1.0  0.33153  0.04855  0.30509  1.0000
  C   C510      1.0  0.60377  0.00615  0.46170  1.0000
  C   C511      1.0  0.64159  0.01274  0.26679  1.0000
  H   H902      1.0  0.47528  0.00226  0.33766  1.0000
  C   C512      1.0  0.65901  0.01012  0.28993  1.0000
  H   H903      1.0  0.65790  0.06707  0.20530  1.0000
  H   H904      1.0  0.65516  0.01988  0.31053  1.0000
  C   C513      1.0  0.61051  0.99626  0.35931  1.0000
  H   H905      1.0  0.37803  0.99525  0.47319  1.0000
  Fe  Fe57      1.0  0.63536  0.05026  0.66474  1.0000
  S   S113      1.0  0.64581  0.04343  0.61524  1.0000
  H   H906      1.0  0.62614  0.00896  0.73871  1.0000
  Fe  Fe58      1.0  0.59162  0.06145  0.64184  1.0000
  S   S114      1.0  0.59944  0.05547  0.59119  1.0000
  S   S115      1.0  0.55980  0.07492  0.65222  1.0000
  Fe  Fe59      1.0  0.61788  0.02853  0.60943  1.0000
  H   H907      1.0  0.47279  0.10631  0.50817  1.0000
  Fe  Fe60      1.0  0.62643  0.07102  0.60104  1.0000
  S   S116      1.0  0.63725  0.09399  0.56852  1.0000
  S   S117      1.0  0.60838  0.03309  0.65975  1.0000
  S   S118      1.0  0.61775  0.07930  0.65091  1.0000
  Fe  Fe61      1.0  0.40411  0.05557  0.67409  1.0000
  S   S119      1.0  0.39092  0.04853  0.62733  1.0000
  S   S120      1.0  0.38677  0.06276  0.72033  1.0000
  Fe  Fe62      1.0  0.44771  0.04217  0.65089  1.0000
  S   S121      1.0  0.43692  0.03374  0.60335  1.0000
  S   S122      1.0  0.48041  0.03087  0.66031  1.0000
  Fe  Fe63      1.0  0.41675  0.06229  0.60553  1.0000
  S   S123      1.0  0.41331  0.08197  0.56196  1.0000
  Fe  Fe64      1.0  0.41230  0.02070  0.62858  1.0000
  H   H908      1.0  0.63486  0.05663  0.81244  1.0000
  S   S124      1.0  0.42878  0.07189  0.65234  1.0000
  S   S125      1.0  0.42424  0.02684  0.67625  1.0000
  C   C514      1.0  0.41283  0.07007  0.52479  1.0000
  C   C515      1.0  0.63507  0.11311  0.51235  1.0000
  C   C516      1.0  0.41820  0.04956  0.52175  1.0000
  C   C517      1.0  0.49299  0.07225  0.56012  1.0000
  H   H909      1.0  0.42229  0.04068  0.54221  1.0000
  H   H910      1.0  0.38314  0.09549  0.76966  1.0000
  C   C518      1.0  0.53790  0.06232  0.65284  1.0000
  C   C519      1.0  0.53871  0.04147  0.65299  1.0000
  C   C520      1.0  0.52094  0.03213  0.65488  1.0000
  C   C521      1.0  0.50218  0.04346  0.65611  1.0000
  C   C522      1.0  0.50137  0.06430  0.65505  1.0000
  C   C523      1.0  0.51915  0.07365  0.65365  1.0000
  H   H911      1.0  0.55302  0.03256  0.65245  1.0000
  H   H912      1.0  0.52174  0.01601  0.65580  1.0000
  H   H913      1.0  0.48707  0.07321  0.65624  1.0000
  H   H914      1.0  0.51837  0.08978  0.65367  1.0000
  C   C524      1.0  0.62488  0.07972  0.51047  1.0000
  C   C525      1.0  0.54721  0.02691  0.55302  1.0000
  C   C526      1.0  0.36161  0.06041  0.73201  1.0000
  C   C527      1.0  0.63175  0.09545  0.52782  1.0000
  H   H915      1.0  0.56402  0.08733  0.54392  1.0000
  C   C528      1.0  0.56567  0.01395  0.56472  1.0000
  H   H916      1.0  0.52461  0.09589  0.54886  1.0000
  C   C529      1.0  0.55522  0.09057  0.56556  1.0000
  H   H917      1.0  0.35581  0.11798  0.81160  1.0000
  H   H918      1.0  0.64479  0.03054  0.81331  1.0000
  H   H919      1.0  0.66067  0.03785  0.86481  1.0000
  H   H920      1.0  0.64884  0.04572  0.77957  1.0000
  H   H921      1.0  0.42148  0.02306  0.76250  1.0000
  H   H922      1.0  0.60165  0.00035  0.70238  1.0000
  H   H923      1.0  0.42925  0.11724  0.52863  1.0000
  H   H924      1.0  0.52776  0.08624  0.58764  1.0000
  H   H925      1.0  0.57190  0.99668  0.73348  1.0000
  C   C530      1.0  0.37859  0.11092  0.76134  1.0000
  H   H926      1.0  0.52447  0.04907  0.50753  1.0000
  C   C531      1.0  0.35731  0.05815  0.76414  1.0000
  H   H927      1.0  0.65351  0.06376  0.86240  1.0000
  C   C532      1.0  0.52943  0.06349  0.51566  1.0000
  H   H928      1.0  0.66047  0.00345  0.73796  1.0000
  C   C533      1.0  0.54804  0.04904  0.56267  1.0000
  H   H929      1.0  0.56190  0.05855  0.50503  1.0000
  H   H930      1.0  0.64038  0.12530  0.52542  1.0000
  C   C534      1.0  0.33745  0.05805  0.77492  1.0000
  H   H931      1.0  0.45063  0.11373  0.55404  1.0000
  H   H932      1.0  0.41742  0.99947  0.78019  1.0000
  H   H933      1.0  0.65672  0.09372  0.66885  1.0000
  H   H934      1.0  0.38560  0.01919  0.76483  1.0000
  H   H935      1.0  0.56270  0.05318  0.55471  1.0000
  H   H936      1.0  0.47168  0.04988  0.56027  1.0000
  C   C535      1.0  0.41626  0.00819  0.75802  1.0000
  H   H937      1.0  0.34866  0.06416  0.68599  1.0000
  H   H938      1.0  0.56655  0.01483  0.59070  1.0000
  H   H939      1.0  0.64460  0.00335  0.68797  1.0000
  H   H940      1.0  0.39441  0.02032  0.72512  1.0000
  H   H941      1.0  0.49438  0.08652  0.57263  1.0000
  H   H942      1.0  0.65059  0.06703  0.91490  1.0000
  H   H943      1.0  0.33451  0.05650  0.79972  1.0000
  C   C536      1.0  0.34966  0.01619  0.64441  1.0000
  H   H944      1.0  0.49013  0.07552  0.53495  1.0000
  H   H945      1.0  0.62242  0.06594  0.52216  1.0000
  H   H946      1.0  0.66080  0.08241  0.72126  1.0000
  H   H947      1.0  0.42616  0.00040  0.73999  1.0000
  S   S126      1.0  0.61912  0.99956  0.58314  1.0000
  H   H948      1.0  0.58716  0.01339  0.75305  1.0000
  H   H949      1.0  0.65515  0.13947  0.67298  1.0000
  H   H950      1.0  0.38085  0.00298  0.68439  1.0000
  C   C537      1.0  0.47453  0.06367  0.57315  1.0000
  C   C538      1.0  0.44558  0.11831  0.53003  1.0000
  H   H951      1.0  0.57084  0.11646  0.57535  1.0000
  C   C539      1.0  0.35123  0.99979  0.66926  1.0000
  H   H952      1.0  0.60546  0.02434  0.50399  1.0000
  C   C540      1.0  0.64765  0.04574  0.80560  1.0000
  H   H953      1.0  0.44851  0.13407  0.52627  1.0000
  C   C541      1.0  0.34571  0.06218  0.71071  1.0000
  H   H954      1.0  0.58846  0.00288  0.63014  1.0000
  H   H955      1.0  0.53405  0.02081  0.56351  1.0000
  C   C542      1.0  0.53366  0.08446  0.56317  1.0000
  H   H956      1.0  0.36438  0.01702  0.63306  1.0000
  H   H957      1.0  0.66080  0.10701  0.61775  1.0000
  H   H958      1.0  0.50854  0.04297  0.55416  1.0000
  H   H959      1.0  0.51374  0.05460  0.59031  1.0000
  H   H960      1.0  0.56319  0.08228  0.58506  1.0000
  C   C543      1.0  0.64837  0.12511  0.67332  1.0000
  H   H961      1.0  0.46120  0.07473  0.57048  1.0000
  H   H962      1.0  0.47642  0.06014  0.59852  1.0000
  H   H963      1.0  0.35431  0.01519  0.75517  1.0000
  C   C544      1.0  0.35152  0.99964  0.74919  1.0000
  H   H964      1.0  0.34446  0.03090  0.65501  1.0000
  H   H965      1.0  0.33603  0.99833  0.67808  1.0000
  H   H966      1.0  0.34967  0.09486  0.79657  1.0000
  H   H967      1.0  0.54735  0.11646  0.59554  1.0000
  C   C545      1.0  0.45669  0.10460  0.50575  1.0000
  H   H968      1.0  0.56482  0.99812  0.55797  1.0000
  H   H969      1.0  0.57947  0.01893  0.55444  1.0000
  N   N28       1.0  0.53118  0.06369  0.55104  1.0000
  H   H970      1.0  0.36944  0.05681  0.78091  1.0000
  H   H971      1.0  0.38466  0.11237  0.73727  1.0000
  C   C546      1.0  0.55520  0.11277  0.57298  1.0000
  C   C547      1.0  0.58634  0.99764  0.74575  1.0000
  H   H972      1.0  0.51750  0.07501  0.50773  1.0000
  H   H973      1.0  0.54878  0.04967  0.58882  1.0000
  C   C548      1.0  0.51202  0.05738  0.56457  1.0000
  H   H974      1.0  0.38519  0.12170  0.77700  1.0000
  H   H975      1.0  0.34394  0.09594  0.84964  1.0000
  H   H976      1.0  0.65437  0.07911  0.96903  1.0000
  H   H977      1.0  0.36275  0.02026  0.70271  1.0000
  C   C549      1.0  0.39469  0.01092  0.74640  1.0000
  H   H978      1.0  0.54668  0.02528  0.52712  1.0000
  H   H979      1.0  0.33888  0.01276  0.62594  1.0000
  S   S127      1.0  0.65761  0.04055  0.70448  1.0000
  H   H980      1.0  0.63636  0.12553  0.65534  1.0000
  H   H981      1.0  0.54789  0.12201  0.55383  1.0000
  H   H982      1.0  0.64157  0.12334  0.69679  1.0000
  C   C550      1.0  0.36588  0.00424  0.69597  1.0000
  C   C551      1.0  0.32919  0.00098  0.74010  1.0000
  H   H983      1.0  0.45424  0.08906  0.51213  1.0000
  C   C552      1.0  0.34669  0.11130  0.79331  1.0000
  C   C553      1.0  0.35586  0.11510  0.76064  1.0000
  H   H984      1.0  0.35022  0.10492  0.74290  1.0000
  H   H985      1.0  0.35211  0.13060  0.75242  1.0000
  H   H986      1.0  0.34442  0.15415  0.78754  1.0000
  H   H987      1.0  0.40289  0.09713  0.49990  1.0000
  H   H988      1.0  0.32976  0.17699  0.82928  1.0000
  H   H989      1.0  0.33060  0.13949  0.83378  1.0000
  H   H990      1.0  0.39814  0.00147  0.49836  1.0000
  Fe  Fe65      1.0  0.61910  0.89209  0.39860  1.0000
  S   S128      1.0  0.61434  0.86275  0.37606  1.0000
  S   S129      1.0  0.63301  0.89795  0.44587  1.0000
  Fe  Fe66      1.0  0.60034  0.91556  0.34307  1.0000
  S   S130      1.0  0.59373  0.88816  0.31667  1.0000
  S   S131      1.0  0.58976  0.94637  0.32600  1.0000
  Fe  Fe67      1.0  0.58354  0.87745  0.36359  1.0000
  S   S132      1.0  0.55467  0.86570  0.38053  1.0000
  Fe  Fe68      1.0  0.62512  0.87635  0.33107  1.0000
  S   S133      1.0  0.58816  0.90593  0.38876  1.0000
  S   S134      1.0  0.63198  0.90456  0.35494  1.0000
  Fe  Fe69      1.0  0.43905  0.87316  0.35037  1.0000
  S   S135      1.0  0.44000  0.88649  0.39837  1.0000
  S   S136      1.0  0.46731  0.87030  0.32041  1.0000
  Fe  Fe70      1.0  0.39326  0.87139  0.35259  1.0000
  S   S137      1.0  0.39153  0.88447  0.40160  1.0000
  S   S138      1.0  0.36246  0.86587  0.33285  1.0000
  Fe  Fe71      1.0  0.41251  0.90541  0.38356  1.0000
  S   S139      1.0  0.40903  0.93737  0.39907  1.0000
  Fe  Fe72      1.0  0.41912  0.86426  0.41254  1.0000
  S   S140      1.0  0.42651  0.84883  0.45918  1.0000
  S   S141      1.0  0.41258  0.89396  0.33410  1.0000
  S   S142      1.0  0.41977  0.84915  0.36499  1.0000
  C   C554      1.0  0.35048  0.87094  0.29593  1.0000
  C   C555      1.0  0.33380  0.81819  0.23970  1.0000
  H   H991      1.0  0.63342  0.98285  0.43176  1.0000
  H   H992      1.0  0.33972  0.80821  0.17165  1.0000
  C   C556      1.0  0.35112  0.87515  0.23907  1.0000
  C   C557      1.0  0.36118  0.87318  0.26821  1.0000
  C   C558      1.0  0.54411  0.83989  0.45734  1.0000
  H   H993      1.0  0.35966  0.87612  0.21770  1.0000
  H   H994      1.0  0.37728  0.87259  0.26910  1.0000
  H   H995      1.0  0.47686  0.86676  0.47070  1.0000
  H   H996      1.0  0.58224  0.98716  0.34535  1.0000
  H   H997      1.0  0.56137  0.81823  0.40678  1.0000
  C   C559      1.0  0.41969  0.98790  0.35468  1.0000
  H   H998      1.0  0.38924  0.87328  0.47214  1.0000
  H   H999      1.0  0.59096  0.98452  0.49021  1.0000
  H   H1000     1.0  0.37021  0.80433  0.26996  1.0000
  C   C560      1.0  0.41471  0.97431  0.37745  1.0000
  C   C561      1.0  0.41562  0.95401  0.37026  1.0000
  C   C562      1.0  0.42188  0.94728  0.34040  1.0000
  C   C563      1.0  0.42655  0.96093  0.31738  1.0000
  C   C564      1.0  0.33019  0.77737  0.21014  1.0000
  H   H1001     1.0  0.41017  0.97962  0.40063  1.0000
  H   H1002     1.0  0.42328  0.93163  0.33502  1.0000
  H   H1003     1.0  0.43119  0.95573  0.29421  1.0000
  C   C565      1.0  0.53061  0.86812  0.36282  1.0000
  C   C566      1.0  0.52782  0.86880  0.33024  1.0000
  C   C567      1.0  0.50839  0.86939  0.31750  1.0000
  C   C568      1.0  0.49156  0.86949  0.33715  1.0000
  C   C569      1.0  0.49438  0.86920  0.36967  1.0000
  C   C570      1.0  0.51374  0.86839  0.38231  1.0000
  H   H1004     1.0  0.54064  0.86840  0.31486  1.0000
  H   H1005     1.0  0.50642  0.86953  0.29228  1.0000
  H   H1006     1.0  0.48166  0.86914  0.38511  1.0000
  H   H1007     1.0  0.51562  0.86789  0.40735  1.0000
  N   N29       1.0  0.61288  0.96765  0.46020  1.0000
  H   H1008     1.0  0.35718  0.92907  0.49610  1.0000
  H   H1009     1.0  0.36278  0.95092  0.47415  1.0000
  H   H1010     1.0  0.60831  0.86579  0.45734  1.0000
  H   H1011     1.0  0.34581  0.95267  0.31537  1.0000
  H   H1012     1.0  0.38601  0.99246  0.24149  1.0000
  C   C571      1.0  0.60589  0.96351  0.33873  1.0000
  C   C572      1.0  0.62643  0.95801  0.34129  1.0000
  C   C573      1.0  0.63375  0.97045  0.44907  1.0000
  C   C574      1.0  0.36023  0.92470  0.44669  1.0000
  H   H1013     1.0  0.63269  0.94344  0.33357  1.0000
  H   H1014     1.0  0.53806  0.84569  0.43442  1.0000
  H   H1015     1.0  0.49570  0.93333  0.28471  1.0000
  C   C575      1.0  0.63902  0.97165  0.35292  1.0000
  H   H1016     1.0  0.36289  0.90818  0.44857  1.0000
  C   C576      1.0  0.56640  0.83226  0.45187  1.0000
  H   H1017     1.0  0.42549  0.91594  0.26035  1.0000
  H   H1018     1.0  0.50343  0.83919  0.45777  1.0000
  H   H1019     1.0  0.45952  0.95182  0.39792  1.0000
  C   C577      1.0  0.56036  0.90780  0.48519  1.0000
  C   C578      1.0  0.35606  0.92129  0.32090  1.0000
  H   H1020     1.0  0.39735  0.96387  0.45746  1.0000
  H   H1021     1.0  0.33628  0.95259  0.21371  1.0000
  H   H1022     1.0  0.34127  0.91614  0.31587  1.0000
  H   H1023     1.0  0.36467  0.84335  0.48756  1.0000
  H   H1024     1.0  0.64299  0.97488  0.46916  1.0000
  C   C579      1.0  0.40207  0.97123  0.47913  1.0000
  H   H1025     1.0  0.65492  0.96746  0.35445  1.0000
  H   H1026     1.0  0.36366  0.98185  0.30125  1.0000
  C   C580      1.0  0.36636  0.93459  0.47704  1.0000
  H   H1027     1.0  0.45610  0.91192  0.49478  1.0000
  C   C581      1.0  0.57775  0.96356  0.43733  1.0000
  H   H1028     1.0  0.36576  0.96362  0.23468  1.0000
  C   C582      1.0  0.61133  0.87260  0.47964  1.0000
  H   H1029     1.0  0.42630  0.93775  0.48834  1.0000
  H   H1030     1.0  0.61521  0.93565  0.46501  1.0000
  H   H1031     1.0  0.56637  0.97990  0.39582  1.0000
  H   H1032     1.0  0.47055  0.94527  0.28622  1.0000
  H   H1033     1.0  0.60153  0.97772  0.41483  1.0000
  C   C583      1.0  0.54023  0.98995  0.32069  1.0000
  H   H1034     1.0  0.47240  0.91872  0.24741  1.0000
  N   N30       1.0  0.35785  0.94274  0.27033  1.0000
  C   C584      1.0  0.37205  0.97724  0.27950  1.0000
  C   C585      1.0  0.50338  0.84638  0.48132  1.0000
  H   H1035     1.0  0.44983  0.92924  0.43926  1.0000
  H   H1036     1.0  0.60576  0.95161  0.41818  1.0000
  H   H1037     1.0  0.49691  0.94054  0.39887  1.0000
  C   C586      1.0  0.56848  0.81423  0.42981  1.0000
  H   H1038     1.0  0.51313  0.94875  0.31994  1.0000
  C   C587      1.0  0.35962  0.96386  0.25901  1.0000
  H   H1039     1.0  0.57437  0.84397  0.44046  1.0000
  H   H1040     1.0  0.51855  0.94824  0.36051  1.0000
  C   C588      1.0  0.33806  0.81212  0.27439  1.0000
  H   H1041     1.0  0.34410  0.92883  0.44217  1.0000
  H   H1042     1.0  0.64712  0.93890  0.44849  1.0000
  C   C589      1.0  0.64557  0.95215  0.43292  1.0000
  C   C590      1.0  0.33024  0.87521  0.23723  1.0000
  H   H1043     1.0  0.53633  0.82646  0.46244  1.0000
  C   C591      1.0  0.62296  0.88861  0.48060  1.0000
  H   H1044     1.0  0.55016  0.96260  0.41121  1.0000
  H   H1045     1.0  0.48613  0.97333  0.39243  1.0000
  C   C592      1.0  0.48724  0.97739  0.36731  1.0000
  H   H1046     1.0  0.40642  0.89908  0.26116  1.0000
  H   H1047     1.0  0.37200  0.94700  0.31556  1.0000
  H   H1048     1.0  0.34665  0.93358  0.36671  1.0000
  H   H1049     1.0  0.58454  0.80944  0.42567  1.0000
  C   C593      1.0  0.35959  0.81479  0.28346  1.0000
  C   C594      1.0  0.55179  0.87260  0.47525  1.0000
  C   C595      1.0  0.41010  0.91389  0.25272  1.0000
  C   C596      1.0  0.48194  0.85505  0.48814  1.0000
  H   H1050     1.0  0.35589  0.90749  0.36686  1.0000
  H   H1051     1.0  0.54802  0.87825  0.45109  1.0000
  H   H1052     1.0  0.57100  0.97558  0.45295  1.0000
  H   H1053     1.0  0.56798  0.86761  0.47473  1.0000
  C   C597      1.0  0.46540  0.92770  0.43026  1.0000
  C   C598      1.0  0.35807  0.94197  0.30583  1.0000
  H   H1054     1.0  0.36879  0.92976  0.42644  1.0000
  H   H1055     1.0  0.46279  0.96213  0.34857  1.0000
  H   H1056     1.0  0.57223  0.95330  0.38978  1.0000
  N   N31       1.0  0.48894  0.94054  0.34941  1.0000
  C   C599      1.0  0.51086  0.94030  0.34187  1.0000
  C   C600      1.0  0.60016  0.96528  0.43152  1.0000
  C   C601      1.0  0.48691  0.93323  0.38268  1.0000
  C   C602      1.0  0.47883  0.92696  0.32775  1.0000
  H   H1057     1.0  0.51466  0.87195  0.45997  1.0000
  C   C603      1.0  0.52257  0.91939  0.33864  1.0000
  C   C604      1.0  0.46554  0.93586  0.39680  1.0000
  N   N32       1.0  0.53987  0.85542  0.48287  1.0000
  C   C605      1.0  0.48026  0.93143  0.29213  1.0000
  C   C606      1.0  0.47323  0.91444  0.27258  1.0000
  C   C607      1.0  0.54480  0.92097  0.33385  1.0000
  H   H1058     1.0  0.50307  0.97912  0.36181  1.0000
  H   H1059     1.0  0.39733  0.93116  0.46226  1.0000
  H   H1060     1.0  0.63813  0.94809  0.41093  1.0000
  H   H1061     1.0  0.37396  0.92978  0.23004  1.0000
  H   H1062     1.0  0.36787  0.90990  0.31229  1.0000
  H   H1063     1.0  0.48123  0.96685  0.32108  1.0000
  H   H1064     1.0  0.49202  0.91698  0.38412  1.0000
  H   H1065     1.0  0.48450  0.91108  0.33197  1.0000
  H   H1066     1.0  0.46262  0.92772  0.33301  1.0000
  C   C608      1.0  0.35806  0.92228  0.35661  1.0000
  H   H1067     1.0  0.55113  0.92866  0.35406  1.0000
  H   H1068     1.0  0.52096  0.91037  0.36005  1.0000
  H   H1069     1.0  0.51725  0.91128  0.31811  1.0000
  H   H1070     1.0  0.45518  0.92770  0.38271  1.0000
  C   C609      1.0  0.39445  0.99334  0.47674  1.0000
  H   H1071     1.0  0.56148  0.80154  0.44021  1.0000
  H   H1072     1.0  0.34671  0.81181  0.22552  1.0000
  H   H1073     1.0  0.47465  0.93618  0.44596  1.0000
  H   H1074     1.0  0.34496  0.78015  0.21964  1.0000
  C   C610      1.0  0.56597  0.96494  0.40659  1.0000
  H   H1075     1.0  0.48385  0.90077  0.27501  1.0000
  H   H1076     1.0  0.45826  0.91097  0.28044  1.0000
  H   H1077     1.0  0.57587  0.94876  0.44773  1.0000
  H   H1078     1.0  0.55274  0.90574  0.33200  1.0000
  H   H1079     1.0  0.54744  0.92922  0.31191  1.0000
  H   H1080     1.0  0.38661  0.96947  0.28665  1.0000
  H   H1081     1.0  0.36294  0.83032  0.27889  1.0000
  H   H1082     1.0  0.47112  0.91162  0.43067  1.0000
  C   C611      1.0  0.47922  0.96157  0.34551  1.0000
  C   C612      1.0  0.33396  0.93776  0.22352  1.0000
  C   C613      1.0  0.51793  0.86283  0.48146  1.0000
  C   C614      1.0  0.37399  0.92833  0.25605  1.0000
  C   C615      1.0  0.63100  0.99075  0.36211  1.0000
  C   C616      1.0  0.60568  0.98587  0.47943  1.0000
  H   H1083     1.0  0.34459  0.97244  0.25728  1.0000
  H   H1084     1.0  0.33438  0.83462  0.23835  1.0000
  C   C617      1.0  0.42530  0.98130  0.32449  1.0000
  H   H1085     1.0  0.34400  0.92622  0.21106  1.0000
  C   C618      1.0  0.33025  0.82258  0.17277  1.0000
  H   H1086     1.0  0.36186  0.81174  0.30892  1.0000
  H   H1087     1.0  0.39718  0.92999  0.29229  1.0000
  C   C619      1.0  0.59803  0.98277  0.34723  1.0000
  C   C620      1.0  0.39560  0.93062  0.26643  1.0000
  H   H1088     1.0  0.34027  0.74600  0.20305  1.0000
  H   H1089     1.0  0.40962  0.91414  0.22664  1.0000
  H   H1090     1.0  0.37093  0.91266  0.26047  1.0000
  H   H1091     1.0  0.40028  0.94492  0.25763  1.0000
  S   S143      1.0  0.64699  0.85992  0.29580  1.0000
  H   H1092     1.0  0.37317  0.92607  0.36322  1.0000
  H   H1093     1.0  0.55338  0.91325  0.46274  1.0000
  C   C621      1.0  0.38875  0.92896  0.48405  1.0000
  H   H1094     1.0  0.57642  0.90300  0.48101  1.0000
  C   C622      1.0  0.39681  0.86989  0.49419  1.0000
  H   H1095     1.0  0.36605  0.81695  0.49492  1.0000
  C   C623      1.0  0.41527  0.85831  0.49437  1.0000
  H   H1096     1.0  0.55100  0.97769  0.32973  1.0000
  H   H1097     1.0  0.33946  0.83390  0.18257  1.0000
  H   H1098     1.0  0.55701  0.99080  0.27816  1.0000
  H   H1099     1.0  0.62838  0.94749  0.49406  1.0000
  H   H1100     1.0  0.47183  0.84304  0.48654  1.0000
  C   C624      1.0  0.32955  0.87143  0.29413  1.0000
  H   H1101     1.0  0.39045  0.91255  0.48756  1.0000
  C   C625      1.0  0.33794  0.93668  0.25950  1.0000
  H   H1102     1.0  0.33634  0.92092  0.26604  1.0000
  H   H1103     1.0  0.41862  0.97016  0.47969  1.0000
  H   H1104     1.0  0.52726  0.98316  0.31076  1.0000
  C   C626      1.0  0.61418  0.94908  0.48039  1.0000
  H   H1105     1.0  0.33854  0.82912  0.12492  1.0000
  H   H1106     1.0  0.33574  0.79630  0.27861  1.0000
  H   H1107     1.0  0.57399  0.82788  0.47432  1.0000
  H   H1108     1.0  0.32874  0.75152  0.24067  1.0000
  H   H1109     1.0  0.56299  0.99253  0.17692  1.0000
  H   H1110     1.0  0.66022  0.99443  0.29799  1.0000
  H   H1111     1.0  0.58250  0.95480  0.49772  1.0000
  H   H1112     1.0  0.32983  0.77989  0.18443  1.0000
  H   H1113     1.0  0.42176  0.90213  0.49691  1.0000
  Fe  Fe73      1.0  0.59995  0.90657  0.67022  1.0000
  S   S144      1.0  0.60275  0.88559  0.71092  1.0000
  S   S145      1.0  0.59363  0.93878  0.68316  1.0000
  Fe  Fe74      1.0  0.60221  0.87359  0.62157  1.0000
  S   S146      1.0  0.60518  0.84985  0.65920  1.0000
  S   S147      1.0  0.59785  0.86357  0.57109  1.0000
  Fe  Fe75      1.0  0.58065  0.86909  0.68428  1.0000
  S   S148      1.0  0.55387  0.86158  0.71308  1.0000
  Fe  Fe76      1.0  0.62698  0.86869  0.68270  1.0000
  S   S149      1.0  0.57640  0.89140  0.64546  1.0000
  S   S150      1.0  0.62564  0.89100  0.64305  1.0000
  Fe  Fe77      1.0  0.43797  0.85823  0.67095  1.0000
  S   S151      1.0  0.42915  0.88779  0.64821  1.0000
  S   S152      1.0  0.46921  0.84453  0.65750  1.0000
  Fe  Fe78      1.0  0.39507  0.85642  0.69803  1.0000
  S   S153      1.0  0.38417  0.88605  0.67717  1.0000
  S   S154      1.0  0.37226  0.83819  0.72161  1.0000
  Fe  Fe79      1.0  0.40104  0.87533  0.63369  1.0000
  S   S155      1.0  0.38577  0.88120  0.58657  1.0000
  Fe  Fe80      1.0  0.41344  0.89520  0.69368  1.0000
  S   S156      1.0  0.41758  0.92455  0.71593  1.0000
  S   S157      1.0  0.41054  0.84502  0.65332  1.0000
  S   S158      1.0  0.42369  0.86636  0.71780  1.0000
  C   C627      1.0  0.39751  0.87230  0.55145  1.0000
  C   C628      1.0  0.41604  0.86086  0.55168  1.0000
  H   H1114     1.0  0.61455  0.95424  0.75400  1.0000
  H   H1115     1.0  0.42360  0.85743  0.57374  1.0000
  H   H1116     1.0  0.59870  0.84891  0.81300  1.0000
  C   C629      1.0  0.35161  0.84770  0.74542  1.0000
  H   H1117     1.0  0.37082  0.92848  0.71134  1.0000
  H   H1118     1.0  0.37260  0.83286  0.97386  1.0000
  H   H1119     1.0  0.50014  0.98922  0.72023  1.0000
  H   H1120     1.0  0.59892  0.83909  0.72192  1.0000
  H   H1121     1.0  0.34838  0.96932  0.70445  1.0000
  C   C630      1.0  0.33787  0.83467  0.75570  1.0000
  C   C631      1.0  0.35491  0.81991  0.55851  1.0000
  C   C632      1.0  0.40768  0.97230  0.64073  1.0000
  C   C633      1.0  0.65268  0.81299  0.75952  1.0000
  C   C634      1.0  0.42395  0.95987  0.68862  1.0000
  C   C635      1.0  0.41426  0.94256  0.68650  1.0000
  C   C636      1.0  0.40193  0.93971  0.66080  1.0000
  C   C637      1.0  0.39844  0.95473  0.63817  1.0000
  H   H1122     1.0  0.51357  0.87330  0.50095  1.0000
  H   H1123     1.0  0.43370  0.96202  0.70825  1.0000
  H   H1124     1.0  0.39462  0.92622  0.65879  1.0000
  H   H1125     1.0  0.38840  0.95291  0.61891  1.0000
  C   C638      1.0  0.53023  0.85863  0.69612  1.0000
  C   C639      1.0  0.51279  0.86338  0.71392  1.0000
  C   C640      1.0  0.49387  0.86004  0.70190  1.0000
  C   C641      1.0  0.49230  0.85123  0.67233  1.0000
  C   C642      1.0  0.50975  0.84646  0.65457  1.0000
  C   C643      1.0  0.52858  0.85038  0.66618  1.0000
  H   H1126     1.0  0.51393  0.86948  0.73730  1.0000
  H   H1127     1.0  0.48062  0.86351  0.71603  1.0000
  H   H1128     1.0  0.50872  0.83940  0.63187  1.0000
  H   H1129     1.0  0.54189  0.84633  0.65246  1.0000
  C   C644      1.0  0.60793  0.87359  0.53686  1.0000
  H   H1130     1.0  0.42663  0.79297  0.57762  1.0000
  C   C645      1.0  0.61940  0.88976  0.53786  1.0000
  H   H1131     1.0  0.62801  0.98590  0.67750  1.0000
  H   H1132     1.0  0.62306  0.98874  0.76400  1.0000
  C   C646      1.0  0.58985  0.97415  0.65222  1.0000
  C   C647      1.0  0.59925  0.95467  0.65283  1.0000
  C   C648      1.0  0.61389  0.94858  0.63057  1.0000
  C   C649      1.0  0.61963  0.96226  0.60841  1.0000
  H   H1133     1.0  0.39153  0.78918  0.59062  1.0000
  H   H1134     1.0  0.62127  0.93357  0.63106  1.0000
  C   C650      1.0  0.44958  0.90749  0.51734  1.0000
  H   H1135     1.0  0.63148  0.95778  0.59192  1.0000
  H   H1136     1.0  0.43626  0.93065  0.58872  1.0000
  H   H1137     1.0  0.53426  0.87072  0.54590  1.0000
  C   C651      1.0  0.42685  0.91128  0.51642  1.0000
  H   H1138     1.0  0.45631  0.92162  0.75544  1.0000
  C   C652      1.0  0.37005  0.94393  0.55544  1.0000
  H   H1139     1.0  0.36123  0.92278  0.74934  1.0000
  H   H1140     1.0  0.34241  0.83234  0.49847  1.0000
  H   H1141     1.0  0.37685  0.84314  0.90397  1.0000
  H   H1142     1.0  0.51093  0.93552  0.69708  1.0000
  H   H1143     1.0  0.38695  0.91627  0.54068  1.0000
  H   H1144     1.0  0.54459  0.82974  0.51393  1.0000
  H   H1145     1.0  0.65126  0.99364  0.62733  1.0000
  H   H1146     1.0  0.48118  0.95990  0.71692  1.0000
  C   C653      1.0  0.36768  0.83872  0.92391  1.0000
  C   C654      1.0  0.35875  0.83175  0.50241  1.0000
  H   H1147     1.0  0.39366  0.80437  0.55631  1.0000
  C   C655      1.0  0.60208  0.95159  0.53779  1.0000
  H   H1148     1.0  0.44081  0.95422  0.60589  1.0000
  C   C656      1.0  0.50878  0.91317  0.62548  1.0000
  H   H1149     1.0  0.60418  0.80610  0.69919  1.0000
  H   H1150     1.0  0.62580  0.92138  0.77440  1.0000
  C   C657      1.0  0.36043  0.93183  0.58057  1.0000
  H   H1151     1.0  0.35404  0.95865  0.76154  1.0000
  H   H1152     1.0  0.45927  0.94122  0.58038  1.0000
  C   C658      1.0  0.59692  0.94648  0.50396  1.0000
  C   C659      1.0  0.35081  0.84396  0.64159  1.0000
  H   H1153     1.0  0.34468  0.93482  0.72018  1.0000
  H   H1154     1.0  0.50783  0.83462  0.49894  1.0000
  H   H1155     1.0  0.50803  0.90471  0.67408  1.0000
  C   C660      1.0  0.49694  0.91094  0.65634  1.0000
  C   C661      1.0  0.34956  0.84086  0.60551  1.0000
  H   H1156     1.0  0.61206  0.88542  0.77901  1.0000
  C   C662      1.0  0.62411  0.99271  0.73885  1.0000
  C   C663      1.0  0.39390  0.96180  0.50911  1.0000
  H   H1157     1.0  0.55930  0.84865  0.57658  1.0000
  C   C664      1.0  0.62710  0.89706  0.50983  1.0000
  H   H1158     1.0  0.62254  0.89644  0.56021  1.0000
  H   H1159     1.0  0.58949  0.94893  0.55357  1.0000
  H   H1160     1.0  0.45893  0.89702  0.73777  1.0000
  H   H1161     1.0  0.42704  0.94249  0.52952  1.0000
  H   H1162     1.0  0.51635  0.96660  0.72719  1.0000
  H   H1163     1.0  0.65163  0.80453  0.78170  1.0000
  C   C665      1.0  0.61064  0.98193  0.60850  1.0000
  H   H1164     1.0  0.57828  0.97879  0.66911  1.0000
  C   C666      1.0  0.38189  0.82115  0.59830  1.0000
  C   C667      1.0  0.39528  0.80391  0.58222  1.0000
  H   H1165     1.0  0.45396  0.89129  0.52102  1.0000
  H   H1166     1.0  0.50925  0.94835  0.66093  1.0000
  H   H1167     1.0  0.37373  0.95816  0.56623  1.0000
  H   H1168     1.0  0.33128  0.77078  0.61868  1.0000
  C   C668      1.0  0.41731  0.80531  0.58958  1.0000
  H   H1169     1.0  0.34929  0.83242  0.87183  1.0000
  H   H1170     1.0  0.50993  0.88184  0.61176  1.0000
  H   H1171     1.0  0.64957  0.87781  0.76042  1.0000
  C   C669      1.0  0.50002  0.94354  0.68062  1.0000
  C   C670      1.0  0.47279  0.94046  0.64339  1.0000
  H   H1172     1.0  0.63631  0.90929  0.51082  1.0000
  H   H1173     1.0  0.62198  0.87493  0.81554  1.0000
  H   H1174     1.0  0.35618  0.85369  0.59471  1.0000
  H   H1175     1.0  0.38724  0.83556  0.59100  1.0000
  H   H1176     1.0  0.38520  0.81985  0.62383  1.0000
  C   C671      1.0  0.54371  0.84501  0.57379  1.0000
  H   H1177     1.0  0.33848  0.82162  0.55487  1.0000
  H   H1178     1.0  0.58844  0.85925  0.77638  1.0000
  H   H1179     1.0  0.53503  0.85104  0.59444  1.0000
  C   C672      1.0  0.50711  0.97521  0.70925  1.0000
  H   H1180     1.0  0.61597  0.98729  0.49968  1.0000
  N   N33       1.0  0.35972  0.82143  0.59299  1.0000
  H   H1181     1.0  0.46097  0.93689  0.70136  1.0000
  C   C673      1.0  0.32967  0.80294  0.61064  1.0000
  H   H1182     1.0  0.33984  0.81918  0.74848  1.0000
  H   H1183     1.0  0.48073  0.86149  0.51219  1.0000
  C   C674      1.0  0.64071  0.95855  0.72470  1.0000
  H   H1184     1.0  0.42009  0.80405  0.61527  1.0000
  H   H1185     1.0  0.48698  0.89890  0.65274  1.0000
  C   C675      1.0  0.34067  0.84734  0.87117  1.0000
  H   H1186     1.0  0.48240  0.94662  0.62531  1.0000
  H   H1187     1.0  0.38006  0.95207  0.75203  1.0000
  H   H1188     1.0  0.38544  0.85312  0.95844  1.0000
  H   H1189     1.0  0.49026  0.92723  0.73682  1.0000
  H   H1190     1.0  0.56045  0.81340  0.72096  1.0000
  H   H1191     1.0  0.36009  0.80476  0.54933  1.0000
  H   H1192     1.0  0.61547  0.94189  0.54577  1.0000
  H   H1193     1.0  0.49319  0.90270  0.71976  1.0000
  H   H1194     1.0  0.37422  0.96462  0.69732  1.0000
  C   C676      1.0  0.38788  0.87666  0.52265  1.0000
  H   H1195     1.0  0.60489  0.96745  0.54010  1.0000
  H   H1196     1.0  0.39800  0.98206  0.72370  1.0000
  H   H1197     1.0  0.36653  0.84418  0.64909  1.0000
  H   H1198     1.0  0.35440  0.86884  0.92907  1.0000
  C   C677      1.0  0.44794  0.93929  0.59875  1.0000
  H   H1199     1.0  0.36311  0.86924  0.87275  1.0000
  H   H1200     1.0  0.34103  0.86584  0.67726  1.0000
  C   C678      1.0  0.42096  0.97453  0.66537  1.0000
  C   C679      1.0  0.63090  0.95000  0.75411  1.0000
  H   H1201     1.0  0.36400  0.82337  0.91919  1.0000
  H   H1202     1.0  0.51685  0.97935  0.68975  1.0000
  C   C680      1.0  0.59561  0.98779  0.63018  1.0000
  H   H1203     1.0  0.63674  0.95546  0.77639  1.0000
  H   H1204     1.0  0.59631  0.88551  0.81315  1.0000
  C   C681      1.0  0.60213  0.85646  0.79086  1.0000
  C   C682      1.0  0.36001  0.93387  0.72996  1.0000
  C   C683      1.0  0.35260  0.80376  0.60978  1.0000
  N   N34       1.0  0.61444  0.82376  0.76066  1.0000
  C   C684      1.0  0.59688  0.82674  0.73850  1.0000
  C   C685      1.0  0.61902  0.84385  0.77299  1.0000
  H   H1205     1.0  0.63419  0.82452  0.72054  1.0000
  C   C686      1.0  0.61116  0.80962  0.78732  1.0000
  C   C687      1.0  0.58939  0.80905  0.79912  1.0000
  H   H1206     1.0  0.43900  0.84465  0.52358  1.0000
  C   C688      1.0  0.63240  0.81524  0.74184  1.0000
  H   H1207     1.0  0.44549  0.92556  0.64365  1.0000
  H   H1208     1.0  0.63201  0.95365  0.70430  1.0000
  C   C689      1.0  0.58883  0.79698  0.82943  1.0000
  H   H1209     1.0  0.35645  0.85090  0.54279  1.0000
  H   H1210     1.0  0.60196  0.97524  0.71631  1.0000
  C   C690      1.0  0.36313  0.97000  0.71566  1.0000
  H   H1211     1.0  0.59573  0.78144  0.82573  1.0000
  H   H1212     1.0  0.63176  0.84213  0.78970  1.0000
  H   H1213     1.0  0.62384  0.85310  0.75320  1.0000
  H   H1214     1.0  0.56996  0.79700  0.68969  1.0000
  H   H1215     1.0  0.46457  0.91345  0.61856  1.0000
  H   H1216     1.0  0.61635  0.79393  0.78059  1.0000
  H   H1217     1.0  0.62060  0.81284  0.80784  1.0000
  H   H1218     1.0  0.58042  0.80182  0.78136  1.0000
  C   C691      1.0  0.34887  0.86769  0.75504  1.0000
  C   C692      1.0  0.65809  0.97485  0.66830  1.0000
  C   C693      1.0  0.53447  0.85433  0.54379  1.0000
  H   H1219     1.0  0.34431  0.83201  0.65479  1.0000
  N   N35       1.0  0.48537  0.92976  0.66872  1.0000
  C   C694      1.0  0.36470  0.95422  0.74232  1.0000
  H   H1220     1.0  0.42200  0.81970  0.58109  1.0000
  H   H1221     1.0  0.37969  0.83537  0.53914  1.0000
  H   H1222     1.0  0.40059  0.96881  0.52985  1.0000
  H   H1223     1.0  0.57309  0.79642  0.83688  1.0000
  H   H1224     1.0  0.33127  0.88975  0.78286  1.0000
  H   H1225     1.0  0.53107  0.88804  0.63475  1.0000
  H   H1226     1.0  0.59688  0.80406  0.84854  1.0000
  S   S159      1.0  0.40217  0.99133  0.61321  1.0000
  H   H1227     1.0  0.33192  0.81117  0.89414  1.0000
  C   C695      1.0  0.38941  0.93230  0.54231  1.0000
  H   H1228     1.0  0.46239  0.91244  0.68612  1.0000
  H   H1229     1.0  0.42114  0.90578  0.53888  1.0000
  C   C696      1.0  0.60351  0.99078  0.72355  1.0000
  H   H1230     1.0  0.37340  0.88526  0.52230  1.0000
  H   H1231     1.0  0.34408  0.87416  0.84353  1.0000
  H   H1232     1.0  0.51976  0.92424  0.62830  1.0000
  H   H1233     1.0  0.65019  0.92194  0.75737  1.0000
  H   H1234     1.0  0.32950  0.78583  0.65411  1.0000
  H   H1235     1.0  0.47506  0.90267  0.76963  1.0000
  H   H1236     1.0  0.35920  0.84331  0.81377  1.0000
  H   H1237     1.0  0.65143  0.98445  0.78847  1.0000
  H   H1238     1.0  0.59581  0.85210  0.50681  1.0000
  C   C697      1.0  0.34879  0.85384  0.92789  1.0000
  C   C698      1.0  0.49082  0.96306  0.69682  1.0000
  H   H1239     1.0  0.37929  0.84110  0.84198  1.0000
  C   C699      1.0  0.38077  0.83810  0.95329  1.0000
  C   C700      1.0  0.47179  0.92403  0.69462  1.0000
  H   H1240     1.0  0.49865  0.91793  0.60575  1.0000
  H   H1241     1.0  0.58172  0.82409  0.80361  1.0000
  C   C701      1.0  0.60413  0.86496  0.50768  1.0000
  H   H1242     1.0  0.35869  0.94780  0.53716  1.0000
  C   C702      1.0  0.36774  0.85169  0.83065  1.0000
  C   C703      1.0  0.60859  0.87680  0.80016  1.0000
  H   H1243     1.0  0.59421  0.79445  0.73284  1.0000
  C   C704      1.0  0.46717  0.90886  0.74833  1.0000
  H   H1244     1.0  0.51878  0.85073  0.54302  1.0000
  H   H1245     1.0  0.39439  0.82757  0.94952  1.0000
  H   H1246     1.0  0.35903  0.78959  0.59861  1.0000
  H   H1247     1.0  0.53412  0.89621  0.50266  1.0000
  H   H1248     1.0  0.46367  0.95372  0.65329  1.0000
  C   C705      1.0  0.52033  0.89335  0.61602  1.0000
  H   H1249     1.0  0.54355  0.82853  0.57341  1.0000
  H   H1250     1.0  0.52890  0.89532  0.59417  1.0000
  H   H1251     1.0  0.63023  0.80006  0.73295  1.0000
  C   C706      1.0  0.36329  0.83564  0.53693  1.0000
  C   C707      1.0  0.63412  0.92718  0.75447  1.0000
  C   C708      1.0  0.42477  0.85371  0.52324  1.0000
  H   H1252     1.0  0.62854  0.92094  0.73233  1.0000
  H   H1253     1.0  0.55917  0.92029  0.50237  1.0000
  C   C709      1.0  0.45760  0.92812  0.62698  1.0000
  C   C710      1.0  0.48228  0.91570  0.72498  1.0000
  H   H1254     1.0  0.58290  0.83195  0.75109  1.0000
  H   H1255     1.0  0.57134  0.82344  0.68629  1.0000
  H   H1256     1.0  0.35933  0.87787  0.74753  1.0000
  C   C711      1.0  0.57241  0.81073  0.70301  1.0000
  C   C712      1.0  0.59300  0.80823  0.71843  1.0000
  H   H1257     1.0  0.33359  0.84287  0.59841  1.0000
  H   H1258     1.0  0.34246  0.85159  0.95166  1.0000
  H   H1259     1.0  0.48177  0.97277  0.67999  1.0000
  C   C713      1.0  0.64245  0.98720  0.68948  1.0000
  H   H1260     1.0  0.35826  0.80290  0.63441  1.0000
  C   C714      1.0  0.35384  0.86210  0.85536  1.0000
  H   H1261     1.0  0.35674  0.98560  0.65725  1.0000
  C   C715      1.0  0.33286  0.87438  0.77512  1.0000
  H   H1262     1.0  0.65759  0.82779  0.76520  1.0000
  C   C716      1.0  0.54606  0.84608  0.51418  1.0000
  H   H1263     1.0  0.65136  0.96174  0.65858  1.0000
  H   H1264     1.0  0.33539  0.81502  0.93589  1.0000
  C   C717      1.0  0.33952  0.86385  0.65147  1.0000
  H   H1265     1.0  0.40062  0.93304  0.56148  1.0000
  N   N36       1.0  0.64177  0.98086  0.72349  1.0000
  H   H1266     1.0  0.37532  0.86293  0.81740  1.0000
  N   N37       1.0  0.36635  0.99111  0.72491  1.0000
  H   H1267     1.0  0.58674  0.98792  0.76685  1.0000
  H   H1268     1.0  0.55727  0.88601  0.52087  1.0000
  H   H1269     1.0  0.56222  0.84720  0.51847  1.0000
  C   C718      1.0  0.66053  0.98689  0.73881  1.0000
  C   C719      1.0  0.41981  0.93377  0.51124  1.0000
  H   H1270     1.0  0.42914  0.98739  0.66641  1.0000
  H   H1271     1.0  0.65592  0.95061  0.72186  1.0000
  H   H1272     1.0  0.37139  0.92669  0.59908  1.0000
  H   H1273     1.0  0.59424  0.93046  0.50392  1.0000
  H   H1274     1.0  0.34579  0.87646  0.63949  1.0000
  H   H1275     1.0  0.45571  0.91587  0.53693  1.0000
  S   S160      1.0  0.65767  0.85565  0.70109  1.0000
  H   H1276     1.0  0.35466  0.91851  0.56981  1.0000
  H   H1277     1.0  0.37779  0.96704  0.51029  1.0000
  N   N38       1.0  0.39748  0.93933  0.51149  1.0000
  H   H1278     1.0  0.38760  0.98229  0.76205  1.0000
  C   C720      1.0  0.38691  0.99046  0.73933  1.0000
  H   H1279     1.0  0.34779  0.94116  0.59168  1.0000
  N   N39       1.0  0.33263  0.85352  0.90322  1.0000
  H   H1280     1.0  0.33256  0.88518  0.89389  1.0000
  H   H1281     1.0  0.35367  0.99127  0.77165  1.0000
  C   C721      1.0  0.54987  0.89049  0.49826  1.0000
  Fe  Fe81      1.0  0.78796  0.08049  0.14284  1.0000
  S   S161      1.0  0.75781  0.09815  0.14171  1.0000
  S   S162      1.0  0.81758  0.09431  0.15312  1.0000
  Fe  Fe82      1.0  0.76897  0.04072  0.12943  1.0000
  S   S163      1.0  0.73786  0.05658  0.12724  1.0000
  S   S164      1.0  0.76967  0.00798  0.11452  1.0000
  Fe  Fe83      1.0  0.75213  0.07954  0.09903  1.0000
  S   S165      1.0  0.74002  0.09398  0.05372  1.0000
  Fe  Fe84      1.0  0.74623  0.07334  0.17023  1.0000
  S   S166      1.0  0.72945  0.07782  0.21757  1.0000
  S   S167      1.0  0.78271  0.06303  0.09875  1.0000
  S   S168      1.0  0.77691  0.05635  0.17379  1.0000
  Fe  Fe85      1.0  0.91632  0.38540  0.33087  1.0000
  S   S169      1.0  0.94770  0.38224  0.34783  1.0000
  S   S170      1.0  0.90087  0.41712  0.33555  1.0000
  Fe  Fe86      1.0  0.91705  0.33968  0.32017  1.0000
  S   S171      1.0  0.94851  0.33421  0.33844  1.0000
  S   S172      1.0  0.90349  0.31084  0.30686  1.0000
  Fe  Fe87      1.0  0.93930  0.35659  0.37642  1.0000
  S   S173      1.0  0.95260  0.35555  0.42571  1.0000
  Fe  Fe88      1.0  0.95361  0.36046  0.30852  1.0000
  S   S174      1.0  0.98126  0.36189  0.27977  1.0000
  S   S175      1.0  0.90727  0.36021  0.36115  1.0000
  S   S176      1.0  0.92276  0.36536  0.28848  1.0000
  Fe  Fe89      1.0  0.91383  0.21279  0.09026  1.0000
  S   S177      1.0  0.91788  0.18223  0.11172  1.0000
  S   S178      1.0  0.92536  0.21397  0.04035  1.0000
  Fe  Fe90      1.0  0.90440  0.23318  0.15507  1.0000
  S   S179      1.0  0.90744  0.20345  0.18007  1.0000
  S   S180      1.0  0.90285  0.26536  0.17400  1.0000
  Fe  Fe91      1.0  0.93497  0.19658  0.14958  1.0000
  S   S181      1.0  0.96641  0.18417  0.16493  1.0000
  Fe  Fe92      1.0  0.88985  0.19173  0.13925  1.0000
  S   S182      1.0  0.86136  0.17479  0.13573  1.0000
  S   S183      1.0  0.93227  0.22634  0.12655  1.0000
  S   S184      1.0  0.88533  0.22227  0.11599  1.0000
  C   C722      1.0  0.90388  0.29828  0.26977  1.0000
  C   C723      1.0  0.90033  0.27800  0.26860  1.0000
  C   C724      1.0  0.90031  0.26754  0.23973  1.0000
  C   C725      1.0  0.90338  0.27737  0.21146  1.0000
  C   C726      1.0  0.90692  0.29763  0.21264  1.0000
  C   C727      1.0  0.90735  0.30797  0.24152  1.0000
  H   H1282     1.0  0.89751  0.27035  0.29022  1.0000
  H   H1283     1.0  0.89745  0.25203  0.23930  1.0000
  H   H1284     1.0  0.90925  0.30545  0.19098  1.0000
  H   H1285     1.0  0.90997  0.32355  0.24188  1.0000
  C   C728      1.0  0.89244  0.22856  0.00500  1.0000
  H   H1286     1.0  0.96992  0.15318  0.09807  1.0000
  C   C729      1.0  0.93690  0.48227  0.44221  1.0000
  H   H1287     1.0  0.96739  0.42422  0.43914  1.0000
  H   H1288     1.0  0.88530  0.23345  0.02683  1.0000
  C   C730      1.0  0.91746  0.36138  0.45994  1.0000
  C   C731      1.0  0.93831  0.35946  0.46038  1.0000
  H   H1289     1.0  0.90692  0.49049  0.22816  1.0000
  H   H1290     1.0  0.90966  0.36085  0.43780  1.0000
  C   C732      1.0  0.92540  0.30506  0.49255  1.0000
  H   H1291     1.0  0.99067  0.44588  0.28636  1.0000
  H   H1292     1.0  0.97048  0.26158  0.07847  1.0000
  H   H1293     1.0  0.91828  0.32070  0.49476  1.0000
  H   H1294     1.0  0.97259  0.22230  0.13537  1.0000
  H   H1295     1.0  0.98576  0.27749  0.23311  1.0000
  H   H1296     1.0  0.95629  0.45571  0.30547  1.0000
  H   H1297     1.0  0.99016  0.42495  0.39191  1.0000
  C   C733      1.0  0.71464  0.01791  0.27604  1.0000
  H   H1298     1.0  0.71172  0.03446  0.27508  1.0000
  H   H1299     1.0  0.96438  0.35835  0.48991  1.0000
  C   C734      1.0  0.90620  0.45618  0.34993  1.0000
  C   C735      1.0  0.91436  0.43846  0.33521  1.0000
  C   C736      1.0  0.93271  0.43833  0.31978  1.0000
  H   H1300     1.0  0.89202  0.45643  0.36192  1.0000
  H   H1301     1.0  0.93917  0.42482  0.30831  1.0000
  C   C737      1.0  0.82960  0.11665  0.14656  1.0000
  C   C738      1.0  0.81980  0.13401  0.13322  1.0000
  C   C739      1.0  0.82980  0.15144  0.12983  1.0000
  C   C740      1.0  0.84982  0.15191  0.13945  1.0000
  C   C741      1.0  0.85970  0.13446  0.15229  1.0000
  C   C742      1.0  0.84964  0.11710  0.15597  1.0000
  H   H1302     1.0  0.80439  0.13415  0.12608  1.0000
  H   H1303     1.0  0.82187  0.16478  0.11999  1.0000
  H   H1304     1.0  0.87501  0.13441  0.15997  1.0000
  H   H1305     1.0  0.85748  0.10389  0.16637  1.0000
  H   H1306     1.0  0.97374  0.28505  0.18491  1.0000
  H   H1307     1.0  0.95607  0.44234  0.39031  1.0000
  C   C743      1.0  0.97799  0.22274  0.05487  1.0000
  H   H1308     1.0  0.96369  0.28875  0.12933  1.0000
  N   N40       1.0  0.69761  0.00902  0.29198  1.0000
  C   C744      1.0  0.70450  0.07528  0.23063  1.0000
  C   C745      1.0  0.69986  0.07801  0.26276  1.0000
  C   C746      1.0  0.68028  0.07683  0.27420  1.0000
  C   C747      1.0  0.68923  0.07097  0.21016  1.0000
  H   H1309     1.0  0.71143  0.08142  0.27891  1.0000
  H   H1310     1.0  0.81829  0.10152  0.01982  1.0000
  H   H1311     1.0  0.69241  0.06889  0.18540  1.0000
  H   H1312     1.0  0.93173  0.17502  0.00695  1.0000
  C   C748      1.0  0.74284  0.08033  0.01811  1.0000
  C   C749      1.0  0.74953  0.05996  0.01777  1.0000
  C   C750      1.0  0.69642  0.01589  0.32575  1.0000
  H   H1313     1.0  0.75297  0.05220  0.03967  1.0000
  N   N41       1.0  0.78027  0.13030  0.22767  1.0000
  C   C751      1.0  0.76618  0.13831  0.20199  1.0000
  C   C752      1.0  0.80083  0.13705  0.22271  1.0000
  C   C753      1.0  0.78222  0.10775  0.22539  1.0000
  C   C754      1.0  0.77247  0.13606  0.25998  1.0000
  C   C755      1.0  0.76727  0.15864  0.26622  1.0000
  C   C756      1.0  0.74433  0.13302  0.20462  1.0000
  C   C757      1.0  0.79741  0.09648  0.24834  1.0000
  C   C758      1.0  0.80206  0.15805  0.20820  1.0000
  C   C759      1.0  0.82305  0.16454  0.21151  1.0000
  C   C760      1.0  0.75661  0.16219  0.29774  1.0000
  C   C761      1.0  0.73117  0.14343  0.17903  1.0000
  C   C762      1.0  0.79992  0.07410  0.24148  1.0000
  H   H1314     1.0  0.77216  0.13297  0.17867  1.0000
  H   H1315     1.0  0.76520  0.15480  0.20060  1.0000
  H   H1316     1.0  0.80933  0.13634  0.24519  1.0000
  H   H1317     1.0  0.80980  0.12662  0.20647  1.0000
  H   H1318     1.0  0.78650  0.10295  0.20102  1.0000
  H   H1319     1.0  0.76768  0.10182  0.22997  1.0000
  H   H1320     1.0  0.75916  0.12816  0.26553  1.0000
  H   H1321     1.0  0.78363  0.13086  0.27821  1.0000
  H   H1322     1.0  0.75732  0.16586  0.24790  1.0000
  H   H1323     1.0  0.78117  0.16613  0.26742  1.0000
  H   H1324     1.0  0.74358  0.11676  0.20193  1.0000
  H   H1325     1.0  0.73761  0.13776  0.22754  1.0000
  H   H1326     1.0  0.79214  0.09840  0.27296  1.0000
  H   H1327     1.0  0.81241  0.10180  0.24652  1.0000
  H   H1328     1.0  0.79848  0.15762  0.18273  1.0000
  H   H1329     1.0  0.79154  0.16971  0.21917  1.0000
  H   H1330     1.0  0.82641  0.16746  0.23654  1.0000
  H   H1331     1.0  0.83438  0.15283  0.20235  1.0000
  H   H1332     1.0  0.82420  0.17845  0.19791  1.0000
  H   H1333     1.0  0.75345  0.17850  0.30200  1.0000
  H   H1334     1.0  0.74220  0.15550  0.29765  1.0000
  H   H1335     1.0  0.76608  0.15562  0.31724  1.0000
  H   H1336     1.0  0.71590  0.13867  0.18066  1.0000
  H   H1337     1.0  0.73016  0.15990  0.18199  1.0000
  H   H1338     1.0  0.73720  0.13941  0.15533  1.0000
  H   H1339     1.0  0.81011  0.06631  0.25907  1.0000
  H   H1340     1.0  0.78531  0.06784  0.24270  1.0000
  H   H1341     1.0  0.80660  0.07124  0.21782  1.0000
  N   N42       1.0  0.96956  0.25174  0.22443  1.0000
  C   C763      1.0  0.95633  0.23939  0.24329  1.0000
  C   C764      1.0  0.97354  0.26977  0.24366  1.0000
  C   C765      1.0  0.95892  0.25773  0.19420  1.0000
  H   H1342     1.0  0.98091  0.40184  0.37988  1.0000
  C   C766      1.0  0.91979  0.41344  0.42329  1.0000
  C   C767      1.0  0.95377  0.21827  0.23018  1.0000
  C   C768      1.0  0.96946  0.27175  0.17230  1.0000
  H   H1343     1.0  0.97669  0.48905  0.40246  1.0000
  H   H1344     1.0  0.86971  0.40386  0.43000  1.0000
  C   C769      1.0  0.86239  0.19851  0.04280  1.0000
  C   C770      1.0  0.93921  0.20780  0.25027  1.0000
  C   C771      1.0  0.95577  0.27913  0.14520  1.0000
  H   H1345     1.0  0.94102  0.24727  0.24517  1.0000
  H   H1346     1.0  0.96166  0.23764  0.26797  1.0000
  H   H1347     1.0  0.94636  0.42027  0.37593  1.0000
  C   C772      1.0  0.97901  0.20090  0.00868  1.0000
  H   H1348     1.0  0.94359  0.26481  0.19912  1.0000
  H   H1349     1.0  0.95669  0.24435  0.17985  1.0000
  H   H1350     1.0  0.87557  0.48471  0.32020  1.0000
  C   C773      1.0  0.71877  0.01144  0.24145  1.0000
  H   H1351     1.0  0.92587  0.45056  0.41280  1.0000
  C   C774      1.0  0.85847  0.17625  0.04388  1.0000
  H   H1352     1.0  0.94780  0.21907  0.20592  1.0000
  H   H1353     1.0  0.89785  0.16893  0.05565  1.0000
  H   H1354     1.0  0.94255  0.27845  0.25841  1.0000
  H   H1355     1.0  0.99139  0.14833  0.07279  1.0000
  H   H1356     1.0  0.95071  0.29304  0.22649  1.0000
  H   H1357     1.0  0.99389  0.38354  0.44190  1.0000
  C   C775      1.0  0.67859  0.01568  0.27455  1.0000
  C   C776      1.0  0.95536  0.28550  0.24886  1.0000
  H   H1358     1.0  0.73825  0.03472  0.23217  1.0000
  H   H1359     1.0  0.94793  0.29142  0.45829  1.0000
  C   C777      1.0  0.96010  0.30159  0.27224  1.0000
  H   H1360     1.0  0.67715  0.04425  0.32161  1.0000
  H   H1361     1.0  0.92422  0.21641  0.25020  1.0000
  H   H1362     1.0  0.93777  0.19272  0.24042  1.0000
  H   H1363     1.0  0.94471  0.20608  0.27481  1.0000
  H   H1364     1.0  0.96816  0.20863  0.23005  1.0000
  H   H1365     1.0  0.95122  0.26633  0.13143  1.0000
  H   H1366     1.0  0.94320  0.14976  0.00973  1.0000
  H   H1367     1.0  0.92137  0.48712  0.44980  1.0000
  C   C778      1.0  0.94306  0.46064  0.45192  1.0000
  H   H1368     1.0  0.91759  0.41929  0.39900  1.0000
  C   C779      1.0  0.91609  0.47367  0.34883  1.0000
  H   H1369     1.0  0.89206  0.42995  0.44194  1.0000
  H   H1370     1.0  0.91569  0.29516  0.42965  1.0000
  C   C780      1.0  0.98921  0.24001  0.21665  1.0000
  C   C781      1.0  0.97826  0.41838  0.37857  1.0000
  H   H1371     1.0  0.72180  0.01512  0.15218  1.0000
  H   H1372     1.0  0.93192  0.40183  0.47631  1.0000
  H   H1373     1.0  0.97918  0.42280  0.35353  1.0000
  H   H1374     1.0  0.68903  0.05995  0.36974  1.0000
  C   C782      1.0  0.79201  0.11707  0.06380  1.0000
  H   H1375     1.0  0.91392  0.32194  0.43521  1.0000
  C   C783      1.0  0.88422  0.40414  0.41771  1.0000
  H   H1376     1.0  0.91415  0.45046  0.44971  1.0000
  H   H1377     1.0  0.84876  0.22765  0.05738  1.0000
  C   C784      1.0  0.78744  0.10915  0.03120  1.0000
  H   H1378     1.0  0.98266  0.34424  0.21396  1.0000
  C   C785      1.0  0.69214  0.04357  0.36630  1.0000
  H   H1379     1.0  0.68051  0.03609  0.37885  1.0000
  H   H1380     1.0  0.89022  0.38853  0.41241  1.0000
  H   H1381     1.0  0.84307  0.17511  0.03502  1.0000
  H   H1382     1.0  0.97908  0.26504  0.26740  1.0000
  H   H1383     1.0  0.94183  0.26356  0.48029  1.0000
  C   C786      1.0  0.92439  0.30816  0.43291  1.0000
  H   H1384     1.0  0.85804  0.17281  0.06944  1.0000
  H   H1385     1.0  0.97771  0.31870  0.20892  1.0000
  C   C787      1.0  0.89866  0.41435  0.43843  1.0000
  C   C788      1.0  0.95510  0.41850  0.42573  1.0000
  H   H1386     1.0  0.71969  0.99506  0.23856  1.0000
  C   C789      1.0  0.97267  0.24256  0.03684  1.0000
  H   H1387     1.0  0.94731  0.31778  0.46249  1.0000
  H   H1388     1.0  0.70669  0.01833  0.22595  1.0000
  H   H1389     1.0  0.98623  0.24892  0.02840  1.0000
  H   H1390     1.0  0.95843  0.40190  0.42605  1.0000
  H   H1391     1.0  0.83901  0.10884  0.06949  1.0000
  N   N43       1.0  0.99048  0.20651  0.03728  1.0000
  H   H1392     1.0  0.80408  0.10716  0.07525  1.0000
  H   H1393     1.0  0.79638  0.13250  0.06241  1.0000
  H   H1394     1.0  0.77848  0.11727  0.07877  1.0000
  C   C790      1.0  0.94241  0.45589  0.31823  1.0000
  H   H1395     1.0  0.92440  0.48876  0.14515  1.0000
  H   H1396     1.0  0.93790  0.48390  0.41627  1.0000
  H   H1397     1.0  0.97317  0.30906  0.26453  1.0000
  H   H1398     1.0  0.98546  0.35367  0.34554  1.0000
  H   H1399     1.0  0.94717  0.25260  0.06647  1.0000
  C   C791      1.0  0.69197  0.03868  0.33121  1.0000
  N   N44       1.0  0.93500  0.42436  0.44074  1.0000
  H   H1400     1.0  0.95864  0.45676  0.44401  1.0000
  H   H1401     1.0  0.95725  0.27210  0.04454  1.0000
  H   H1402     1.0  0.87977  0.14215  0.06770  1.0000
  H   H1403     1.0  0.92529  0.39732  0.42050  1.0000
  C   C792      1.0  0.92870  0.44646  0.43788  1.0000
  H   H1404     1.0  0.98688  0.22739  0.20074  1.0000
  H   H1405     1.0  0.75121  0.01090  0.24334  1.0000
  H   H1406     1.0  0.94700  0.49229  0.45328  1.0000
  H   H1407     1.0  0.98815  0.16854  0.00502  1.0000
  H   H1408     1.0  0.84451  0.13217  0.02572  1.0000
  H   H1409     1.0  0.70339  0.04709  0.32013  1.0000
  H   H1410     1.0  0.86415  0.20368  0.01854  1.0000
  C   C793      1.0  0.66489  0.07298  0.25363  1.0000
  H   H1411     1.0  0.96357  0.21753  0.06201  1.0000
  H   H1412     1.0  0.91202  0.13793  0.02631  1.0000
  H   H1413     1.0  0.74069  0.01437  0.20460  1.0000
  C   C794      1.0  0.91191  0.21911  0.00528  1.0000
  H   H1414     1.0  0.88447  0.48778  0.26530  1.0000
  H   H1415     1.0  0.96744  0.18874  0.08685  1.0000
  H   H1416     1.0  0.84224  0.14432  0.06338  1.0000
  H   H1417     1.0  0.96296  0.24015  0.01639  1.0000
  H   H1418     1.0  0.90951  0.48726  0.35990  1.0000
  H   H1419     1.0  0.70695  0.03871  0.37674  1.0000
  C   C795      1.0  0.73843  0.01827  0.22980  1.0000
  H   H1420     1.0  0.89923  0.40667  0.46150  1.0000
  H   H1421     1.0  0.89053  0.36444  0.48784  1.0000
  H   H1422     1.0  0.96719  0.17473  0.05089  1.0000
  H   H1423     1.0  0.68492  0.00841  0.33879  1.0000
  H   H1424     1.0  0.70294  0.01677  0.12202  1.0000
  C   C796      1.0  0.91364  0.48900  0.16495  1.0000
  H   H1425     1.0  0.92271  0.42638  0.48782  1.0000
  H   H1426     1.0  0.86253  0.10210  0.05014  1.0000
  H   H1427     1.0  0.94708  0.31308  0.27406  1.0000
  C   C797      1.0  0.85401  0.11361  0.06494  1.0000
  H   H1428     1.0  0.71071  0.01135  0.33803  1.0000
  C   C798      1.0  0.98326  0.15954  0.08856  1.0000
  H   H1429     1.0  0.99197  0.33030  0.17966  1.0000
  C   C799      1.0  0.95467  0.41840  0.49375  1.0000
  H   H1430     1.0  0.94247  0.46006  0.47795  1.0000
  H   H1431     1.0  0.67699  0.03216  0.27095  1.0000
  H   H1432     1.0  0.78396  0.09354  0.03436  1.0000
  H   H1433     1.0  0.93439  0.16291  0.04485  1.0000
  H   H1434     1.0  0.88200  0.12938  0.03090  1.0000
  H   H1435     1.0  0.88148  0.41241  0.39534  1.0000
  H   H1436     1.0  0.77384  0.11814  0.02246  1.0000
  C   C800      1.0  0.94826  0.35991  0.48932  1.0000
  H   H1437     1.0  0.89541  0.18220  0.02007  1.0000
  C   C801      1.0  0.98692  0.21461  0.14096  1.0000
  H   H1438     1.0  0.96154  0.43245  0.49031  1.0000
  H   H1439     1.0  0.87616  0.20078  0.05611  1.0000
  C   C802      1.0  0.66960  0.06995  0.22157  1.0000
  H   H1440     1.0  0.84332  0.20756  0.08283  1.0000
  H   H1441     1.0  0.83115  0.21081  0.04489  1.0000
  C   C803      1.0  0.93404  0.47371  0.33233  1.0000
  H   H1442     1.0  0.89831  0.49218  0.15532  1.0000
  C   C804      1.0  0.93506  0.41774  0.47475  1.0000
  H   H1443     1.0  0.96307  0.29502  0.29591  1.0000
  H   H1444     1.0  0.93365  0.30966  0.41161  1.0000
  C   C805      1.0  0.93785  0.30523  0.46180  1.0000
  C   C806      1.0  0.87289  0.14143  0.04387  1.0000
  H   H1445     1.0  0.94214  0.28801  0.15429  1.0000
  H   H1446     1.0  0.78907  0.99732  0.17507  1.0000
  H   H1447     1.0  0.86168  0.11455  0.08793  1.0000
  H   H1448     1.0  0.72861  0.01489  0.28998  1.0000
  H   H1449     1.0  0.98310  0.26367  0.16194  1.0000
  C   C807      1.0  0.85205  0.13390  0.04853  1.0000
  C   C808      1.0  0.71509  0.00675  0.13307  1.0000
  H   H1450     1.0  0.98521  0.22612  0.07734  1.0000
  C   C809      1.0  0.98901  0.32936  0.20525  1.0000
  H   H1451     1.0  0.86318  0.49247  0.49140  1.0000
  C   C810      1.0  0.97670  0.17873  0.07061  1.0000
  C   C811      1.0  0.95764  0.42579  0.39157  1.0000
  C   C812      1.0  0.90667  0.36333  0.48832  1.0000
  C   C813      1.0  0.84529  0.21188  0.05790  1.0000
  H   H1452     1.0  0.96339  0.19867  0.01501  1.0000
  H   H1453     1.0  0.67922  0.00923  0.25046  1.0000
  H   H1454     1.0  0.90500  0.49365  0.28960  1.0000
  H   H1455     1.0  0.67696  0.07948  0.29880  1.0000
  H   H1456     1.0  0.96137  0.23233  0.49551  1.0000
  N   N45       1.0  0.87323  0.16128  0.02732  1.0000
  C   C814      1.0  0.89415  0.16727  0.03034  1.0000
  C   C815      1.0  0.96121  0.25813  0.05798  1.0000
  H   H1457     1.0  0.99087  0.47320  0.35472  1.0000
  C   C816      1.0  0.98819  0.19582  0.15518  1.0000
  C   C817      1.0  0.93131  0.16067  0.01952  1.0000
  C   C818      1.0  0.91098  0.15288  0.01523  1.0000
  H   H1458     1.0  0.91292  0.29570  0.48858  1.0000
  H   H1459     1.0  0.80885  0.12602  0.00776  1.0000
  C   C819      1.0  0.80535  0.11020  0.00835  1.0000
  H   H1460     1.0  0.96564  0.40583  0.48614  1.0000
  H   H1461     1.0  0.91514  0.47400  0.17611  1.0000
  H   H1462     1.0  0.72663  0.00258  0.11494  1.0000
  H   H1463     1.0  0.99304  0.16262  0.10862  1.0000
  H   H1464     1.0  0.99309  0.22290  0.26102  1.0000
  Fe  Fe93      1.0  0.74948  0.07055  0.81221  1.0000
  S   S185      1.0  0.78152  0.06616  0.79542  1.0000
  S   S186      1.0  0.72179  0.08332  0.78450  1.0000
  Fe  Fe94      1.0  0.76090  0.05614  0.87892  1.0000
  S   S187      1.0  0.79341  0.05029  0.86678  1.0000
  S   S188      1.0  0.74869  0.04538  0.92506  1.0000
  Fe  Fe95      1.0  0.78998  0.08003  0.84162  1.0000
  S   S189      1.0  0.80986  0.10459  0.85691  1.0000
  Fe  Fe96      1.0  0.78271  0.03691  0.82225  1.0000
  S   S190      1.0  0.79552  0.00634  0.80410  1.0000
  S   S191      1.0  0.75769  0.08639  0.85652  1.0000
  S   S192      1.0  0.75054  0.04088  0.83583  1.0000
  Fe  Fe97      1.0  0.92359  0.34786  0.66805  1.0000
  S   S193      1.0  0.93495  0.33572  0.62136  1.0000
  S   S194      1.0  0.91328  0.33017  0.71054  1.0000
  Fe  Fe98      1.0  0.93209  0.39140  0.65025  1.0000
  S   S195      1.0  0.94490  0.38205  0.60324  1.0000
  S   S196      1.0  0.92690  0.42369  0.66800  1.0000
  Fe  Fe99      1.0  0.91934  0.36344  0.59920  1.0000
  S   S197      1.0  0.90278  0.36425  0.55261  1.0000
  Fe  Fe100     1.0  0.95944  0.35524  0.62873  1.0000
  H   H1465     1.0  0.78184  0.12961  0.97163  1.0000
  S   S198      1.0  0.90528  0.37412  0.64511  1.0000
  S   S199      1.0  0.94941  0.36609  0.67651  1.0000
  Fe  Fe101     1.0  0.89647  0.18088  0.82509  1.0000
  S   S200      1.0  0.88125  0.21228  0.82271  1.0000
  S   S201      1.0  0.88062  0.15419  0.80687  1.0000
  Fe  Fe102     1.0  0.93591  0.19611  0.84963  1.0000
  S   S202      1.0  0.92241  0.22805  0.84953  1.0000
  S   S203      1.0  0.96702  0.19115  0.87176  1.0000
  Fe  Fe103     1.0  0.89550  0.21590  0.86999  1.0000
  S   S204      1.0  0.87864  0.22957  0.91192  1.0000
  Fe  Fe104     1.0  0.90989  0.22158  0.80220  1.0000
  S   S205      1.0  0.91449  0.23889  0.75639  1.0000
  S   S206      1.0  0.90946  0.18430  0.87330  1.0000
  S   S207      1.0  0.92448  0.18976  0.80139  1.0000
  C   C820      1.0  0.89153  0.22573  0.94779  1.0000
  C   C821      1.0  0.91109  0.21656  0.94818  1.0000
  H   H1466     1.0  0.99010  0.47035  0.73550  1.0000
  H   H1467     1.0  0.91847  0.21199  0.92640  1.0000
  H   H1468     1.0  0.67733  0.09490  0.52936  1.0000
  C   C822      1.0  0.91665  0.36330  0.51730  1.0000
  H   H1469     1.0  0.72148  0.00856  0.83146  1.0000
  H   H1470     1.0  0.77028  0.10715  0.97055  1.0000
  H   H1471     1.0  0.98318  0.43346  0.66757  1.0000
  H   H1472     1.0  0.94537  0.36160  0.53980  1.0000
  C   C823      1.0  0.91479  0.30463  0.72316  1.0000
  C   C824      1.0  0.92088  0.28857  0.70323  1.0000
  C   C825      1.0  0.92090  0.26867  0.71399  1.0000
  C   C826      1.0  0.91511  0.26443  0.74491  1.0000
  C   C827      1.0  0.90942  0.28048  0.76504  1.0000
  C   C828      1.0  0.90914  0.30037  0.75415  1.0000
  H   H1473     1.0  0.92522  0.29148  0.67936  1.0000
  H   H1474     1.0  0.92532  0.25645  0.69813  1.0000
  H   H1475     1.0  0.90481  0.27760  0.78879  1.0000
  H   H1476     1.0  0.90431  0.31260  0.76981  1.0000
  H   H1477     1.0  0.99414  0.40389  0.70080  1.0000
  C   C829      1.0  0.67344  0.10899  0.63393  1.0000
  H   H1478     1.0  0.70231  0.08650  0.90921  1.0000
  C   C830      1.0  0.80305  0.04626  0.95275  1.0000
  H   H1479     1.0  0.97991  0.18599  0.80620  1.0000
  H   H1480     1.0  0.91237  0.42518  0.57820  1.0000
  C   C831      1.0  0.98731  0.31240  0.69236  1.0000
  H   H1481     1.0  0.81850  0.10284  0.93101  1.0000
  C   C832      1.0  0.97499  0.27988  0.84852  1.0000
  H   H1482     1.0  0.87184  0.09446  0.95207  1.0000
  C   C833      1.0  0.93560  0.44636  0.65512  1.0000
  C   C834      1.0  0.94972  0.44704  0.63111  1.0000
  C   C835      1.0  0.92854  0.46424  0.67044  1.0000
  H   H1483     1.0  0.95530  0.43341  0.61913  1.0000
  H   H1484     1.0  0.91761  0.46390  0.68902  1.0000
  C   C836      1.0  0.82954  0.11818  0.84234  1.0000
  C   C837      1.0  0.83642  0.13335  0.86116  1.0000
  C   C838      1.0  0.85194  0.14449  0.85088  1.0000
  C   C839      1.0  0.86100  0.14056  0.82156  1.0000
  C   C840      1.0  0.85413  0.12538  0.80280  1.0000
  C   C841      1.0  0.83854  0.11433  0.81299  1.0000
  H   H1485     1.0  0.82964  0.13658  0.88385  1.0000
  H   H1486     1.0  0.85690  0.15611  0.86562  1.0000
  H   H1487     1.0  0.86095  0.12211  0.78012  1.0000
  H   H1488     1.0  0.83358  0.10273  0.79819  1.0000
  H   H1489     1.0  0.84479  0.10208  0.99031  1.0000
  H   H1490     1.0  0.96568  0.41439  0.54156  1.0000
  H   H1491     1.0  0.95512  0.27993  0.80778  1.0000
  C   C842      1.0  0.82021  0.10713  0.95600  1.0000
  C   C843      1.0  0.89310  0.49439  0.51021  1.0000
  C   C844      1.0  0.74724  0.05934  0.96042  1.0000
  H   H1492     1.0  0.97229  0.28573  0.55698  1.0000
  H   H1493     1.0  0.85170  0.15502  0.99181  1.0000
  H   H1494     1.0  0.73703  0.08733  0.93883  1.0000
  H   H1495     1.0  0.95674  0.22718  0.92523  1.0000
  C   C845      1.0  0.70425  0.07094  0.76238  1.0000
  C   C846      1.0  0.70586  0.05016  0.75863  1.0000
  C   C847      1.0  0.69147  0.04114  0.74088  1.0000
  H   H1496     1.0  0.94573  0.47755  0.55654  1.0000
  H   H1497     1.0  0.71826  0.04108  0.76924  1.0000
  H   H1498     1.0  0.89818  0.47879  0.50345  1.0000
  H   H1499     1.0  0.75899  0.14180  0.92719  1.0000
  C   C848      1.0  0.84076  0.09690  0.96665  1.0000
  H   H1500     1.0  0.66316  0.05294  0.96638  1.0000
  H   H1501     1.0  0.92033  0.46109  0.58205  1.0000
  H   H1502     1.0  0.69428  0.07732  0.83935  1.0000
  H   H1503     1.0  0.76079  0.12815  0.89067  1.0000
  C   C849      1.0  0.89268  0.31302  0.58193  1.0000
  N   N46       1.0  0.69125  0.09425  0.62591  1.0000
  C   C850      1.0  0.68939  0.07440  0.64155  1.0000
  H   H1504     1.0  0.68770  0.11778  0.52033  1.0000
  C   C851      1.0  0.69120  0.09077  0.59078  1.0000
  C   C852      1.0  0.71053  0.10255  0.63440  1.0000
  C   C853      1.0  0.71463  0.10546  0.66984  1.0000
  C   C854      1.0  0.70578  0.05727  0.63329  1.0000
  C   C855      1.0  0.95295  0.24157  0.51370  1.0000
  C   C856      1.0  0.67357  0.07342  0.73082  1.0000
  C   C857      1.0  0.73588  0.11075  0.67532  1.0000
  C   C858      1.0  0.70360  0.03872  0.65309  1.0000
  H   H1505     1.0  0.95393  0.24790  0.80832  1.0000
  H   H1506     1.0  0.95515  0.32279  0.51906  1.0000
  H   H1507     1.0  0.93084  0.30225  0.57257  1.0000
  C   C859      1.0  0.93776  0.49109  0.54563  1.0000
  H   H1508     1.0  0.67929  0.04067  0.81150  1.0000
  H   H1509     1.0  0.97760  0.21343  0.99154  1.0000
  H   H1510     1.0  0.70511  0.08165  0.58324  1.0000
  H   H1511     1.0  0.72348  0.09314  0.62416  1.0000
  H   H1512     1.0  0.71112  0.11747  0.62350  1.0000
  H   H1513     1.0  0.71295  0.09184  0.68374  1.0000
  H   H1514     1.0  0.70442  0.11807  0.67916  1.0000
  H   H1515     1.0  0.70460  0.05281  0.60830  1.0000
  H   H1516     1.0  0.72091  0.06176  0.63764  1.0000
  H   H1517     1.0  0.80142  0.03779  0.93070  1.0000
  C   C860      1.0  0.86673  0.17051  0.93679  1.0000
  H   H1518     1.0  0.69611  0.05495  0.92082  1.0000
  H   H1519     1.0  0.98591  0.22184  0.77105  1.0000
  C   C861      1.0  0.86892  0.17655  0.97117  1.0000
  H   H1520     1.0  0.73824  0.11312  0.70085  1.0000
  H   H1521     1.0  0.74694  0.09839  0.66733  1.0000
  H   H1522     1.0  0.73844  0.12468  0.66267  1.0000
  H   H1523     1.0  0.68846  0.03381  0.65028  1.0000
  H   H1524     1.0  0.87884  0.48390  0.60276  1.0000
  H   H1525     1.0  0.70624  0.04190  0.67825  1.0000
  H   H1526     1.0  0.96817  0.41261  0.70597  1.0000
  H   H1527     1.0  0.97534  0.44755  0.70201  1.0000
  H   H1528     1.0  0.71535  0.04359  0.87834  1.0000
  H   H1529     1.0  0.70689  0.04447  0.83906  1.0000
  H   H1530     1.0  0.92668  0.32481  0.55098  1.0000
  H   H1531     1.0  0.69519  0.01504  0.89037  1.0000
  H   H1532     1.0  0.93657  0.24559  0.91383  1.0000
  C   C862      1.0  0.98803  0.18216  0.99036  1.0000
  C   C863      1.0  0.68937  0.10973  0.56973  1.0000
  C   C864      1.0  0.89300  0.49098  0.60122  1.0000
  H   H1533     1.0  0.72035  0.07582  0.88143  1.0000
  H   H1534     1.0  0.86717  0.23913  0.97603  1.0000
  N   N47       1.0  0.68474  0.05623  0.87310  1.0000
  C   C865      1.0  0.69874  0.01907  0.86592  1.0000
  N   N48       1.0  0.93643  0.29883  0.52254  1.0000
  C   C866      1.0  0.68946  0.07695  0.86437  1.0000
  C   C867      1.0  0.92127  0.21345  0.97676  1.0000
  H   H1535     1.0  0.98088  0.32550  0.67855  1.0000
  C   C868      1.0  0.99444  0.48315  0.72165  1.0000
  C   C869      1.0  0.95116  0.41603  0.52897  1.0000
  H   H1536     1.0  0.94206  0.42938  0.53842  1.0000
  H   H1537     1.0  0.85810  0.11822  0.94315  1.0000
  C   C870      1.0  0.68171  0.05434  0.90805  1.0000
  H   H1538     1.0  0.89914  0.30301  0.60086  1.0000
  H   H1539     1.0  0.90846  0.15128  0.98962  1.0000
  H   H1540     1.0  0.91482  0.46257  0.54137  1.0000
  C   C871      1.0  0.70609  0.08546  0.88389  1.0000
  N   N49       1.0  0.80240  0.10268  0.97531  1.0000
  H   H1541     1.0  0.82118  0.12357  0.95550  1.0000
  C   C872      1.0  0.66420  0.10762  0.66711  1.0000
  H   H1542     1.0  0.71476  0.02636  0.64551  1.0000
  N   N50       1.0  0.86619  0.20176  0.72632  1.0000
  C   C873      1.0  0.88864  0.19782  0.72755  1.0000
  C   C874      1.0  0.86027  0.22320  0.73580  1.0000
  C   C875      1.0  0.85786  0.18852  0.75066  1.0000
  C   C876      1.0  0.85764  0.19723  0.69457  1.0000
  C   C877      1.0  0.87062  0.20067  0.66529  1.0000
  C   C878      1.0  0.89722  0.17564  0.72376  1.0000
  C   C879      1.0  0.83494  0.19152  0.75586  1.0000
  C   C880      1.0  0.86697  0.23963  0.71394  1.0000
  C   C881      1.0  0.86261  0.26031  0.72882  1.0000
  C   C882      1.0  0.85877  0.19899  0.63495  1.0000
  C   C883      1.0  0.91919  0.17378  0.71414  1.0000
  C   C884      1.0  0.82805  0.17509  0.77672  1.0000
  H   H1543     1.0  0.89424  0.20292  0.75051  1.0000
  H   H1544     1.0  0.89585  0.20680  0.70991  1.0000
  H   H1545     1.0  0.84380  0.22638  0.73705  1.0000
  H   H1546     1.0  0.86595  0.22588  0.75989  1.0000
  H   H1547     1.0  0.86501  0.19046  0.77384  1.0000
  H   H1548     1.0  0.86159  0.17249  0.74453  1.0000
  H   H1549     1.0  0.85451  0.18131  0.69322  1.0000
  H   H1550     1.0  0.84283  0.20602  0.69143  1.0000
  H   H1551     1.0  0.88371  0.18925  0.66419  1.0000
  H   H1552     1.0  0.87638  0.21546  0.66550  1.0000
  H   H1553     1.0  0.89621  0.16777  0.74653  1.0000
  H   H1554     1.0  0.88882  0.16773  0.70610  1.0000
  H   H1555     1.0  0.82678  0.19137  0.73324  1.0000
  H   H1556     1.0  0.83055  0.20588  0.76808  1.0000
  H   H1557     1.0  0.88315  0.23748  0.70885  1.0000
  H   H1558     1.0  0.85856  0.23982  0.69151  1.0000
  H   H1559     1.0  0.86791  0.27179  0.71303  1.0000
  H   H1560     1.0  0.84635  0.26392  0.73279  1.0000
  H   H1561     1.0  0.87057  0.26102  0.75161  1.0000
  H   H1562     1.0  0.85319  0.18406  0.63318  1.0000
  H   H1563     1.0  0.84593  0.21075  0.63410  1.0000
  H   H1564     1.0  0.86853  0.20097  0.61441  1.0000
  H   H1565     1.0  0.92519  0.15779  0.71370  1.0000
  H   H1566     1.0  0.92088  0.18018  0.69037  1.0000
  H   H1567     1.0  0.92807  0.18172  0.73119  1.0000
  H   H1568     1.0  0.83524  0.17536  0.80020  1.0000
  H   H1569     1.0  0.81163  0.17749  0.78002  1.0000
  H   H1570     1.0  0.83183  0.16014  0.76591  1.0000
  C   C885      1.0  0.68970  0.10406  0.53491  1.0000
  H   H1571     1.0  0.67475  0.06917  0.63534  1.0000
  C   C886      1.0  0.96967  0.24731  0.87366  1.0000
  C   C887      1.0  0.80042  0.08059  0.97743  1.0000
  H   H1572     1.0  0.95933  0.22370  0.76475  1.0000
  H   H1573     1.0  0.96598  0.30029  0.50250  1.0000
  C   C888      1.0  0.95415  0.28396  0.83307  1.0000
  C   C889      1.0  0.96632  0.25519  0.90772  1.0000
  N   N51       1.0  0.98303  0.25828  0.85294  1.0000
  C   C890      1.0  0.96804  0.23802  0.80752  1.0000
  H   H1574     1.0  0.93643  0.20648  0.97663  1.0000
  H   H1575     1.0  0.79169  0.04198  0.96963  1.0000
  C   C891      1.0  0.95151  0.24340  0.92514  1.0000
  H   H1576     1.0  0.98213  0.31420  0.71707  1.0000
  H   H1577     1.0  0.94348  0.27246  0.55111  1.0000
  H   H1578     1.0  0.95479  0.24716  0.86314  1.0000
  C   C892      1.0  0.98657  0.43582  0.69265  1.0000
  H   H1579     1.0  0.73011  0.00817  0.87185  1.0000
  H   H1580     1.0  0.98408  0.38231  0.64031  1.0000
  H   H1581     1.0  0.93831  0.23564  0.51724  1.0000
  H   H1582     1.0  0.67833  0.00653  0.78847  1.0000
  H   H1583     1.0  0.97576  0.23136  0.87539  1.0000
  H   H1584     1.0  0.94282  0.27566  0.84466  1.0000
  H   H1585     1.0  0.97542  0.19198  0.94495  1.0000
  H   H1586     1.0  0.97476  0.28802  0.87130  1.0000
  H   H1587     1.0  0.96018  0.27112  0.90786  1.0000
  H   H1588     1.0  0.68905  0.07577  0.66748  1.0000
  H   H1589     1.0  0.67584  0.08780  0.86566  1.0000
  H   H1590     1.0  0.96553  0.22441  0.82097  1.0000
  H   H1591     1.0  0.85430  0.09638  0.91999  1.0000
  C   C893      1.0  0.99024  0.19267  0.85245  1.0000
  C   C894      1.0  0.95051  0.48303  0.63956  1.0000
  H   H1592     1.0  0.90410  0.42816  0.53772  1.0000
  C   C895      1.0  0.71740  0.00562  0.85619  1.0000
  C   C896      1.0  0.88225  0.23184  0.97625  1.0000
  H   H1593     1.0  0.70189  0.11887  0.57394  1.0000
  C   C897      1.0  0.93765  0.27651  0.52724  1.0000
  C   C898      1.0  0.74071  0.07973  0.96070  1.0000
  C   C899      1.0  0.76148  0.12664  0.91665  1.0000
  C   C900      1.0  0.95723  0.46527  0.62358  1.0000
  H   H1594     1.0  0.74944  0.11771  0.92433  1.0000
  H   H1595     1.0  0.69545  0.11678  0.87596  1.0000
  C   C901      1.0  0.93750  0.36177  0.51765  1.0000
  C   C902      1.0  0.93585  0.48248  0.66263  1.0000
  H   H1596     1.0  0.72130  0.11228  0.88706  1.0000
  H   H1597     1.0  0.87886  0.45590  0.55362  1.0000
  H   H1598     1.0  0.94991  0.24862  0.94986  1.0000
  H   H1599     1.0  0.94452  0.31110  0.85941  1.0000
  C   C903      1.0  0.97181  0.23185  0.77332  1.0000
  C   C904      1.0  0.68795  0.08245  0.74846  1.0000
  C   C905      1.0  0.66608  0.06816  0.95882  1.0000
  C   C906      1.0  0.80020  0.06874  0.94628  1.0000
  H   H1600     1.0  0.73074  0.99619  0.74907  1.0000
  H   H1601     1.0  0.79316  0.12600  0.91732  1.0000
  H   H1602     1.0  0.92252  0.27136  0.52679  1.0000
  C   C907      1.0  0.70930  0.10650  0.87293  1.0000
  C   C908      1.0  0.70211  0.04151  0.86351  1.0000
  H   H1603     1.0  0.67705  0.12460  0.63019  1.0000
  C   C909      1.0  0.85721  0.10184  0.94407  1.0000
  C   C910      1.0  0.78190  0.11641  0.92614  1.0000
  H   H1604     1.0  0.78417  0.10186  0.91392  1.0000
  H   H1605     1.0  0.94341  0.40255  0.53370  1.0000
  H   H1606     1.0  0.98322  0.47491  0.67621  1.0000
  C   C911      1.0  0.90828  0.46594  0.56488  1.0000
  H   H1607     1.0  0.96227  0.30940  0.57344  1.0000
  H   H1608     1.0  0.95705  0.31528  0.82264  1.0000
  H   H1609     1.0  0.71381  0.10636  0.84780  1.0000
  H   H1610     1.0  0.78554  0.07206  0.93454  1.0000
  C   C912      1.0  0.90196  0.30686  0.55013  1.0000
  H   H1611     1.0  0.68641  0.01542  0.85041  1.0000
  H   H1612     1.0  0.68635  0.09849  0.75160  1.0000
  H   H1613     1.0  0.81218  0.07206  0.92991  1.0000
  C   C913      1.0  0.78361  0.11402  0.96232  1.0000
  C   C914      1.0  0.99254  0.18943  0.82014  1.0000
  H   H1614     1.0  0.96858  0.46555  0.60569  1.0000
  C   C915      1.0  0.89169  0.45180  0.56946  1.0000
  C   C916      1.0  0.89952  0.43008  0.56265  1.0000
  H   H1615     1.0  0.87914  0.15922  0.92974  1.0000
  C   C917      1.0  0.67540  0.05274  0.72641  1.0000
  H   H1616     1.0  0.67869  0.08192  0.58421  1.0000
  H   H1617     1.0  0.88635  0.45219  0.59415  1.0000
  C   C918      1.0  0.94999  0.26334  0.50296  1.0000
  C   C919      1.0  0.95679  0.30634  0.52258  1.0000
  H   H1618     1.0  0.69299  0.02511  0.73791  1.0000
  H   H1619     1.0  0.88759  0.42022  0.56725  1.0000
  H   H1620     1.0  0.86730  0.18384  0.92154  1.0000
  H   H1621     1.0  0.68080  0.07149  0.96819  1.0000
  C   C920      1.0  0.98610  0.24768  0.82163  1.0000
  C   C921      1.0  0.92483  0.30856  0.54994  1.0000
  H   H1622     1.0  0.75606  0.03360  0.98916  1.0000
  C   C922      1.0  0.94653  0.30612  0.83461  1.0000
  H   H1623     1.0  0.98599  0.41814  0.73550  1.0000
  H   H1624     1.0  0.93256  0.48680  0.52219  1.0000
  H   H1625     1.0  0.85225  0.16438  0.93280  1.0000
  C   C923      1.0  0.97585  0.17886  0.96082  1.0000
  H   H1626     1.0  0.88339  0.18290  0.97321  1.0000
  H   H1627     1.0  0.98045  0.25347  0.92128  1.0000
  H   H1628     1.0  0.67515  0.11918  0.57406  1.0000
  H   H1629     1.0  0.93185  0.30862  0.82255  1.0000
  H   H1630     1.0  0.89843  0.29147  0.54524  1.0000
  S   S208      1.0  0.99025  0.34197  0.61680  1.0000
  H   H1631     1.0  0.70413  0.09552  0.52856  1.0000
  H   H1632     1.0  0.76408  0.99881  0.84817  1.0000
  H   H1633     1.0  0.99151  0.25795  0.80380  1.0000
  C   C924      1.0  0.73822  0.09010  0.98947  1.0000
  C   C925      1.0  0.86742  0.15856  0.99343  1.0000
  C   C926      1.0  0.96960  0.30201  0.55254  1.0000
  H   H1634     1.0  0.96035  0.17618  0.96706  1.0000
  H   H1635     1.0  0.96158  0.24020  0.53597  1.0000
  H   H1636     1.0  0.81816  0.04184  0.96244  1.0000
  C   C927      1.0  0.66585  0.05209  0.85641  1.0000
  C   C928      1.0  0.75133  0.04946  0.98910  1.0000
  H   H1637     1.0  0.87640  0.14534  0.98311  1.0000
  H   H1638     1.0  0.84073  0.08042  0.96709  1.0000
  H   H1639     1.0  0.67703  0.03943  0.91386  1.0000
  H   H1640     1.0  0.67546  0.10738  0.68598  1.0000
  H   H1641     1.0  0.98513  0.28763  0.83333  1.0000
  H   H1642     1.0  0.87633  0.31210  0.58110  1.0000
  H   H1643     1.0  0.73283  0.10580  0.98956  1.0000
  H   H1644     1.0  0.89440  0.31687  0.53207  1.0000
  H   H1645     1.0  0.98277  0.16561  0.94777  1.0000
  H   H1646     1.0  0.89521  0.32864  0.58774  1.0000
  H   H1647     1.0  0.78630  0.07793  0.98952  1.0000
  C   C929      1.0  0.98993  0.30998  0.54909  1.0000
  H   H1648     1.0  0.97259  0.24523  0.75834  1.0000
  H   H1649     1.0  0.85662  0.18839  0.97618  1.0000
  C   C930      1.0  0.98366  0.41642  0.70985  1.0000
  H   H1650     1.0  0.67263  0.99973  0.64955  1.0000
  H   H1651     1.0  0.98805  0.32645  0.54580  1.0000
  C   C931      1.0  0.66702  0.05158  0.81996  1.0000
  H   H1652     1.0  0.75418  0.99901  0.76813  1.0000
  H   H1653     1.0  0.87272  0.48881  0.54811  1.0000
  C   C932      1.0  0.66574  0.06978  0.92300  1.0000
  H   H1654     1.0  0.81246  0.07315  0.99257  1.0000
  H   H1655     1.0  0.66816  0.08534  0.91696  1.0000
  H   H1656     1.0  0.66952  0.06651  0.81060  1.0000
  H   H1657     1.0  0.98155  0.29884  0.68245  1.0000
  H   H1658     1.0  0.90323  0.48347  0.61918  1.0000
  N   N52       1.0  0.90217  0.48806  0.56892  1.0000
  H   H1659     1.0  0.96500  0.26825  0.49925  1.0000
  Fe  Fe105     1.0  0.78430  0.89523  0.16604  1.0000
  S   S209      1.0  0.75180  0.89772  0.15533  1.0000
  S   S210      1.0  0.79854  0.92376  0.17664  1.0000
  Fe  Fe106     1.0  0.78742  0.84931  0.16846  1.0000
  S   S211      1.0  0.75416  0.84932  0.15890  1.0000
  S   S212      1.0  0.80520  0.81839  0.17658  1.0000
  Fe  Fe107     1.0  0.75939  0.87229  0.12216  1.0000
  S   S213      1.0  0.74260  0.87547  0.07596  1.0000
  Fe  Fe108     1.0  0.74895  0.87506  0.19319  1.0000
  S   S214      1.0  0.72590  0.88665  0.23095  1.0000
  S   S215      1.0  0.79255  0.87119  0.12975  1.0000
  S   S216      1.0  0.78169  0.87338  0.20552  1.0000
  C   C933      1.0  0.78639  0.98376  0.16282  1.0000
  Fe  Fe109     1.0  0.95490  0.72354  0.17075  1.0000
  S   S217      1.0  0.94985  0.69330  0.15219  1.0000
  S   S218      1.0  0.98488  0.72898  0.19262  1.0000
  Fe  Fe110     1.0  0.91046  0.74127  0.15812  1.0000
  S   S219      1.0  0.90289  0.71179  0.13860  1.0000
  S   S220      1.0  0.89293  0.77263  0.15295  1.0000
  Fe  Fe111     1.0  0.92096  0.69718  0.17962  1.0000
  S   S221      1.0  0.91046  0.67607  0.21787  1.0000
  Fe  Fe112     1.0  0.93255  0.71006  0.11309  1.0000
  S   S222      1.0  0.94265  0.71106  0.06203  1.0000
  S   S223      1.0  0.92692  0.72709  0.20007  1.0000
  S   S224      1.0  0.93923  0.73997  0.13101  1.0000
  Fe  Fe113     1.0  0.93741  0.52691  0.34729  1.0000
  S   S225      1.0  0.94022  0.53380  0.39864  1.0000
  H   H1660     1.0  0.79932  0.92024  0.07095  1.0000
  Fe  Fe114     1.0  0.93186  0.57241  0.32774  1.0000
  S   S226      1.0  0.93399  0.58210  0.37835  1.0000
  S   S227      1.0  0.93540  0.59020  0.28179  1.0000
  Fe  Fe115     1.0  0.95897  0.55758  0.38328  1.0000
  S   S228      1.0  0.98713  0.56288  0.40907  1.0000
  Fe  Fe116     1.0  0.91497  0.55747  0.38991  1.0000
  S   S229      1.0  0.88911  0.56174  0.42399  1.0000
  S   S230      1.0  0.95816  0.54923  0.33258  1.0000
  S   S231      1.0  0.91064  0.54922  0.33877  1.0000
  H   H1661     1.0  0.97017  0.68739  0.25177  1.0000
  H   H1662     1.0  0.88590  0.54164  0.21119  1.0000
  H   H1663     1.0  0.68598  0.96318  0.18147  1.0000
  H   H1664     1.0  0.66791  0.87417  0.35359  1.0000
  C   C934      1.0  0.89670  0.57970  0.22957  1.0000
  C   C935      1.0  0.91807  0.65222  0.23538  1.0000
  C   C936      1.0  0.91181  0.64837  0.26622  1.0000
  C   C937      1.0  0.91704  0.62969  0.28092  1.0000
  C   C938      1.0  0.92840  0.61433  0.26482  1.0000
  C   C939      1.0  0.93451  0.61809  0.23387  1.0000
  C   C940      1.0  0.92949  0.63685  0.21932  1.0000
  H   H1665     1.0  0.90278  0.65997  0.27885  1.0000
  H   H1666     1.0  0.91204  0.62714  0.30458  1.0000
  H   H1667     1.0  0.94311  0.60635  0.22090  1.0000
  H   H1668     1.0  0.93420  0.63934  0.19548  1.0000
  H   H1669     1.0  0.73024  0.95906  0.23480  1.0000
  C   C941      1.0  0.89006  0.55987  0.46555  1.0000
  C   C942      1.0  0.78283  0.85648  0.00855  1.0000
  H   H1670     1.0  0.92169  0.55161  0.47005  1.0000
  H   H1671     1.0  0.85834  0.56746  0.46919  1.0000
  C   C943      1.0  0.87923  0.74915  0.03154  1.0000
  C   C944      1.0  0.93326  0.70266  0.02607  1.0000
  C   C945      1.0  0.91919  0.68880  0.02464  1.0000
  H   H1672     1.0  0.69502  0.83245  0.34142  1.0000
  H   H1673     1.0  0.91340  0.68308  0.04613  1.0000
  C   C946      1.0  0.83002  0.80635  0.17090  1.0000
  C   C947      1.0  0.83424  0.78615  0.17967  1.0000
  C   C948      1.0  0.85321  0.77556  0.17429  1.0000
  C   C949      1.0  0.86846  0.78505  0.16019  1.0000
  C   C950      1.0  0.86432  0.80532  0.15170  1.0000
  C   C951      1.0  0.84530  0.81588  0.15698  1.0000
  H   H1674     1.0  0.82269  0.77860  0.19076  1.0000
  H   H1675     1.0  0.85606  0.76008  0.18124  1.0000
  H   H1676     1.0  0.87593  0.81295  0.14095  1.0000
  H   H1677     1.0  0.84249  0.83140  0.15030  1.0000
  C   C952      1.0  0.70274  0.87996  0.24601  1.0000
  C   C953      1.0  0.69455  0.86260  0.23674  1.0000
  H   H1678     1.0  0.69658  0.94779  0.13653  1.0000
  H   H1679     1.0  0.66216  0.94735  0.21484  1.0000
  H   H1680     1.0  0.71915  0.91244  0.10051  1.0000
  C   C954      1.0  0.69287  0.89202  0.26951  1.0000
  H   H1681     1.0  0.70188  0.85315  0.21873  1.0000
  H   H1682     1.0  0.73698  0.97284  0.14908  1.0000
  H   H1683     1.0  0.97736  0.58718  0.48072  1.0000
  H   H1684     1.0  0.69897  0.90550  0.27690  1.0000
  H   H1685     1.0  0.72648  0.87442  0.01380  1.0000
  H   H1686     1.0  0.70129  0.82853  0.28734  1.0000
  C   C955      1.0  0.75400  0.86885  0.03966  1.0000
  C   C956      1.0  0.77438  0.86264  0.03760  1.0000
  C   C957      1.0  0.97599  0.81941  0.19123  1.0000
  H   H1687     1.0  0.78355  0.86242  0.05845  1.0000
  H   H1688     1.0  0.93366  0.50128  0.19674  1.0000
  C   C958      1.0  0.78958  0.94717  0.16015  1.0000
  C   C959      1.0  0.79272  0.96493  0.17602  1.0000
  C   C960      1.0  0.88970  0.49898  0.28171  1.0000
  H   H1689     1.0  0.80028  0.96412  0.19848  1.0000
  N   N53       1.0  0.71735  0.95442  0.17333  1.0000
  H   H1690     1.0  0.86982  0.76339  0.03585  1.0000
  C   C961      1.0  0.71173  0.94235  0.14532  1.0000
  C   C962      1.0  0.73496  0.94310  0.18948  1.0000
  C   C963      1.0  0.74261  0.95297  0.21948  1.0000
  H   H1691     1.0  0.91136  0.54491  0.20767  1.0000
  C   C964      1.0  0.72611  0.94170  0.11674  1.0000
  C   C965      1.0  0.75603  0.93797  0.23889  1.0000
  H   H1692     1.0  0.89798  0.72783  0.06011  1.0000
  C   C966      1.0  0.67161  0.86283  0.37213  1.0000
  H   H1693     1.0  0.75147  0.96537  0.21285  1.0000
  H   H1694     1.0  0.71062  0.92658  0.15239  1.0000
  H   H1695     1.0  0.73162  0.92769  0.19535  1.0000
  H   H1696     1.0  0.74798  0.94101  0.17340  1.0000
  C   C967      1.0  0.67471  0.94281  0.23108  1.0000
  H   H1697     1.0  0.71683  0.94731  0.28329  1.0000
  H   H1698     1.0  0.70608  0.93356  0.23011  1.0000
  C   C968      1.0  0.71768  0.82551  0.28458  1.0000
  H   H1699     1.0  0.74149  0.93621  0.12369  1.0000
  H   H1700     1.0  0.72638  0.95669  0.10608  1.0000
  H   H1701     1.0  0.76208  0.94561  0.25937  1.0000
  H   H1702     1.0  0.74750  0.92581  0.24758  1.0000
  H   H1703     1.0  0.76876  0.93128  0.22456  1.0000
  C   C969      1.0  0.81369  0.74969  0.12839  1.0000
  H   H1704     1.0  0.89078  0.79849  0.25167  1.0000
  H   H1705     1.0  0.95650  0.79106  0.09076  1.0000
  H   H1706     1.0  0.80794  0.78961  0.12495  1.0000
  C   C970      1.0  0.74227  0.86958  0.01233  1.0000
  H   H1707     1.0  0.92797  0.65108  0.40956  1.0000
  H   H1708     1.0  0.76585  0.82341  0.05307  1.0000
  S   S232      1.0  0.94614  0.49572  0.32720  1.0000
  H   H1709     1.0  0.72615  0.98268  0.32488  1.0000
  H   H1710     1.0  0.97644  0.59853  0.31625  1.0000
  C   C971      1.0  0.98259  0.61121  0.32829  1.0000
  C   C972      1.0  0.95209  0.79029  0.14123  1.0000
  H   H1711     1.0  0.97604  0.57630  0.24732  1.0000
  C   C973      1.0  0.89839  0.79413  0.22919  1.0000
  H   H1712     1.0  0.97657  0.62636  0.48317  1.0000
  H   H1713     1.0  0.96191  0.76512  0.17063  1.0000
  H   H1714     1.0  0.98536  0.55071  0.48269  1.0000
  H   H1715     1.0  0.69467  0.85570  0.32216  1.0000
  H   H1716     1.0  0.93778  0.78371  0.13779  1.0000
  N   N54       1.0  0.95432  0.78999  0.20198  1.0000
  C   C974      1.0  0.99125  0.65001  0.26361  1.0000
  H   H1717     1.0  0.96874  0.76916  0.10955  1.0000
  H   H1718     1.0  0.95858  0.57438  0.46190  1.0000
  H   H1719     1.0  0.92886  0.62453  0.40350  1.0000
  H   H1720     1.0  0.70058  0.98027  0.12578  1.0000
  H   H1721     1.0  0.97246  0.60142  0.37338  1.0000
  C   C975      1.0  0.66753  0.86887  0.27553  1.0000
  H   H1722     1.0  0.95476  0.61906  0.35347  1.0000
  H   H1723     1.0  0.80184  0.81691  0.01828  1.0000
  H   H1724     1.0  0.94849  0.80670  0.14287  1.0000
  C   C976      1.0  0.77722  0.98493  0.13330  1.0000
  H   H1725     1.0  0.78696  0.76196  0.10526  1.0000
  H   H1726     1.0  0.80741  0.75381  0.07943  1.0000
  H   H1727     1.0  0.73917  0.81365  0.10834  1.0000
  H   H1728     1.0  0.76842  0.83115  0.09306  1.0000
  H   H1729     1.0  0.69739  0.98045  0.26824  1.0000
  H   H1730     1.0  0.90520  0.73758  0.00444  1.0000
  C   C977      1.0  0.78823  0.91410  0.05531  1.0000
  H   H1731     1.0  0.76695  0.96789  0.09472  1.0000
  H   H1732     1.0  0.80355  0.91988  0.01276  1.0000
  H   H1733     1.0  0.97888  0.79291  0.11339  1.0000
  C   C978      1.0  0.96489  0.78554  0.11200  1.0000
  C   C979      1.0  0.72160  0.97680  0.30195  1.0000
  H   H1734     1.0  0.80962  0.73412  0.12761  1.0000
  H   H1735     1.0  0.92414  0.52541  0.28126  1.0000
  H   H1736     1.0  0.91523  0.63532  0.45596  1.0000
  H   H1737     1.0  0.67130  0.92905  0.24347  1.0000
  H   H1738     1.0  0.73307  0.97974  0.28434  1.0000
  C   C980      1.0  0.79569  0.80233  0.01700  1.0000
  H   H1739     1.0  0.73465  0.89909  0.29662  1.0000
  C   C981      1.0  0.98040  0.62987  0.30687  1.0000
  H   H1740     1.0  0.97398  0.53187  0.24300  1.0000
  C   C982      1.0  0.88905  0.74256  0.06275  1.0000
  C   C983      1.0  0.97095  0.65499  0.24670  1.0000
  H   H1741     1.0  0.69257  0.92606  0.19644  1.0000
  H   H1742     1.0  0.90481  0.76282  0.01563  1.0000
  H   H1743     1.0  0.85101  0.83984  0.07062  1.0000
  C   C984      1.0  0.93223  0.78760  0.20227  1.0000
  C   C985      1.0  0.96926  0.67607  0.23296  1.0000
  H   H1744     1.0  0.95461  0.67923  0.22108  1.0000
  H   H1745     1.0  0.83128  0.84645  0.09844  1.0000
  H   H1746     1.0  0.97392  0.61273  0.25462  1.0000
  H   H1747     1.0  0.78645  0.94033  0.02670  1.0000
  H   H1748     1.0  0.92437  0.79689  0.18355  1.0000
  H   H1749     1.0  0.77325  0.91697  0.06633  1.0000
  C   C986      1.0  0.91806  0.50505  0.18868  1.0000
  H   H1750     1.0  0.96464  0.63120  0.29860  1.0000
  H   H1751     1.0  0.94419  0.82147  0.19613  1.0000
  H   H1752     1.0  0.77283  0.90061  0.00163  1.0000
  H   H1753     1.0  0.73062  0.92694  0.07152  1.0000
  H   H1754     1.0  0.96567  0.85102  0.19691  1.0000
  H   H1755     1.0  0.95829  0.65430  0.26315  1.0000
  H   H1756     1.0  0.96929  0.64450  0.22699  1.0000
  H   H1757     1.0  0.83320  0.81216  0.05026  1.0000
  C   C987      1.0  0.96377  0.77762  0.22869  1.0000
  C   C988      1.0  0.89677  0.56005  0.24753  1.0000
  H   H1758     1.0  0.95635  0.61061  0.45451  1.0000
  C   C989      1.0  0.80263  0.78877  0.04505  1.0000
  H   H1759     1.0  0.72304  0.83707  0.26909  1.0000
  H   H1760     1.0  0.83018  0.74926  0.12628  1.0000
  H   H1761     1.0  0.98144  0.64335  0.32170  1.0000
  H   H1762     1.0  0.70141  0.96931  0.21254  1.0000
  H   H1763     1.0  0.73646  0.80570  0.06793  1.0000
  C   C990      1.0  0.67536  0.88660  0.28406  1.0000
  H   H1764     1.0  0.71618  0.79335  0.28137  1.0000
  H   H1765     1.0  0.95746  0.78307  0.25160  1.0000
  C   C991      1.0  0.92526  0.51986  0.25661  1.0000
  H   H1766     1.0  0.72716  0.98323  0.18430  1.0000
  H   H1767     1.0  0.87045  0.51761  0.49391  1.0000
  H   H1768     1.0  0.77919  0.80469  0.01612  1.0000
  H   H1769     1.0  0.87396  0.52306  0.25526  1.0000
  H   H1770     1.0  0.70475  0.93333  0.08178  1.0000
  H   H1771     1.0  0.95148  0.63587  0.41255  1.0000
  H   H1772     1.0  0.79221  0.89775  0.05328  1.0000
  H   H1773     1.0  0.73806  0.80202  0.26318  1.0000
  H   H1774     1.0  0.90856  0.55946  0.26578  1.0000
  H   H1775     1.0  0.80894  0.75628  0.15147  1.0000
  H   H1776     1.0  0.89411  0.77924  0.22219  1.0000
  H   H1777     1.0  0.79859  0.85158  0.00707  1.0000
  H   H1778     1.0  0.89895  0.75366  0.07124  1.0000
  H   H1779     1.0  0.88126  0.50974  0.32871  1.0000
  H   H1780     1.0  0.66353  0.84958  0.36723  1.0000
  C   C992      1.0  0.97085  0.61509  0.35867  1.0000
  C   C993      1.0  0.77999  0.94839  0.13102  1.0000
  H   H1781     1.0  0.92966  0.77189  0.19657  1.0000
  H   H1782     1.0  0.77481  0.79722  0.11154  1.0000
  H   H1783     1.0  0.96020  0.76185  0.22634  1.0000
  H   H1784     1.0  0.93817  0.64589  0.46482  1.0000
  C   C994      1.0  0.72313  0.97454  0.16349  1.0000
  N   N55       1.0  0.72419  0.84349  0.33716  1.0000
  C   C995      1.0  0.73468  0.83925  0.36817  1.0000
  C   C996      1.0  0.70179  0.84689  0.34198  1.0000
  C   C997      1.0  0.72859  0.82514  0.31675  1.0000
  C   C998      1.0  0.73170  0.86092  0.32024  1.0000
  C   C999      1.0  0.72990  0.88107  0.33804  1.0000
  C   C1000     1.0  0.75777  0.83523  0.36692  1.0000
  H   H1785     1.0  0.71185  0.95047  0.32479  1.0000
  C   C1001     1.0  0.69412  0.85703  0.37315  1.0000
  H   H1786     1.0  0.99202  0.58156  0.21475  1.0000
  C   C1002     1.0  0.74084  0.89654  0.32062  1.0000
  C   C1003     1.0  0.76655  0.83252  0.39995  1.0000
  C   C1004     1.0  0.97893  0.84043  0.20268  1.0000
  H   H1787     1.0  0.72887  0.82610  0.37955  1.0000
  H   H1788     1.0  0.73132  0.85173  0.38499  1.0000
  H   H1789     1.0  0.72487  0.81160  0.32967  1.0000
  C   C1005     1.0  0.67715  0.85708  0.25154  1.0000
  H   H1790     1.0  0.86944  0.73762  0.02462  1.0000
  H   H1791     1.0  0.74475  0.82263  0.31103  1.0000
  H   H1792     1.0  0.74745  0.85723  0.31262  1.0000
  H   H1793     1.0  0.72335  0.86395  0.29800  1.0000
  H   H1794     1.0  0.73636  0.87959  0.36194  1.0000
  H   H1795     1.0  0.71396  0.88712  0.33959  1.0000
  H   H1796     1.0  0.76254  0.82136  0.35366  1.0000
  H   H1797     1.0  0.76447  0.84787  0.35588  1.0000
  C   C1006     1.0  0.93164  0.63364  0.45237  1.0000
  H   H1798     1.0  0.89029  0.53075  0.28471  1.0000
  H   H1799     1.0  0.69718  0.84648  0.39305  1.0000
  H   H1800     1.0  0.70132  0.87069  0.37840  1.0000
  C   C1007     1.0  0.88917  0.51966  0.26553  1.0000
  H   H1801     1.0  0.92447  0.80811  0.24206  1.0000
  H   H1802     1.0  0.89309  0.80527  0.21102  1.0000
  H   H1803     1.0  0.75702  0.89149  0.31880  1.0000
  H   H1804     1.0  0.73902  0.91093  0.33359  1.0000
  H   H1805     1.0  0.91150  0.58088  0.21861  1.0000
  H   H1806     1.0  0.76061  0.81973  0.41196  1.0000
  H   H1807     1.0  0.78304  0.82944  0.39843  1.0000
  H   H1808     1.0  0.76296  0.84628  0.41417  1.0000
  H   H1809     1.0  0.82610  0.78146  0.09623  1.0000
  H   H1810     1.0  0.73720  0.94746  0.31070  1.0000
  H   H1811     1.0  0.91680  0.51950  0.17604  1.0000
  H   H1812     1.0  0.83885  0.80958  0.09151  1.0000
  H   H1813     1.0  0.82644  0.84889  0.05673  1.0000
  C   C1008     1.0  0.96270  0.78154  0.17132  1.0000
  C   C1009     1.0  0.69426  0.93858  0.21287  1.0000
  H   H1814     1.0  0.67531  0.95919  0.44616  1.0000
  C   C1010     1.0  0.72181  0.80554  0.26747  1.0000
  H   H1815     1.0  0.67445  0.94383  0.41152  1.0000
  H   H1816     1.0  0.87742  0.74112  0.08087  1.0000
  H   H1817     1.0  0.77773  0.93483  0.11849  1.0000
  H   H1818     1.0  0.93966  0.54710  0.24739  1.0000
  C   C1011     1.0  0.94092  0.61284  0.46386  1.0000
  C   C1012     1.0  0.89991  0.54179  0.22512  1.0000
  C   C1013     1.0  0.69953  0.95744  0.19497  1.0000
  H   H1819     1.0  0.88213  0.56030  0.25962  1.0000
  C   C1014     1.0  0.87587  0.49991  0.31025  1.0000
  H   H1820     1.0  0.73321  0.83184  0.07791  1.0000
  H   H1821     1.0  0.97674  0.62733  0.37218  1.0000
  C   C1015     1.0  0.77397  0.96714  0.11760  1.0000
  C   C1016     1.0  0.96510  0.57781  0.48505  1.0000
  C   C1017     1.0  0.90776  0.55491  0.48254  1.0000
  C   C1018     1.0  0.92099  0.79331  0.23340  1.0000
  H   H1822     1.0  0.93093  0.50378  0.25900  1.0000
  H   H1823     1.0  0.92514  0.78193  0.25176  1.0000
  C   C1019     1.0  0.95709  0.81185  0.20621  1.0000
  N   N56       1.0  0.79890  0.79742  0.07753  1.0000
  C   C1020     1.0  0.80687  0.81744  0.08136  1.0000
  C   C1021     1.0  0.77687  0.79904  0.08570  1.0000
  C   C1022     1.0  0.80977  0.78329  0.10083  1.0000
  H   H1824     1.0  0.71404  0.80640  0.24441  1.0000
  C   C1023     1.0  0.72182  0.95414  0.30530  1.0000
  C   C1024     1.0  0.82934  0.81819  0.07398  1.0000
  C   C1025     1.0  0.80328  0.76182  0.10168  1.0000
  C   C1026     1.0  0.76406  0.81893  0.07775  1.0000
  C   C1027     1.0  0.74188  0.81731  0.08337  1.0000
  H   H1825     1.0  0.88078  0.50088  0.46375  1.0000
  C   C1028     1.0  0.83478  0.83968  0.07501  1.0000
  H   H1826     1.0  0.80421  0.82299  0.10588  1.0000
  H   H1827     1.0  0.79867  0.82883  0.06620  1.0000
  H   H1828     1.0  0.76962  0.78667  0.07457  1.0000
  H   H1829     1.0  0.95699  0.81568  0.23169  1.0000
  H   H1830     1.0  0.88499  0.58085  0.21110  1.0000
  C   C1029     1.0  0.71968  0.92777  0.09112  1.0000
  C   C1030     1.0  0.78854  0.92393  0.02299  1.0000
  H   H1831     1.0  0.67126  0.84335  0.24467  1.0000
  H   H1832     1.0  0.98978  0.80962  0.19645  1.0000
  C   C1031     1.0  0.93525  0.63635  0.41731  1.0000
  H   H1833     1.0  0.89356  0.59244  0.24608  1.0000
  H   H1834     1.0  0.97884  0.78317  0.16916  1.0000
  N   N57       1.0  0.90499  0.52183  0.24090  1.0000
  C   C1032     1.0  0.96259  0.52270  0.25253  1.0000
  H   H1835     1.0  0.81880  0.78382  0.04187  1.0000
  C   C1033     1.0  0.89520  0.75178  0.00602  1.0000
  H   H1836     1.0  0.79502  0.77498  0.04218  1.0000
  N   N58       1.0  0.99454  0.62980  0.27936  1.0000
  C   C1034     1.0  0.99025  0.61400  0.25566  1.0000
  C   C1035     1.0  0.77181  0.91720  0.00159  1.0000
  H   H1837     1.0  0.99480  0.77238  0.21103  1.0000
  H   H1838     1.0  0.99086  0.74762  0.25384  1.0000
  H   H1839     1.0  0.75755  0.92201  0.01386  1.0000
  C   C1036     1.0  0.87210  0.56378  0.48200  1.0000
  H   H1840     1.0  0.68977  0.98030  0.30785  1.0000
  C   C1037     1.0  0.90364  0.50540  0.21702  1.0000
  H   H1841     1.0  0.88809  0.50596  0.20778  1.0000
  H   H1842     1.0  0.66819  0.89588  0.30241  1.0000
  H   H1843     1.0  0.97453  0.82009  0.16529  1.0000
  C   C1038     1.0  0.70065  0.98646  0.29181  1.0000
  H   H1844     1.0  0.93279  0.60141  0.45164  1.0000
  C   C1039     1.0  0.94186  0.53099  0.24116  1.0000
  H   H1845     1.0  0.99048  0.79234  0.23962  1.0000
  H   H1846     1.0  0.95171  0.72053  0.99884  1.0000
  H   H1847     1.0  0.96339  0.52303  0.27854  1.0000
  H   H1848     1.0  0.98146  0.84048  0.22848  1.0000
  H   H1849     1.0  0.98739  0.76793  0.28184  1.0000
  H   H1850     1.0  0.99227  0.66220  0.28103  1.0000
  H   H1851     1.0  0.66630  0.97016  0.40944  1.0000
  H   H1852     1.0  0.99452  0.61845  0.23157  1.0000
  H   H1853     1.0  0.98119  0.67756  0.21539  1.0000
  H   H1854     1.0  0.99287  0.73608  0.12595  1.0000
  H   H1855     1.0  0.66637  0.86934  0.39505  1.0000
  C   C1040     1.0  0.87576  0.50176  0.48861  1.0000
  C   C1041     1.0  0.70678  0.98811  0.14587  1.0000
  H   H1856     1.0  0.86040  0.50560  0.30346  1.0000
  C   C1042     1.0  0.66669  0.95668  0.42451  1.0000
  C   C1043     1.0  0.98664  0.77732  0.23273  1.0000
  H   H1857     1.0  0.99218  0.84566  0.19098  1.0000
  H   H1858     1.0  0.96614  0.50704  0.24445  1.0000
  H   H1859     1.0  0.94193  0.52997  0.21526  1.0000
  H   H1860     1.0  0.90960  0.60363  0.49392  1.0000
  H   H1861     1.0  0.67587  0.95472  0.24883  1.0000
  H   H1862     1.0  0.97930  0.50760  0.37279  1.0000
  C   C1044     1.0  0.99173  0.57737  0.23996  1.0000
  C   C1045     1.0  0.98768  0.49665  0.38868  1.0000
  H   H1863     1.0  0.69435  0.99310  0.16211  1.0000
  C   C1046     1.0  0.99429  0.76307  0.25903  1.0000
  Fe  Fe117     1.0  0.77157  0.85648  0.89753  1.0000
  S   S233      1.0  0.79614  0.86989  0.87222  1.0000
  S   S234      1.0  0.78172  0.84639  0.94643  1.0000
  Fe  Fe118     1.0  0.74355  0.86094  0.83878  1.0000
  S   S235      1.0  0.76731  0.87352  0.81014  1.0000
  S   S236      1.0  0.71022  0.86443  0.82503  1.0000
  Fe  Fe119     1.0  0.78894  0.84945  0.83286  1.0000
  S   S237      1.0  0.81404  0.83012  0.80718  1.0000
  Fe  Fe120     1.0  0.77243  0.89252  0.85255  1.0000
  S   S238      1.0  0.76622  0.92632  0.85976  1.0000
  S   S239      1.0  0.76471  0.83549  0.85857  1.0000
  S   S240      1.0  0.74841  0.88023  0.88088  1.0000
  C   C1047     1.0  0.79973  0.89797  0.95255  1.0000
  Fe  Fe121     1.0  0.89701  0.73443  0.85243  1.0000
  S   S241      1.0  0.88873  0.70291  0.85555  1.0000
  S   S242      1.0  0.87240  0.75884  0.86810  1.0000
  Fe  Fe122     1.0  0.94142  0.71870  0.84033  1.0000
  S   S243      1.0  0.93564  0.68651  0.84412  1.0000
  S   S244      1.0  0.97109  0.72617  0.82037  1.0000
  Fe  Fe123     1.0  0.90888  0.69519  0.81402  1.0000
  S   S245      1.0  0.90118  0.67956  0.76820  1.0000
  Fe  Fe124     1.0  0.91627  0.69700  0.88537  1.0000
  S   S246      1.0  0.91282  0.67987  0.93064  1.0000
  S   S247      1.0  0.91515  0.72729  0.80866  1.0000
  S   S248      1.0  0.92403  0.72860  0.88386  1.0000
  Fe  Fe125     1.0  0.95393  0.57836  0.60984  1.0000
  S   S249      1.0  0.96146  0.56334  0.65574  1.0000
  S   S250      1.0  0.97559  0.59679  0.58681  1.0000
  Fe  Fe126     1.0  0.91354  0.56345  0.60635  1.0000
  S   S251      1.0  0.91707  0.54832  0.65372  1.0000
  S   S252      1.0  0.88756  0.55996  0.57373  1.0000
  Fe  Fe127     1.0  0.93051  0.57628  0.66982  1.0000
  S   S253      1.0  0.92940  0.59080  0.71885  1.0000
  Fe  Fe128     1.0  0.94752  0.53695  0.63586  1.0000
  S   S254      1.0  0.96256  0.50491  0.63277  1.0000
  S   S255      1.0  0.92377  0.59234  0.62419  1.0000
  S   S256      1.0  0.94323  0.55113  0.58831  1.0000
  H   H1864     1.0  0.92255  0.61597  0.56055  1.0000
  H   H1865     1.0  0.86392  0.77974  0.99131  1.0000
  C   C1048     1.0  0.77097  0.85653  0.98141  1.0000
  H   H1866     1.0  0.87494  0.52012  0.59777  1.0000
  H   H1867     1.0  0.85613  0.81726  0.92674  1.0000
  C   C1049     1.0  0.88931  0.55911  0.53213  1.0000
  C   C1050     1.0  0.97776  0.50024  0.72505  1.0000
  H   H1868     1.0  0.88930  0.60654  0.57544  1.0000
  H   H1869     1.0  0.92097  0.55084  0.52890  1.0000
  H   H1870     1.0  0.85767  0.56664  0.52709  1.0000
  C   C1051     1.0  0.92071  0.68900  0.96714  1.0000
  C   C1052     1.0  0.88675  0.49597  0.54511  1.0000
  H   H1871     1.0  0.70900  0.94546  0.79548  1.0000
  H   H1872     1.0  0.94041  0.70878  0.94719  1.0000
  C   C1053     1.0  0.86254  0.71018  0.95094  1.0000
  C   C1054     1.0  0.91016  0.65513  0.75454  1.0000
  C   C1055     1.0  0.90685  0.64992  0.72303  1.0000
  C   C1056     1.0  0.91297  0.63052  0.71151  1.0000
  C   C1057     1.0  0.92226  0.61590  0.73151  1.0000
  C   C1058     1.0  0.92578  0.62120  0.76294  1.0000
  C   C1059     1.0  0.91994  0.64068  0.77432  1.0000
  H   H1873     1.0  0.89928  0.66090  0.70746  1.0000
  H   H1874     1.0  0.91008  0.62676  0.68733  1.0000
  H   H1875     1.0  0.93273  0.61005  0.77882  1.0000
  H   H1876     1.0  0.92243  0.64432  0.79867  1.0000
  H   H1877     1.0  0.79585  0.91725  0.76783  1.0000
  C   C1060     1.0  0.83032  0.81049  0.82457  1.0000
  C   C1061     1.0  0.82671  0.80290  0.85439  1.0000
  C   C1062     1.0  0.83959  0.78700  0.86698  1.0000
  C   C1063     1.0  0.85642  0.77852  0.85023  1.0000
  C   C1064     1.0  0.86011  0.78617  0.82047  1.0000
  C   C1065     1.0  0.84704  0.80190  0.80764  1.0000
  H   H1878     1.0  0.81389  0.80922  0.86769  1.0000
  H   H1879     1.0  0.83639  0.78122  0.88988  1.0000
  H   H1880     1.0  0.87322  0.78026  0.80757  1.0000
  H   H1881     1.0  0.85007  0.80767  0.78463  1.0000
  C   C1066     1.0  0.98057  0.65488  0.81832  1.0000
  H   H1882     1.0  0.97328  0.70036  0.72177  1.0000
  H   H1883     1.0  0.98161  0.56077  0.52187  1.0000
  H   H1884     1.0  0.74146  0.86328  0.96250  1.0000
  H   H1885     1.0  0.95150  0.62084  0.54233  1.0000
  C   C1067     1.0  0.69656  0.86351  0.78914  1.0000
  C   C1068     1.0  0.70446  0.85330  0.76257  1.0000
  C   C1069     1.0  0.69244  0.85144  0.73572  1.0000
  H   H1886     1.0  0.93637  0.57823  0.50504  1.0000
  H   H1887     1.0  0.80251  0.92936  0.96180  1.0000
  C   C1070     1.0  0.67669  0.87244  0.78794  1.0000
  H   H1888     1.0  0.71962  0.84621  0.76310  1.0000
  C   C1071     1.0  0.80267  0.79272  0.98579  1.0000
  H   H1889     1.0  0.67444  0.91722  0.71371  1.0000
  H   H1890     1.0  0.98306  0.56477  0.73393  1.0000
  C   C1072     1.0  0.79164  0.94752  0.82399  1.0000
  C   C1073     1.0  0.77531  0.94814  0.84439  1.0000
  C   C1074     1.0  0.76537  0.96676  0.85276  1.0000
  H   H1891     1.0  0.79961  0.93331  0.81773  1.0000
  H   H1892     1.0  0.75267  0.96742  0.86837  1.0000
  H   H1893     1.0  0.93092  0.70748  0.74877  1.0000
  N   N59       1.0  0.83871  0.73110  0.77546  1.0000
  C   C1075     1.0  0.82588  0.71591  0.76238  1.0000
  C   C1076     1.0  0.82814  0.75201  0.77260  1.0000
  C   C1077     1.0  0.85750  0.72995  0.75579  1.0000
  C   C1078     1.0  0.84477  0.72661  0.80903  1.0000
  C   C1079     1.0  0.82762  0.72626  0.83313  1.0000
  C   C1080     1.0  0.83509  0.69379  0.76324  1.0000
  C   C1081     1.0  0.87143  0.74663  0.76132  1.0000
  C   C1082     1.0  0.80510  0.75461  0.77657  1.0000
  C   C1083     1.0  0.79728  0.77664  0.78032  1.0000
  C   C1084     1.0  0.83531  0.71795  0.86472  1.0000
  C   C1085     1.0  0.82051  0.67991  0.75010  1.0000
  C   C1086     1.0  0.88938  0.74406  0.73919  1.0000
  H   H1894     1.0  0.82195  0.71968  0.73749  1.0000
  H   H1895     1.0  0.81140  0.71641  0.77479  1.0000
  H   H1896     1.0  0.83459  0.76219  0.78959  1.0000
  H   H1897     1.0  0.83070  0.75829  0.74889  1.0000
  H   H1898     1.0  0.85365  0.73014  0.73030  1.0000
  H   H1899     1.0  0.86693  0.71560  0.76001  1.0000
  H   H1900     1.0  0.85452  0.71227  0.81049  1.0000
  H   H1901     1.0  0.85422  0.73795  0.81797  1.0000
  H   H1902     1.0  0.81606  0.71685  0.82515  1.0000
  H   H1903     1.0  0.82075  0.74174  0.83743  1.0000
  H   H1904     1.0  0.84885  0.69147  0.74882  1.0000
  H   H1905     1.0  0.83872  0.68894  0.78765  1.0000
  H   H1906     1.0  0.87714  0.74614  0.78571  1.0000
  H   H1907     1.0  0.86367  0.76173  0.75706  1.0000
  H   H1908     1.0  0.79797  0.74882  0.75535  1.0000
  H   H1909     1.0  0.80002  0.74654  0.79715  1.0000
  H   H1910     1.0  0.80285  0.78269  0.80258  1.0000
  H   H1911     1.0  0.80211  0.78562  0.76037  1.0000
  H   H1912     1.0  0.78072  0.77826  0.78114  1.0000
  H   H1913     1.0  0.84672  0.72707  0.87432  1.0000
  H   H1914     1.0  0.82279  0.71838  0.88175  1.0000
  H   H1915     1.0  0.84193  0.70222  0.86218  1.0000
  H   H1916     1.0  0.81668  0.68378  0.72532  1.0000
  H   H1917     1.0  0.82753  0.66423  0.75078  1.0000
  H   H1918     1.0  0.80665  0.68091  0.76440  1.0000
  H   H1919     1.0  0.88447  0.74601  0.71438  1.0000
  H   H1920     1.0  0.89970  0.75544  0.74472  1.0000
  H   H1921     1.0  0.89765  0.72900  0.74198  1.0000
  C   C1087     1.0  0.97424  0.62396  0.50859  1.0000
  C   C1088     1.0  0.93746  0.76872  0.93319  1.0000
  H   H1922     1.0  0.92719  0.50064  0.59096  1.0000
  C   C1089     1.0  0.76668  0.94752  0.96951  1.0000
  N   N60       1.0  0.88741  0.75824  0.97395  1.0000
  H   H1923     1.0  0.98212  0.71897  0.88620  1.0000
  H   H1924     1.0  0.71819  0.96168  0.74893  1.0000
  H   H1925     1.0  0.72929  0.93666  0.96195  1.0000
  C   C1090     1.0  0.67250  0.86011  0.73466  1.0000
  H   H1926     1.0  0.87626  0.52950  0.65307  1.0000
  C   C1091     1.0  0.87744  0.77931  0.97626  1.0000
  C   C1092     1.0  0.82011  0.89511  0.93649  1.0000
  C   C1093     1.0  0.86125  0.81072  0.94968  1.0000
  H   H1927     1.0  0.95371  0.58697  0.53140  1.0000
  C   C1094     1.0  0.74521  0.96904  0.77073  1.0000
  H   H1928     1.0  0.70938  0.90727  0.79845  1.0000
  H   H1929     1.0  0.98060  0.63018  0.67670  1.0000
  H   H1930     1.0  0.81897  0.90047  0.91182  1.0000
  H   H1931     1.0  0.73190  0.91449  0.98587  1.0000
  C   C1095     1.0  0.88748  0.51289  0.61195  1.0000
  H   H1932     1.0  0.79730  0.80271  0.96611  1.0000
  C   C1096     1.0  0.94849  0.58812  0.50658  1.0000
  H   H1933     1.0  0.76173  0.93027  0.78987  1.0000
  H   H1934     1.0  0.70672  0.90535  0.85603  1.0000
  H   H1935     1.0  0.76078  0.96276  0.77528  1.0000
  C   C1097     1.0  0.78826  0.91149  0.74708  1.0000
  C   C1098     1.0  0.66450  0.98025  0.77320  1.0000
  C   C1099     1.0  0.96634  0.63895  0.68330  1.0000
  H   H1936     1.0  0.73340  0.90626  0.81713  1.0000
  H   H1937     1.0  0.94518  0.75334  0.93478  1.0000
  H   H1938     1.0  0.69563  0.98683  0.77259  1.0000
  H   H1939     1.0  0.72021  0.91629  0.91606  1.0000
  H   H1940     1.0  0.94580  0.51985  0.52930  1.0000
  H   H1941     1.0  0.67440  0.97778  0.62481  1.0000
  C   C1100     1.0  0.91313  0.68182  0.99525  1.0000
  C   C1101     1.0  0.78784  0.98409  0.82041  1.0000
  H   H1942     1.0  0.98586  0.60037  0.77857  1.0000
  C   C1102     1.0  0.93437  0.70325  0.96862  1.0000
  H   H1943     1.0  0.97784  0.62485  0.83593  1.0000
  H   H1944     1.0  0.75375  0.95187  0.98523  1.0000
  H   H1945     1.0  0.90028  0.52184  0.60976  1.0000
  H   H1946     1.0  0.91580  0.51545  0.56046  1.0000
  H   H1947     1.0  0.96701  0.62977  0.73133  1.0000
  C   C1103     1.0  0.79774  0.96543  0.81182  1.0000
  C   C1104     1.0  0.97414  0.55808  0.49919  1.0000
  C   C1105     1.0  0.69982  0.92743  0.73858  1.0000
  C   C1106     1.0  0.87231  0.74495  0.96208  1.0000
  H   H1948     1.0  0.97056  0.58012  0.78281  1.0000
  H   H1949     1.0  0.88472  0.71664  0.98429  1.0000
  C   C1107     1.0  0.87172  0.56328  0.51490  1.0000
  H   H1950     1.0  0.78585  0.89562  0.75123  1.0000
  C   C1108     1.0  0.71925  0.91581  0.81291  1.0000
  H   H1951     1.0  0.69727  0.94238  0.72752  1.0000
  C   C1109     1.0  0.76264  0.95806  0.93738  1.0000
  C   C1110     1.0  0.74600  0.98883  0.75350  1.0000
  H   H1952     1.0  0.86821  0.69409  0.95008  1.0000
  H   H1953     1.0  0.69440  0.92864  0.84182  1.0000
  H   H1954     1.0  0.74527  0.98455  0.95656  1.0000
  C   C1111     1.0  0.69059  0.91261  0.71712  1.0000
  H   H1955     1.0  0.81031  0.96486  0.79590  1.0000
  H   H1956     1.0  0.69857  0.84293  0.71575  1.0000
  H   H1957     1.0  0.71871  0.92789  0.86046  1.0000
  H   H1958     1.0  0.79823  0.91216  0.72642  1.0000
  H   H1959     1.0  0.69790  0.91190  0.69369  1.0000
  H   H1960     1.0  0.98151  0.51366  0.71201  1.0000
  H   H1961     1.0  0.71463  0.98969  0.85818  1.0000
  C   C1112     1.0  0.89227  0.61128  0.55105  1.0000
  H   H1962     1.0  0.69221  0.89745  0.72769  1.0000
  H   H1963     1.0  0.73970  0.95345  0.72708  1.0000
  H   H1964     1.0  0.69165  0.92782  0.76121  1.0000
  C   C1113     1.0  0.91453  0.60705  0.54379  1.0000
  C   C1114     1.0  0.75861  0.98070  0.94156  1.0000
  C   C1115     1.0  0.76843  0.92405  0.74088  1.0000
  H   H1965     1.0  0.77568  0.95521  0.92151  1.0000
  H   H1966     1.0  0.96563  0.59767  0.75137  1.0000
  H   H1967     1.0  0.76179  0.91790  0.71962  1.0000
  H   H1968     1.0  0.73270  0.94323  0.81384  1.0000
  C   C1116     1.0  0.90475  0.75690  0.95136  1.0000
  N   N61       1.0  0.77128  0.92510  0.96840  1.0000
  C   C1117     1.0  0.77170  0.98462  0.84114  1.0000
  H   H1969     1.0  0.87247  0.81996  0.95967  1.0000
  C   C1118     1.0  0.79107  0.92024  0.95206  1.0000
  C   C1119     1.0  0.75558  0.91542  0.95033  1.0000
  C   C1120     1.0  0.73377  0.92035  0.96182  1.0000
  H   H1970     1.0  0.94128  0.72122  0.71762  1.0000
  H   H1971     1.0  0.89159  0.71939  0.94370  1.0000
  H   H1972     1.0  0.91392  0.78742  0.95536  1.0000
  C   C1121     1.0  0.71920  0.91075  0.94050  1.0000
  H   H1973     1.0  0.88290  0.78960  0.92779  1.0000
  H   H1974     1.0  0.88737  0.62749  0.54892  1.0000
  C   C1122     1.0  0.68202  0.99008  0.78713  1.0000
  H   H1975     1.0  0.86765  0.50514  0.64958  1.0000
  H   H1976     1.0  0.78978  0.92444  0.92679  1.0000
  H   H1977     1.0  0.75624  0.91910  0.92491  1.0000
  H   H1978     1.0  0.75863  0.89889  0.95127  1.0000
  H   H1979     1.0  0.88330  0.60286  0.53482  1.0000
  H   H1980     1.0  0.68525  0.98432  0.81122  1.0000
  H   H1981     1.0  0.79651  0.77817  0.98256  1.0000
  H   H1982     1.0  0.66570  0.78666  0.73394  1.0000
  H   H1983     1.0  0.78976  0.88866  0.93972  1.0000
  H   H1984     1.0  0.89940  0.75877  0.92668  1.0000
  C   C1123     1.0  0.92057  0.77170  0.95725  1.0000
  C   C1124     1.0  0.97763  0.58954  0.76552  1.0000
  H   H1985     1.0  0.82561  0.87897  0.93621  1.0000
  H   H1986     1.0  0.77936  0.95445  0.98028  1.0000
  H   H1987     1.0  0.83106  0.90332  0.94936  1.0000
  H   H1988     1.0  0.89303  0.50760  0.66190  1.0000
  C   C1125     1.0  0.91891  0.61250  0.50920  1.0000
  H   H1989     1.0  0.85714  0.71477  0.92714  1.0000
  H   H1990     1.0  0.88241  0.51218  0.54917  1.0000
  H   H1991     1.0  0.94856  0.77947  0.93784  1.0000
  C   C1126     1.0  0.70912  0.91978  0.84474  1.0000
  C   C1127     1.0  0.98344  0.64052  0.52636  1.0000
  H   H1992     1.0  0.91296  0.74170  0.95212  1.0000
  H   H1993     1.0  0.96523  0.49952  0.52532  1.0000
  H   H1994     1.0  0.96239  0.54794  0.50314  1.0000
  H   H1995     1.0  0.67173  0.96879  0.68084  1.0000
  H   H1996     1.0  0.95106  0.72262  0.75687  1.0000
  H   H1997     1.0  0.67038  0.88034  0.80834  1.0000
  C   C1128     1.0  0.94490  0.71259  0.73944  1.0000
  H   H1998     1.0  0.75372  0.90785  0.77594  1.0000
  C   C1129     1.0  0.98373  0.65599  0.72762  1.0000
  H   H1999     1.0  0.86788  0.74900  0.93754  1.0000
  H   H2000     1.0  0.98886  0.59059  0.69887  1.0000
  H   H2001     1.0  0.91288  0.62841  0.50640  1.0000
  H   H2002     1.0  0.85880  0.78102  0.93363  1.0000
  C   C1130     1.0  0.92031  0.49963  0.56731  1.0000
  H   H2003     1.0  0.93156  0.77132  0.90900  1.0000
  H   H2004     1.0  0.95098  0.67588  0.76910  1.0000
  H   H2005     1.0  0.67410  0.98117  0.72566  1.0000
  H   H2006     1.0  0.72434  0.90517  0.75052  1.0000
  C   C1131     1.0  0.96606  0.64407  0.71829  1.0000
  H   H2007     1.0  0.97283  0.64455  0.86455  1.0000
  H   H2008     1.0  0.95149  0.65249  0.72400  1.0000
  C   C1132     1.0  0.87938  0.72232  0.96107  1.0000
  H   H2009     1.0  0.96349  0.64445  0.77984  1.0000
  H   H2010     1.0  0.72248  0.89424  0.94056  1.0000
  H   H2011     1.0  0.72920  0.92114  0.71923  1.0000
  H   H2012     1.0  0.88735  0.78917  0.98831  1.0000
  C   C1133     1.0  0.87041  0.78923  0.94468  1.0000
  C   C1134     1.0  0.66913  0.80208  0.73934  1.0000
  H   H2013     1.0  0.91893  0.59100  0.54853  1.0000
  H   H2014     1.0  0.95460  0.64099  0.83473  1.0000
  H   H2015     1.0  0.77186  0.93948  0.73572  1.0000
  C   C1135     1.0  0.88071  0.51374  0.64624  1.0000
  H   H2016     1.0  0.70370  0.91454  0.94905  1.0000
  H   H2017     1.0  0.97590  0.65540  0.51990  1.0000
  N   N62       1.0  0.73337  0.93378  0.76524  1.0000
  C   C1136     1.0  0.72332  0.93567  0.79692  1.0000
  C   C1137     1.0  0.73363  0.95436  0.75143  1.0000
  C   C1138     1.0  0.72247  0.92114  0.74307  1.0000
  C   C1139     1.0  0.75427  0.92376  0.76961  1.0000
  H   H2018     1.0  0.95322  0.68563  0.71416  1.0000
  H   H2019     1.0  0.74946  0.95285  0.92551  1.0000
  C   C1140     1.0  0.96000  0.69467  0.73229  1.0000
  H   H2020     1.0  0.98497  0.55451  0.59169  1.0000
  H   H2021     1.0  0.73782  0.97254  0.79368  1.0000
  H   H2022     1.0  0.94449  0.63943  0.51448  1.0000
  N   N63       1.0  0.98216  0.66554  0.75977  1.0000
  H   H2023     1.0  0.80173  0.89218  0.97683  1.0000
  H   H2024     1.0  0.84816  0.81122  0.96563  1.0000
  H   H2025     1.0  0.95953  0.51010  0.56350  1.0000
  H   H2026     1.0  0.98537  0.66719  0.70901  1.0000
  H   H2027     1.0  0.90512  0.50411  0.50568  1.0000
  H   H2028     1.0  0.95392  0.62982  0.67789  1.0000
  C   C1141     1.0  0.96514  0.68200  0.76225  1.0000
  C   C1142     1.0  0.90736  0.55452  0.51586  1.0000
  C   C1143     1.0  0.97086  0.64036  0.83957  1.0000
  H   H2029     1.0  0.98218  0.63833  0.55214  1.0000
  H   H2030     1.0  0.96804  0.69238  0.78165  1.0000
  H   H2031     1.0  0.97362  0.67020  0.82313  1.0000
  C   C1144     1.0  0.97866  0.64935  0.78312  1.0000
  C   C1145     1.0  0.95297  0.50612  0.54070  1.0000
  C   C1146     1.0  0.75073  0.86342  0.98325  1.0000
  C   C1147     1.0  0.99174  0.57635  0.74434  1.0000
  H   H2032     1.0  0.96427  0.65278  0.66896  1.0000
  H   H2033     1.0  0.93069  0.49595  0.67538  1.0000
  H   H2034     1.0  0.81922  0.79045  0.98474  1.0000
  H   H2035     1.0  0.97564  0.50427  0.75023  1.0000
  H   H2036     1.0  0.68355  0.80128  0.75216  1.0000
  H   H2037     1.0  0.98936  0.63585  0.77896  1.0000
  H   H2038     1.0  0.92738  0.76941  0.98085  1.0000
  H   H2039     1.0  0.84997  0.71215  0.96789  1.0000
  H   H2040     1.0  0.85828  0.74724  0.97598  1.0000
  H   H2041     1.0  0.75408  0.98640  0.73084  1.0000
  H   H2042     1.0  0.75586  0.98796  0.91832  1.0000
  H   H2043     1.0  0.66842  0.96382  0.77408  1.0000
  C   C1148     1.0  0.66447  0.98729  0.64084  1.0000
  C   C1149     1.0  0.66481  0.87098  0.76080  1.0000
  H   H2044     1.0  0.67081  0.81030  0.71701  1.0000
  H   H2045     1.0  0.77169  0.98686  0.95240  1.0000
  C   C1150     1.0  0.95187  0.62396  0.51675  1.0000
  H   H2046     1.0  0.90255  0.67079  0.99427  1.0000
  H   H2047     1.0  0.98255  0.60965  0.51598  1.0000
  N   N64       1.0  0.94050  0.60940  0.49891  1.0000
  C   C1151     1.0  0.94075  0.70988  0.99794  1.0000
  C   C1152     1.0  0.99418  0.72430  0.84056  1.0000
  H   H2048     1.0  0.96347  0.49568  0.71580  1.0000
