data_image0
_chemical_formula_structural       SH2SH3SHSHFeHSCHCS2C2H2CH2SHC2HCH4CHCH2C6H4C6H2SHCHSH2C3HSH2CNH2CH2FeH7SH2SC3HSFeCH4FeCHCH2FeC2FeSHCHCH2FeH4CHC2HCH5C2H2FeH7C2H5CH3NH2NFeHCHC2H2FeHC3H2CH2SC4HCH2CSHCH2C2H5CH7CHCH4CS2H2FeSHC2H4C3SHC2HFeH5CHC7H3SC2H2CHC6H3CHNC8HCHCH18CH3CH6CH2FeC2HSH2CH5C3HCH4C2H4FeH3SCHCH3CH4SHCHSHCHCHC3HSHCHNH3CHCH2SHSHCNH6SFe2HCH4CH3C2SHSH4S2H2FeCSHFeCHSC2HSCH4FeH3CH3CHC2HC6H4C6H4NC7HC4H15SHFeH2CH7NC5HCH2C3H2CH7SH3C2H7CHCHSHCH2CNCSCH2NCH2CHCH2CH4CHCH3FeCHCH3NCH3CHC3FeCH3FeH3SH3CH4CSH4C2HC3HCH4SHSH7CHC2HC2HCHCSH2CFeSNSC2H3SHFeSH2CH6CH2C6H4CSCH4C6H4C2H2CHNHSC2H2C2HC2SH2C2HSH2CHCH2NC7HC2H15NH2CH3CH4C2H2C2SFeC2H6CHCHFeH5CH2SCH4CH3SHCH4FeH2SHSH2SHFeCHCH2CHCH2SHFeSHFeSCFeHSFeH2C6H4C6H4FeHSHCSFeS2HCSHCHC6H4C6H6CHNCHCSCHSH4C2HCHSH5CSH3CNH2C3H2CH4CHCH2C2HCH5SC2H4CH3SH6C3H3CH3CHCHNC6H11CH3C3HCHCH4CH3CHCH4SH4C2H5SH2CH6CSCH5CHFeH3CH2CH5FeCH3SHFeSHNHSHFeSCHSC6H4C6H6CFeSCSHFeSCFeHSHCSHSCHC4H7C6H4NC12H16Fe2CH6CFeHCH4FeH2SCHC2H2C2H8CNC9SC2H21FeH4SCHCH4CHCH2CH3CH2CHNHSC2HSH3NHCHCH2CH2C3HNCHCHSH2CH6CFeH2CH4CHNSFe2SHFeS2FeHSC9H3SC6H4FeHSH2SFeS2FeNSC9H4C6H6CHCHCSH2CHCHC2H11NH2CH5CH2SH4C2H2C2H3CH3CH8C2SHNC6HCSCH13CHCHCH4SH3CH3CH3C4H3CSH5CHC2FeC2H2C2H9CH4CH2CH2CH3CHC2SCHSCH3CH2CNH4CH2CHNH5SFe2SHCSH2FeSCHSC6H4C6H4NH2CSCH2FeSHFeCSH2SHSC7H6C6H6C2H2FeHCSHSCH2SH4CHCHCH3NHC3H3FeNC11H30CHCHC2HSHC2SCFeHCHFeH2C4H8CHCH2CHCFeH5C2S2H6FeSHCHCHSH2CH5FeH5CHC2H3SHSC3H2SH3CNFeHCH6SHCH2S2FeHSFeHCHSC2H3CHCHCNHNHC2H2C6H4C6H3Fe2HSH2CSCH2CH8CHC2H6SFeCH3CSHCH4CH2C2H3CFeHCSHC2HCHC5H3C2H2CFeH2CH2CSH3CSCH6CH2NH4CH6C5HCH2C2SH2C2H8SCFeSH2FeC2H2CH3CFeSHCH3CHSC8H4C6H4CH3FeH2NC2SC3HCHCH7CH4CSHCSH9NH2CNC5HC2HSH5CH2CHCH6C2SCH3CHCHFeH2CHCH6SH2CHCH2CH4CH7CH3CSH2CH2C2SCH4C2SH6FeCSCH4C2HCHCH4CH3CH2C2NHCH4NCSCSH2CSFeHSH4SHCH6CHC3H2SH2C6H4C6H5NCSH4NSCH2SC3H6C4H8CFe2HCH3CH12CFeCH2CH2CHFeC4SHSC2H2SNHC3HC6HSH3C2H3CHCH2CFeHCH2SH2SC2SH3CFeHCHFeH3SHSCFeSH4CHCHSCH3SHCH3CHCFeHC6H4C6H4NH4CHFeCH2SHCNHCHC2HCH3SC2H2CHCH9C4H2CH4CH3C3H6CH5C4H2CH7C2HFeCH9CH2CH5C2H4CHSH3C2H4SC2HSHCHC2HCHCHCH4FeHSH5SC2HNH4SHFeHCHCH4C3HC2H2CH
_chemical_formula_sum              "S192 H1536 Fe96 C864 N48"
_cell_length_a       44.7909
_cell_length_b       45.078
_cell_length_c       39.0052
_cell_angle_alpha    90.0142
_cell_angle_beta     89.9385
_cell_angle_gamma    90.1158

_space_group_name_H-M_alt    "P 1"
_space_group_IT_number       1

loop_
  _space_group_symop_operation_xyz
  'x, y, z'

loop_
  _atom_site_type_symbol
  _atom_site_label
  _atom_site_symmetry_multiplicity
  _atom_site_fract_x
  _atom_site_fract_y
  _atom_site_fract_z
  _atom_site_occupancy
  S   S1        1.0  0.99858  0.07081  0.15512  1.0000
  H   H1        1.0  0.22233  0.44796  0.34450  1.0000
  H   H2        1.0  0.08569  0.05230  0.03673  1.0000
  S   S2        1.0  0.15046  0.41594  0.47216  1.0000
  H   H3        1.0  0.08915  0.30316  0.07405  1.0000
  H   H4        1.0  0.10392  0.33350  0.09904  1.0000
  H   H5        1.0  0.22075  0.10055  0.48453  1.0000
  S   S3        1.0  0.10686  0.11016  0.05846  1.0000
  H   H6        1.0  0.12130  0.48290  0.34704  1.0000
  S   S4        1.0  0.12790  0.19145  0.02124  1.0000
  H   H7        1.0  0.31603  0.09967  0.16330  1.0000
  Fe  Fe1       1.0  0.14292  0.37774  0.43596  1.0000
  H   H8        1.0  0.23914  0.45653  0.38526  1.0000
  S   S5        1.0  0.11305  0.37946  0.38849  1.0000
  C   C1        1.0  0.21670  0.47892  0.47078  1.0000
  H   H9        1.0  0.20150  0.28202  0.00667  1.0000
  C   C2        1.0  0.01326  0.36038  0.00879  1.0000
  S   S6        1.0  0.19029  0.28295  0.49061  1.0000
  S   S7        1.0  0.19058  0.36145  0.43617  1.0000
  C   C3        1.0  0.21759  0.45321  0.37170  1.0000
  C   C4        1.0  0.17119  0.25585  0.03603  1.0000
  H   H10       1.0  0.08864  0.99534  0.41656  1.0000
  H   H11       1.0  0.02228  0.06600  0.00889  1.0000
  C   C5        1.0  0.06348  0.43490  0.44534  1.0000
  H   H12       1.0  0.21815  0.40693  0.38650  1.0000
  H   H13       1.0  0.26699  0.21502  0.01325  1.0000
  S   S8        1.0  0.08530  0.48647  0.28632  1.0000
  H   H14       1.0  0.31238  0.09277  0.34219  1.0000
  C   C6        1.0  0.03104  0.22064  0.06490  1.0000
  C   C7        1.0  0.01179  0.27346  0.06156  1.0000
  H   H15       1.0  0.03407  0.37229  0.00162  1.0000
  C   C8        1.0  0.24885  0.26908  0.46995  1.0000
  H   H16       1.0  0.07543  0.01493  0.08770  1.0000
  H   H17       1.0  0.19520  0.46807  0.46997  1.0000
  H   H18       1.0  0.22072  0.20491  0.38165  1.0000
  H   H19       1.0  0.03467  0.28041  0.05391  1.0000
  C   C9        1.0  0.21926  0.01227  0.44247  1.0000
  H   H20       1.0  0.12223  0.21457  0.43368  1.0000
  C   C10       1.0  0.04658  0.02479  0.04412  1.0000
  H   H21       1.0  0.00518  0.00938  0.43644  1.0000
  H   H22       1.0  0.02121  0.45544  0.45407  1.0000
  C   C11       1.0  0.09128  0.45711  0.31582  1.0000
  C   C12       1.0  0.07756  0.42946  0.31181  1.0000
  C   C13       1.0  0.08426  0.40610  0.33454  1.0000
  C   C14       1.0  0.10456  0.41013  0.36164  1.0000
  C   C15       1.0  0.11743  0.43815  0.36647  1.0000
  C   C16       1.0  0.11097  0.46144  0.34348  1.0000
  H   H23       1.0  0.06251  0.42578  0.29056  1.0000
  H   H24       1.0  0.07406  0.38458  0.33071  1.0000
  H   H25       1.0  0.13252  0.44168  0.38769  1.0000
  H   H26       1.0  0.29072  0.46302  0.47403  1.0000
  C   C17       1.0  0.07632  0.10007  0.08514  1.0000
  C   C18       1.0  0.08044  0.07736  0.10941  1.0000
  C   C19       1.0  0.05685  0.06800  0.13080  1.0000
  C   C20       1.0  0.02883  0.08138  0.12825  1.0000
  C   C21       1.0  0.02462  0.10403  0.10387  1.0000
  C   C22       1.0  0.04822  0.11333  0.08235  1.0000
  H   H27       1.0  0.10210  0.06698  0.11176  1.0000
  H   H28       1.0  0.06045  0.05063  0.14946  1.0000
  S   S9        1.0  0.25372  0.06218  0.43273  1.0000
  H   H29       1.0  0.04472  0.13082  0.06381  1.0000
  C   C23       1.0  0.03655  0.46802  0.40243  1.0000
  H   H30       1.0  0.02046  0.42528  0.42390  1.0000
  S   S10       1.0  0.30434  0.19674  0.47479  1.0000
  H   H31       1.0  0.01429  0.11484  0.34269  1.0000
  H   H32       1.0  0.01464  0.41549  0.36889  1.0000
  C   C24       1.0  0.13214  0.32020  0.05643  1.0000
  C   C25       1.0  0.01569  0.24569  0.08461  1.0000
  C   C26       1.0  0.25892  0.17847  0.39417  1.0000
  H   H33       1.0  0.20788  0.47011  0.25736  1.0000
  S   S11       1.0  0.99672  0.04019  0.25046  1.0000
  H   H34       1.0  0.07568  0.42277  0.42500  1.0000
  H   H35       1.0  0.31945  0.00375  0.37492  1.0000
  C   C27       1.0  0.19418  0.24354  0.06117  1.0000
  N   N1        1.0  0.00828  0.47825  0.38450  1.0000
  H   H36       1.0  0.04291  0.01917  0.42539  1.0000
  H   H37       1.0  0.18207  0.42002  0.37301  1.0000
  C   C28       1.0  0.24472  0.02822  0.45274  1.0000
  H   H38       1.0  0.14068  0.09897  0.37015  1.0000
  H   H39       1.0  0.14158  0.00366  0.43011  1.0000
  Fe  Fe2       1.0  0.29464  0.08532  0.45398  1.0000
  H   H40       1.0  0.31842  0.13730  0.17950  1.0000
  H   H41       1.0  0.03596  0.31570  0.09949  1.0000
  H   H42       1.0  0.14494  0.30524  0.07352  1.0000
  H   H43       1.0  0.19672  0.43026  0.41468  1.0000
  H   H44       1.0  0.07723  0.45401  0.45399  1.0000
  H   H45       1.0  0.06703  0.00709  0.47483  1.0000
  H   H46       1.0  0.23686  0.16482  0.45920  1.0000
  S   S12       1.0  0.00716  0.45718  0.24499  1.0000
  H   H47       1.0  0.17728  0.34490  0.01463  1.0000
  H   H48       1.0  0.23095  0.48851  0.31299  1.0000
  S   S13       1.0  0.06233  0.99793  0.29225  1.0000
  C   C29       1.0  0.32227  0.99957  0.40279  1.0000
  C   C30       1.0  0.22309  0.26023  0.48763  1.0000
  C   C31       1.0  0.02455  0.00332  0.42010  1.0000
  H   H49       1.0  0.21313  0.13946  0.37846  1.0000
  S   S14       1.0  0.00634  0.43849  0.14059  1.0000
  Fe  Fe3       1.0  0.99833  0.03248  0.19341  1.0000
  C   C32       1.0  0.22878  0.19282  0.40469  1.0000
  H   H50       1.0  0.21651  0.24209  0.04888  1.0000
  H   H51       1.0  0.19568  0.25782  0.08431  1.0000
  H   H52       1.0  0.18745  0.22083  0.06917  1.0000
  H   H53       1.0  0.14861  0.24246  0.44797  1.0000
  Fe  Fe4       1.0  0.04540  0.48934  0.24974  1.0000
  C   C33       1.0  0.15840  0.11534  0.36372  1.0000
  H   H54       1.0  0.11670  0.28566  0.02191  1.0000
  C   C34       1.0  0.10137  0.32462  0.07263  1.0000
  H   H55       1.0  0.18864  0.30059  0.04364  1.0000
  H   H56       1.0  0.22946  0.13283  0.43460  1.0000
  Fe  Fe5       1.0  0.02288  0.99763  0.25505  1.0000
  C   C35       1.0  0.01250  0.31097  0.10718  1.0000
  C   C36       1.0  0.14008  0.23011  0.42531  1.0000
  Fe  Fe6       1.0  0.11100  0.14472  0.01584  1.0000
  S   S15       1.0  0.12980  0.34576  0.47778  1.0000
  H   H57       1.0  0.02528  0.33406  0.17187  1.0000
  C   C37       1.0  0.20257  0.42604  0.38746  1.0000
  H   H58       1.0  0.08809  0.34072  0.05746  1.0000
  C   C38       1.0  0.21853  0.15278  0.44596  1.0000
  H   H59       1.0  0.16931  0.23992  0.01452  1.0000
  H   H60       1.0  0.01876  0.99554  0.48940  1.0000
  Fe  Fe7       1.0  0.00717  0.46818  0.18833  1.0000
  H   H61       1.0  0.27177  0.21264  0.35728  1.0000
  H   H62       1.0  0.30233  0.19102  0.37412  1.0000
  H   H63       1.0  0.13542  0.99382  0.47427  1.0000
  H   H64       1.0  0.08785  0.01701  0.01702  1.0000
  C   C39       1.0  0.26318  0.01655  0.47823  1.0000
  H   H65       1.0  0.01413  0.29391  0.12766  1.0000
  C   C40       1.0  0.03312  0.44518  0.43206  1.0000
  C   C41       1.0  0.18099  0.28646  0.02194  1.0000
  H   H66       1.0  0.17954  0.46496  0.31193  1.0000
  C   C42       1.0  0.02066  0.35109  0.15202  1.0000
  H   H67       1.0  0.03738  0.32427  0.03101  1.0000
  H   H68       1.0  0.23389  0.21016  0.42424  1.0000
  H   H69       1.0  0.16183  0.17714  0.44323  1.0000
  H   H70       1.0  0.03561  0.04383  0.05712  1.0000
  H   H71       1.0  0.03901  0.99801  0.08958  1.0000
  C   C43       1.0  0.01943  0.33966  0.03895  1.0000
  C   C44       1.0  0.19441  0.15307  0.38855  1.0000
  H   H72       1.0  0.17751  0.11304  0.41374  1.0000
  H   H73       1.0  0.14949  0.14162  0.40824  1.0000
  Fe  Fe8       1.0  0.19723  0.39759  0.47546  1.0000
  H   H74       1.0  0.11815  0.02672  0.45660  1.0000
  H   H75       1.0  0.20490  0.02121  0.42276  1.0000
  H   H76       1.0  0.11421  0.32192  0.00532  1.0000
  H   H77       1.0  0.04196  0.35842  0.14008  1.0000
  H   H78       1.0  0.26968  0.16775  0.41644  1.0000
  H   H79       1.0  0.04848  0.48717  0.41423  1.0000
  H   H80       1.0  0.05358  0.22769  0.05611  1.0000
  C   C45       1.0  0.16545  0.21335  0.40764  1.0000
  C   C46       1.0  0.16911  0.13069  0.39644  1.0000
  H   H81       1.0  0.01035  0.37063  0.16472  1.0000
  H   H82       1.0  0.17711  0.10331  0.35119  1.0000
  H   H83       1.0  0.25593  0.16161  0.37379  1.0000
  H   H84       1.0  0.02802  0.35352  0.06029  1.0000
  H   H85       1.0  0.30687  0.01422  0.41735  1.0000
  C   C47       1.0  0.28077  0.20178  0.38063  1.0000
  H   H86       1.0  0.14349  0.34207  0.05582  1.0000
  H   H87       1.0  0.14944  0.25678  0.04950  1.0000
  H   H88       1.0  0.13024  0.24642  0.40724  1.0000
  N   N2        1.0  0.20496  0.17197  0.41809  1.0000
  H   H89       1.0  0.18180  0.23030  0.39900  1.0000
  H   H90       1.0  0.15597  0.20192  0.38494  1.0000
  N   N3        1.0  0.15816  0.30255  0.00049  1.0000
  Fe  Fe9       1.0  0.31583  0.14664  0.47561  1.0000
  H   H91       1.0  0.18743  0.16721  0.36662  1.0000
  C   C48       1.0  0.24263  0.46191  0.47258  1.0000
  H   H92       1.0  0.14900  0.13177  0.34548  1.0000
  C   C49       1.0  0.19773  0.48118  0.37560  1.0000
  C   C50       1.0  0.12930  0.30694  0.01987  1.0000
  H   H93       1.0  0.17699  0.13176  0.46577  1.0000
  H   H94       1.0  0.16811  0.47346  0.25136  1.0000
  Fe  Fe10      1.0  0.17841  0.33237  0.48104  1.0000
  H   H95       1.0  0.28517  0.21890  0.40049  1.0000
  C   C51       1.0  0.18014  0.19090  0.43257  1.0000
  C   C52       1.0  0.00304  0.46042  0.35230  1.0000
  C   C53       1.0  0.19758  0.14240  0.47545  1.0000
  H   H96       1.0  0.05270  0.45868  0.38352  1.0000
  H   H97       1.0  0.18875  0.20397  0.45468  1.0000
  C   C54       1.0  0.12479  0.00348  0.45110  1.0000
  H   H98       1.0  0.05260  0.09134  0.01158  1.0000
  H   H99       1.0  0.29313  0.25678  0.45297  1.0000
  S   S16       1.0  0.24098  0.42296  0.47534  1.0000
  C   C55       1.0  0.18812  0.48420  0.26282  1.0000
  C   C56       1.0  0.05778  0.00396  0.07222  1.0000
  C   C57       1.0  0.27283  0.22079  0.48103  1.0000
  C   C58       1.0  0.99939  0.33896  0.12479  1.0000
  H   H100      1.0  0.32115  0.08938  0.27937  1.0000
  C   C59       1.0  0.99941  0.10316  0.32433  1.0000
  H   H101      1.0  0.01756  0.21404  0.04223  1.0000
  H   H102      1.0  0.02327  0.46080  0.33572  1.0000
  C   C60       1.0  0.26050  0.23058  0.99353  1.0000
  S   S17       1.0  0.31407  0.12352  0.42433  1.0000
  H   H103      1.0  0.17442  0.47554  0.36828  1.0000
  C   C61       1.0  0.27055  0.47613  0.47278  1.0000
  H   H104      1.0  0.24972  0.29089  0.45841  1.0000
  H   H105      1.0  0.02981  0.25092  0.10718  1.0000
  C   C62       1.0  0.07260  0.03613  0.02118  1.0000
  C   C63       1.0  0.27348  0.24958  0.46684  1.0000
  H   H106      1.0  0.01351  0.09040  0.30611  1.0000
  H   H107      1.0  0.03364  0.20095  0.08176  1.0000
  H   H108      1.0  0.00733  0.03072  0.37879  1.0000
  H   H109      1.0  0.00855  0.41315  0.30612  1.0000
  H   H110      1.0  0.28276  0.02870  0.48643  1.0000
  C   C64       1.0  0.18353  0.48752  0.30145  1.0000
  H   H111      1.0  0.00302  0.11455  0.10173  1.0000
  H   H112      1.0  0.06036  0.41955  0.46735  1.0000
  H   H113      1.0  0.02958  0.01269  0.02888  1.0000
  H   H114      1.0  0.19664  0.48564  0.40355  1.0000
  H   H115      1.0  0.00098  0.26622  0.03731  1.0000
  H   H116      1.0  0.29995  0.25808  0.00002  1.0000
  H   H117      1.0  0.03420  0.00347  0.36530  1.0000
  C   C65       1.0  0.01507  0.00757  0.38278  1.0000
  H   H118      1.0  0.99616  0.37709  0.01582  1.0000
  C   C66       1.0  0.04195  0.07445  0.99459  1.0000
  H   H119      1.0  0.00176  0.18672  0.22083  1.0000
  H   H120      1.0  0.01814  0.13084  0.99259  1.0000
  H   H121      1.0  0.13051  0.04011  0.99274  1.0000
  H   H122      1.0  0.19098  0.16171  0.49149  1.0000
  C   C67       1.0  0.03543  0.24943  0.97182  1.0000
  S   S18       1.0  0.12949  0.19461  0.93603  1.0000
  S   S19       1.0  0.29320  0.30794  0.95142  1.0000
  H   H123      1.0  0.04645  0.16265  0.78266  1.0000
  H   H124      1.0  0.04176  0.16126  0.73673  1.0000
  Fe  Fe11      1.0  0.11203  0.14738  0.93733  1.0000
  S   S20       1.0  0.10708  0.11297  0.89437  1.0000
  H   H125      1.0  0.09084  0.01176  0.79866  1.0000
  C   C68       1.0  0.27933  0.25501  0.98603  1.0000
  C   C69       1.0  0.17216  0.46436  0.54579  1.0000
  H   H126      1.0  0.14884  0.07423  0.94631  1.0000
  H   H127      1.0  0.02557  0.02418  0.97069  1.0000
  H   H128      1.0  0.14022  0.26314  0.97627  1.0000
  H   H129      1.0  0.09963  0.08213  0.98727  1.0000
  C   C70       1.0  0.02174  0.27735  0.97207  1.0000
  C   C71       1.0  0.17047  0.45719  0.66257  1.0000
  C   C72       1.0  0.21320  0.12036  0.49909  1.0000
  S   S21       1.0  0.10849  0.38866  0.56023  1.0000
  H   H130      1.0  0.19395  0.45202  0.71120  1.0000
  C   C73       1.0  0.04377  0.14760  0.76031  1.0000
  C   C74       1.0  0.13146  0.29919  0.94162  1.0000
  H   H131      1.0  0.03639  0.01068  0.87802  1.0000
  Fe  Fe12      1.0  0.14000  0.38319  0.51418  1.0000
  H   H132      1.0  0.24787  0.47763  0.60351  1.0000
  H   H133      1.0  0.17157  0.40923  0.57505  1.0000
  H   H134      1.0  0.14773  0.27165  0.89949  1.0000
  H   H135      1.0  0.00350  0.99618  0.55027  1.0000
  H   H136      1.0  0.15262  0.48735  0.50232  1.0000
  C   C75       1.0  0.03283  0.00818  0.90609  1.0000
  H   H137      1.0  0.15881  0.43561  0.66553  1.0000
  C   C76       1.0  0.07582  0.46687  0.62673  1.0000
  C   C77       1.0  0.08846  0.47228  0.59426  1.0000
  C   C78       1.0  0.09730  0.44862  0.57284  1.0000
  C   C79       1.0  0.09458  0.41930  0.58416  1.0000
  C   C80       1.0  0.08120  0.41391  0.61621  1.0000
  C   C81       1.0  0.07169  0.43751  0.63730  1.0000
  C   C82       1.0  0.24431  0.27092  0.94289  1.0000
  H   H138      1.0  0.10623  0.45300  0.54765  1.0000
  H   H139      1.0  0.07867  0.39131  0.62510  1.0000
  H   H140      1.0  0.06200  0.43298  0.66218  1.0000
  S   S22       1.0  0.18763  0.36779  0.52045  1.0000
  C   C83       1.0  0.18638  0.38977  0.62213  1.0000
  C   C84       1.0  0.02870  0.09078  0.96321  1.0000
  H   H141      1.0  0.27061  0.44231  0.54122  1.0000
  H   H142      1.0  0.15992  0.03628  0.93979  1.0000
  C   C85       1.0  0.19875  0.45422  0.63963  1.0000
  H   H143      1.0  0.30700  0.48829  0.71031  1.0000
  C   C86       1.0  0.02852  0.08608  0.82451  1.0000
  C   C87       1.0  0.05195  0.06645  0.83103  1.0000
  C   C88       1.0  0.07553  0.07487  0.85294  1.0000
  C   C89       1.0  0.07542  0.10254  0.86966  1.0000
  C   C90       1.0  0.05110  0.12149  0.86475  1.0000
  C   C91       1.0  0.02792  0.11337  0.84207  1.0000
  H   H144      1.0  0.05223  0.04508  0.81852  1.0000
  H   H145      1.0  0.09411  0.05994  0.85677  1.0000
  H   H146      1.0  0.05071  0.14287  0.87735  1.0000
  C   C92       1.0  0.04981  0.02603  0.96491  1.0000
  H   H147      1.0  0.19753  0.11292  0.51944  1.0000
  N   N4        1.0  0.09129  0.08154  0.72411  1.0000
  C   C93       1.0  0.08945  0.06116  0.75474  1.0000
  C   C94       1.0  0.06750  0.10508  0.72755  1.0000
  C   C95       1.0  0.08401  0.06319  0.69273  1.0000
  C   C96       1.0  0.12186  0.09532  0.71949  1.0000
  C   C97       1.0  0.14028  0.10157  0.75254  1.0000
  C   C98       1.0  0.10852  0.03248  0.75240  1.0000
  C   C99       1.0  0.08086  0.08026  0.65839  1.0000
  C   C100      1.0  0.07073  0.12695  0.75793  1.0000
  H   H148      1.0  0.08687  0.07296  0.94619  1.0000
  C   C101      1.0  0.16762  0.12074  0.74471  1.0000
  H   H149      1.0  0.14239  0.37055  0.63198  1.0000
  C   C102      1.0  0.07912  0.05884  0.62803  1.0000
  H   H150      1.0  0.06588  0.05394  0.75878  1.0000
  H   H151      1.0  0.09554  0.07293  0.77866  1.0000
  H   H152      1.0  0.06696  0.11948  0.70447  1.0000
  H   H153      1.0  0.04500  0.09442  0.72930  1.0000
  H   H154      1.0  0.06291  0.05063  0.69679  1.0000
  H   H155      1.0  0.10152  0.04608  0.68842  1.0000
  H   H156      1.0  0.13633  0.08090  0.70327  1.0000
  H   H157      1.0  0.11993  0.11646  0.70487  1.0000
  H   H158      1.0  0.14843  0.08050  0.76380  1.0000
  H   H159      1.0  0.12716  0.11295  0.77262  1.0000
  H   H160      1.0  0.11264  0.28998  0.89146  1.0000
  H   H161      1.0  0.13083  0.03695  0.74115  1.0000
  H   H162      1.0  0.10007  0.09541  0.65418  1.0000
  H   H163      1.0  0.05990  0.09338  0.65814  1.0000
  H   H164      1.0  0.07267  0.11526  0.78277  1.0000
  H   H165      1.0  0.09061  0.14129  0.75409  1.0000
  H   H166      1.0  0.17256  0.27727  0.95636  1.0000
  H   H167      1.0  0.17310  0.34493  0.63590  1.0000
  C   C103      1.0  0.00718  0.11524  0.97451  1.0000
  H   H168      1.0  0.16069  0.14281  0.73487  1.0000
  H   H169      1.0  0.18074  0.12418  0.76856  1.0000
  H   H170      1.0  0.18217  0.10973  0.72547  1.0000
  C   C104      1.0  0.14053  0.05157  0.94053  1.0000
  H   H171      1.0  0.21982  0.42597  0.56159  1.0000
  H   H172      1.0  0.18891  0.49064  0.58840  1.0000
  H   H173      1.0  0.05946  0.04391  0.63074  1.0000
  H   H174      1.0  0.07674  0.07153  0.60379  1.0000
  H   H175      1.0  0.09965  0.04510  0.62635  1.0000
  H   H176      1.0  0.30739  0.45155  0.69131  1.0000
  C   C105      1.0  0.09162  0.06302  0.97155  1.0000
  H   H177      1.0  0.07883  0.45630  0.85143  1.0000
  H   H178      1.0  0.23608  0.42222  0.60252  1.0000
  Fe  Fe13      1.0  0.16078  0.18213  0.97882  1.0000
  C   C106      1.0  0.17435  0.41686  0.60191  1.0000
  C   C107      1.0  0.22563  0.24634  0.95020  1.0000
  H   H179      1.0  0.28738  0.47525  0.55883  1.0000
  S   S23       1.0  0.00035  0.03933  0.70070  1.0000
  H   H180      1.0  0.28600  0.44170  0.58406  1.0000
  H   H181      1.0  0.00980  0.12867  0.83742  1.0000
  C   C108      1.0  0.12619  0.27846  0.91121  1.0000
  H   H182      1.0  0.06011  0.45008  0.81118  1.0000
  H   H183      1.0  0.01543  0.07523  0.94729  1.0000
  H   H184      1.0  0.16079  0.35644  0.59407  1.0000
  H   H185      1.0  0.15130  0.42167  0.61088  1.0000
  H   H186      1.0  0.15692  0.44541  0.54126  1.0000
  C   C109      1.0  0.27370  0.45538  0.56510  1.0000
  C   C110      1.0  0.24736  0.21224  0.49947  1.0000
  C   C111      1.0  0.22275  0.23174  0.50260  1.0000
  H   H187      1.0  0.02369  0.45582  0.85775  1.0000
  C   C112      1.0  0.27129  0.27557  0.96077  1.0000
  H   H188      1.0  0.12982  0.05163  0.91486  1.0000
  H   H189      1.0  0.99604  0.39114  0.84978  1.0000
  H   H190      1.0  0.23339  0.48040  0.56065  1.0000
  H   H191      1.0  0.04645  0.10105  0.94729  1.0000
  C   C113      1.0  0.16426  0.36392  0.62092  1.0000
  C   C114      1.0  0.15155  0.28426  0.96900  1.0000
  H   H192      1.0  0.01029  0.46494  0.91308  1.0000
  H   H193      1.0  0.07672  0.02425  0.91756  1.0000
  H   H194      1.0  0.02901  0.20273  0.96284  1.0000
  H   H195      1.0  0.15804  0.46984  0.71428  1.0000
  Fe  Fe14      1.0  0.09608  0.20215  0.97849  1.0000
  H   H196      1.0  0.03482  0.29685  0.97794  1.0000
  H   H197      1.0  0.09709  0.01599  0.73578  1.0000
  H   H198      1.0  0.14189  0.31972  0.93150  1.0000
  S   S24       1.0  0.00059  0.07835  0.79332  1.0000
  C   C115      1.0  0.23332  0.22621  0.97601  1.0000
  H   H199      1.0  0.11373  0.25840  0.91957  1.0000
  C   C116      1.0  0.19876  0.33236  0.96762  1.0000
  H   H200      1.0  0.20322  0.22469  0.51677  1.0000
  H   H201      1.0  0.23804  0.28629  0.92288  1.0000
  H   H202      1.0  0.20768  0.38187  0.61084  1.0000
  C   C117      1.0  0.05348  0.02940  0.92539  1.0000
  H   H203      1.0  0.23270  0.13107  0.51159  1.0000
  H   H204      1.0  0.15443  0.47336  0.65171  1.0000
  H   H205      1.0  0.11092  0.01861  0.96125  1.0000
  H   H206      1.0  0.20559  0.24260  0.93542  1.0000
  S   S25       1.0  0.14628  0.13420  0.97672  1.0000
  H   H207      1.0  0.12640  0.99767  0.78473  1.0000
  C   C118      1.0  0.17864  0.46796  0.69851  1.0000
  H   H208      1.0  0.00536  0.34766  0.98616  1.0000
  S   S26       1.0  0.21019  0.19515  0.98718  1.0000
  H   H209      1.0  0.15461  0.47233  0.59593  1.0000
  C   C119      1.0  0.22303  0.43787  0.58640  1.0000
  H   H210      1.0  0.04867  0.05211  0.91630  1.0000
  C   C120      1.0  0.17718  0.46906  0.58470  1.0000
  H   H211      1.0  0.02042  0.48501  0.82665  1.0000
  C   C121      1.0  0.17071  0.33258  0.99111  1.0000
  C   C122      1.0  0.03453  0.47612  0.84755  1.0000
  C   C123      1.0  0.06428  0.46664  0.83176  1.0000
  H   H212      1.0  0.99965  0.12798  0.95173  1.0000
  S   S27       1.0  0.07624  0.15612  0.97656  1.0000
  H   H213      1.0  0.19019  0.39521  0.64948  1.0000
  C   C124      1.0  0.24354  0.46507  0.57959  1.0000
  H   H214      1.0  0.00929  0.45893  0.62492  1.0000
  N   N5        1.0  0.19335  0.44448  0.60312  1.0000
  H   H215      1.0  0.02288  0.13467  0.76394  1.0000
  H   H216      1.0  0.32727  0.08416  0.71495  1.0000
  H   H217      1.0  0.18941  0.49016  0.69733  1.0000
  C   C125      1.0  0.11839  0.04136  0.96791  1.0000
  H   H218      1.0  0.12448  0.03347  0.80526  1.0000
  C   C126      1.0  0.01861  0.22433  0.96329  1.0000
  H   H219      1.0  0.19449  0.32052  0.94320  1.0000
  H   H220      1.0  0.24670  0.19069  0.51161  1.0000
  S   S28       1.0  0.29447  0.10876  0.50484  1.0000
  H   H221      1.0  0.10927  0.30481  0.95245  1.0000
  S   S29       1.0  0.07329  0.24676  0.98336  1.0000
  H   H222      1.0  0.21456  0.43894  0.65270  1.0000
  C   C127      1.0  0.11277  0.01808  0.78752  1.0000
  N   N6        1.0  0.06381  0.04977  0.98721  1.0000
  H   H223      1.0  0.21000  0.47623  0.64003  1.0000
  H   H224      1.0  0.05907  0.00375  0.97119  1.0000
  H   H225      1.0  0.00915  0.01341  0.91181  1.0000
  H   H226      1.0  0.19327  0.45960  0.53219  1.0000
  H   H227      1.0  0.19080  0.37553  0.94405  1.0000
  H   H228      1.0  0.22898  0.36291  0.94229  1.0000
  S   S30       1.0  0.02515  0.99748  0.76306  1.0000
  Fe  Fe15      1.0  0.02571  0.99636  0.70527  1.0000
  Fe  Fe16      1.0  0.99628  0.03768  0.75851  1.0000
  H   H229      1.0  0.29990  0.00787  0.69745  1.0000
  C   C128      1.0  0.20859  0.36387  0.95855  1.0000
  H   H230      1.0  0.21791  0.32162  0.98065  1.0000
  H   H231      1.0  0.07596  0.48601  0.82027  1.0000
  H   H232      1.0  0.05583  0.49048  0.89448  1.0000
  H   H233      1.0  0.01775  0.47766  0.56659  1.0000
  C   C129      1.0  0.99627  0.48334  0.57921  1.0000
  H   H234      1.0  0.15333  0.34659  0.97877  1.0000
  H   H235      1.0  0.21405  0.37661  0.98212  1.0000
  H   H236      1.0  0.32151  0.48296  0.66764  1.0000
  C   C130      1.0  0.15827  0.49195  0.52951  1.0000
  C   C131      1.0  0.31972  0.47287  0.69356  1.0000
  S   S31       1.0  0.12143  0.85452  0.47521  1.0000
  H   H237      1.0  0.06014  0.87281  0.44459  1.0000
  S   S32       1.0  0.01818  0.58057  0.17552  1.0000
  H   H238      1.0  0.25413  0.87690  0.44512  1.0000
  H   H239      1.0  0.31494  0.90492  0.38319  1.0000
  H   H240      1.0  0.23877  0.51681  0.39886  1.0000
  H   H241      1.0  0.19844  0.52311  0.46970  1.0000
  S   S33       1.0  0.10836  0.60885  0.05255  1.0000
  S   S34       1.0  0.12701  0.69398  0.02385  1.0000
  H   H242      1.0  0.00164  0.96089  0.48162  1.0000
  H   H243      1.0  0.19305  0.90632  0.36205  1.0000
  Fe  Fe17      1.0  0.13552  0.89080  0.43900  1.0000
  C   C132      1.0  0.09770  0.98509  0.44020  1.0000
  S   S35       1.0  0.10560  0.89385  0.39139  1.0000
  H   H244      1.0  0.06688  0.98327  0.06085  1.0000
  Fe  Fe18      1.0  0.01612  0.53460  0.20054  1.0000
  C   C133      1.0  0.25128  0.54721  0.35817  1.0000
  H   H245      1.0  0.23209  0.69469  0.47068  1.0000
  S   S36       1.0  0.18397  0.87697  0.44205  1.0000
  C   C134      1.0  0.21861  0.51001  0.47026  1.0000
  C   C135      1.0  0.21322  0.62207  0.02856  1.0000
  H   H246      1.0  0.15882  0.57835  0.42759  1.0000
  S   S37       1.0  0.29616  0.62372  0.42588  1.0000
  C   C136      1.0  0.26533  0.72901  0.47457  1.0000
  H   H247      1.0  0.10412  0.90964  0.25482  1.0000
  H   H248      1.0  0.23716  0.56580  0.36732  1.0000
  H   H249      1.0  0.29113  0.86612  0.43107  1.0000
  H   H250      1.0  0.25254  0.54819  0.32981  1.0000
  Fe  Fe19      1.0  0.29108  0.58908  0.46733  1.0000
  H   H251      1.0  0.07256  0.92760  0.44276  1.0000
  H   H252      1.0  0.28654  0.84637  0.32514  1.0000
  H   H253      1.0  0.02736  0.67664  0.06733  1.0000
  C   C137      1.0  0.04318  0.87774  0.46458  1.0000
  H   H254      1.0  0.03607  0.63187  0.27024  1.0000
  H   H255      1.0  0.19153  0.55232  0.34526  1.0000
  H   H256      1.0  0.03603  0.50718  0.32535  1.0000
  C   C138      1.0  0.22688  0.93994  0.37328  1.0000
  H   H257      1.0  0.08504  0.95264  0.19741  1.0000
  C   C139      1.0  0.18597  0.53293  0.36180  1.0000
  C   C140      1.0  0.02604  0.72385  0.07065  1.0000
  H   H258      1.0  0.11347  0.98851  0.23164  1.0000
  C   C141      1.0  0.07317  0.96948  0.32117  1.0000
  C   C142      1.0  0.05607  0.94382  0.32582  1.0000
  C   C143      1.0  0.06615  0.92117  0.34785  1.0000
  C   C144      1.0  0.09304  0.92416  0.36616  1.0000
  C   C145      1.0  0.10965  0.95026  0.36238  1.0000
  C   C146      1.0  0.09978  0.97274  0.33995  1.0000
  H   H259      1.0  0.03514  0.94143  0.31235  1.0000
  H   H260      1.0  0.05305  0.90114  0.35081  1.0000
  H   H261      1.0  0.13041  0.95288  0.37615  1.0000
  H   H262      1.0  0.29131  0.57420  0.36335  1.0000
  C   C147      1.0  0.08181  0.60130  0.08532  1.0000
  C   C148      1.0  0.08144  0.57299  0.10039  1.0000
  C   C149      1.0  0.06191  0.56632  0.12768  1.0000
  C   C150      1.0  0.04270  0.58803  0.14061  1.0000
  C   C151      1.0  0.04306  0.61645  0.12557  1.0000
  C   C152      1.0  0.06242  0.62301  0.09797  1.0000
  H   H263      1.0  0.09646  0.55606  0.09100  1.0000
  H   H264      1.0  0.06191  0.54437  0.13886  1.0000
  H   H265      1.0  0.02859  0.63354  0.13560  1.0000
  H   H266      1.0  0.06327  0.64507  0.08729  1.0000
  N   N7        1.0  0.20008  0.64633  0.08784  1.0000
  C   C153      1.0  0.20505  0.67513  0.06886  1.0000
  C   C154      1.0  0.19535  0.62114  0.06270  1.0000
  C   C155      1.0  0.17178  0.64969  0.10867  1.0000
  C   C156      1.0  0.22525  0.63949  0.11229  1.0000
  C   C157      1.0  0.25712  0.63857  0.09699  1.0000
  C   C158      1.0  0.20885  0.70332  0.09131  1.0000
  C   C159      1.0  0.16003  0.62120  0.12676  1.0000
  H   H267      1.0  0.06263  0.55439  0.32785  1.0000
  C   C160      1.0  0.28319  0.95860  0.40389  1.0000
  C   C161      1.0  0.28058  0.63617  0.12530  1.0000
  C   C162      1.0  0.21640  0.73038  0.06931  1.0000
  C   C163      1.0  0.13239  0.62803  0.14839  1.0000
  H   H268      1.0  0.18604  0.67918  0.05110  1.0000
  H   H269      1.0  0.22491  0.67398  0.05193  1.0000
  H   H270      1.0  0.19951  0.59939  0.07536  1.0000
  H   H271      1.0  0.17156  0.62037  0.05435  1.0000
  H   H272      1.0  0.15332  0.65801  0.09203  1.0000
  H   H273      1.0  0.17479  0.66651  0.12924  1.0000
  H   H274      1.0  0.22521  0.65548  0.13405  1.0000
  H   H275      1.0  0.22182  0.61742  0.12435  1.0000
  H   H276      1.0  0.26246  0.65873  0.08194  1.0000
  H   H277      1.0  0.25963  0.61864  0.08058  1.0000
  H   H278      1.0  0.18787  0.70853  0.10519  1.0000
  H   H279      1.0  0.22715  0.70054  0.11014  1.0000
  H   H280      1.0  0.17695  0.61165  0.14424  1.0000
  H   H281      1.0  0.15372  0.60396  0.10778  1.0000
  H   H282      1.0  0.22669  0.96410  0.37901  1.0000
  S   S38       1.0  0.04834  0.49721  0.19266  1.0000
  H   H283      1.0  0.01346  0.91240  0.47976  1.0000
  Fe  Fe20      1.0  0.11145  0.64721  0.01453  1.0000
  H   H284      1.0  0.28258  0.55231  0.40066  1.0000
  H   H285      1.0  0.30319  0.63475  0.11365  1.0000
  C   C164      1.0  0.19439  0.93021  0.36893  1.0000
  H   H286      1.0  0.27680  0.61594  0.14102  1.0000
  H   H287      1.0  0.19850  0.73449  0.05018  1.0000
  H   H288      1.0  0.21851  0.75035  0.08581  1.0000
  H   H289      1.0  0.23792  0.72707  0.05567  1.0000
  H   H290      1.0  0.12270  0.60705  0.15846  1.0000
  H   H291      1.0  0.13833  0.64252  0.17039  1.0000
  H   H292      1.0  0.11515  0.63929  0.13269  1.0000
  N   N8        1.0  0.06773  0.89369  0.22335  1.0000
  C   C165      1.0  0.04690  0.89821  0.25334  1.0000
  C   C166      1.0  0.09493  0.91302  0.22858  1.0000
  C   C167      1.0  0.05133  0.90182  0.19097  1.0000
  C   C168      1.0  0.07772  0.86185  0.22078  1.0000
  C   C169      1.0  0.09142  0.84847  0.25390  1.0000
  H   H293      1.0  0.10565  0.96258  0.43366  1.0000
  C   C170      1.0  0.06977  0.90055  0.15733  1.0000
  H   H294      1.0  0.01380  0.60845  0.29773  1.0000
  H   H295      1.0  0.29203  0.76867  0.47901  1.0000
  C   C171      1.0  0.10090  0.81630  0.24822  1.0000
  C   C172      1.0  0.31618  0.96700  0.41125  1.0000
  C   C173      1.0  0.05164  0.91267  0.12723  1.0000
  H   H296      1.0  0.03805  0.92124  0.25337  1.0000
  H   H297      1.0  0.05920  0.89604  0.27798  1.0000
  C   C174      1.0  0.23127  0.97281  0.48263  1.0000
  H   H298      1.0  0.01410  0.52459  0.39758  1.0000
  H   H299      1.0  0.04128  0.92430  0.19337  1.0000
  H   H300      1.0  0.03207  0.88661  0.18691  1.0000
  H   H301      1.0  0.05900  0.84733  0.21227  1.0000
  H   H302      1.0  0.09501  0.85953  0.20043  1.0000
  H   H303      1.0  0.07518  0.84861  0.27540  1.0000
  H   H304      1.0  0.11150  0.86112  0.26193  1.0000
  S   S39       1.0  0.01618  0.52933  0.25805  1.0000
  H   H305      1.0  0.12283  0.96052  0.26261  1.0000
  H   H306      1.0  0.07577  0.87727  0.15116  1.0000
  H   H307      1.0  0.09063  0.91370  0.15909  1.0000
  C   C175      1.0  0.28669  0.87405  0.48477  1.0000
  C   C176      1.0  0.21147  0.73814  0.47436  1.0000
  H   H308      1.0  0.20430  0.63990  0.01191  1.0000
  H   H309      1.0  0.03190  0.69546  0.02708  1.0000
  H   H310      1.0  0.21517  0.52354  0.30461  1.0000
  H   H311      1.0  0.11072  0.80733  0.27222  1.0000
  H   H312      1.0  0.08133  0.80239  0.24121  1.0000
  H   H313      1.0  0.11798  0.81486  0.22761  1.0000
  H   H314      1.0  0.24884  0.80341  0.48120  1.0000
  C   C177      1.0  0.28275  0.55234  0.37217  1.0000
  H   H315      1.0  0.06498  0.91124  0.10327  1.0000
  C   C178      1.0  0.27690  0.88218  0.36064  1.0000
  H   H316      1.0  0.27761  0.96815  0.37838  1.0000
  S   S40       1.0  0.13872  0.92502  0.48085  1.0000
  H   H317      1.0  0.16300  0.50082  0.30528  1.0000
  C   C179      1.0  0.05639  0.93254  0.46359  1.0000
  H   H318      1.0  0.27020  0.86626  0.38079  1.0000
  H   H319      1.0  0.07120  0.95453  0.24045  1.0000
  C   C180      1.0  0.09001  0.94687  0.22444  1.0000
  N   N9        1.0  0.27576  0.92585  0.40488  1.0000
  C   C181      1.0  0.24222  0.92284  0.40291  1.0000
  S   S41       1.0  0.18345  0.79291  0.47928  1.0000
  C   C182      1.0  0.04382  0.55041  0.34589  1.0000
  H   H320      1.0  0.04564  0.93628  0.13170  1.0000
  H   H321      1.0  0.17145  0.58987  0.38584  1.0000
  N   N10       1.0  0.20837  0.50837  0.35665  1.0000
  C   C183      1.0  0.21015  0.59291  0.00886  1.0000
  H   H322      1.0  0.16342  0.52566  0.35331  1.0000
  H   H323      1.0  0.27992  0.65603  0.14217  1.0000
  C   C184      1.0  0.03971  0.51704  0.35098  1.0000
  H   H324      1.0  0.04902  0.56143  0.37065  1.0000
  C   C185      1.0  0.21567  0.76909  0.47731  1.0000
  H   H325      1.0  0.23184  0.93075  0.42714  1.0000
  H   H326      1.0  0.23530  0.89931  0.40107  1.0000
  C   C186      1.0  0.26956  0.75996  0.47760  1.0000
  H   H327      1.0  0.06080  0.50804  0.36154  1.0000
  H   H328      1.0  0.28129  0.85045  0.49021  1.0000
  H   H329      1.0  0.01581  0.72351  0.09659  1.0000
  H   H330      1.0  0.99697  0.63022  0.22566  1.0000
  C   C187      1.0  0.16155  0.57114  0.40053  1.0000
  H   H331      1.0  0.25650  0.88804  0.34601  1.0000
  C   C188      1.0  0.24648  0.52427  0.47037  1.0000
  H   H332      1.0  0.30467  0.88095  0.31462  1.0000
  H   H333      1.0  0.11306  0.99263  0.33677  1.0000
  H   H334      1.0  0.13919  0.56571  0.38991  1.0000
  Fe  Fe21      1.0  0.17025  0.84274  0.48123  1.0000
  C   C189      1.0  0.29798  0.86612  0.33606  1.0000
  H   H335      1.0  0.04976  0.96350  0.40653  1.0000
  C   C190      1.0  0.11771  0.96441  0.23510  1.0000
  H   H336      1.0  0.00778  0.63154  0.04929  1.0000
  H   H337      1.0  0.11329  0.90651  0.21087  1.0000
  H   H338      1.0  0.03078  0.89959  0.12374  1.0000
  N   N11       1.0  0.04685  0.96461  0.46203  1.0000
  C   C191      1.0  0.21104  0.50244  0.31865  1.0000
  H   H339      1.0  0.20359  0.55067  0.41076  1.0000
  H   H340      1.0  0.18171  0.93397  0.39306  1.0000
  H   H341      1.0  0.31107  0.91527  0.44092  1.0000
  C   C192      1.0  0.03399  0.97073  0.42699  1.0000
  H   H342      1.0  0.23723  0.62656  0.03236  1.0000
  C   C193      1.0  0.29169  0.91061  0.37554  1.0000
  C   C194      1.0  0.18202  0.54410  0.39914  1.0000
  C   C195      1.0  0.23872  0.51688  0.37034  1.0000
  Fe  Fe22      1.0  0.18568  0.90842  0.48708  1.0000
  C   C196      1.0  0.28633  0.91401  0.43902  1.0000
  H   H343      1.0  0.17167  0.52659  0.41524  1.0000
  H   H344      1.0  0.05291  0.50382  0.47388  1.0000
  H   H345      1.0  0.18898  0.72940  0.47315  1.0000
  Fe  Fe23      1.0  0.30803  0.65471  0.46919  1.0000
  H   H346      1.0  0.19113  0.50626  0.25059  1.0000
  H   H347      1.0  0.27765  0.92828  0.46010  1.0000
  H   H348      1.0  0.02536  0.85386  0.25406  1.0000
  S   S42       1.0  0.06804  0.74764  0.99387  1.0000
  H   H349      1.0  0.18374  0.94329  0.34817  1.0000
  H   H350      1.0  0.29822  0.53486  0.36290  1.0000
  H   H351      1.0  0.23881  0.93652  0.34866  1.0000
  C   C197      1.0  0.27251  0.50726  0.47147  1.0000
  H   H352      1.0  0.25556  0.49988  0.36304  1.0000
  H   H353      1.0  0.26922  0.97091  0.42272  1.0000
  H   H354      1.0  0.19297  0.97232  0.44932  1.0000
  H   H355      1.0  0.29431  0.92597  0.35334  1.0000
  C   C198      1.0  0.27832  0.88143  0.44775  1.0000
  S   S43       1.0  0.24758  0.56325  0.46783  1.0000
  H   H356      1.0  0.02775  0.59455  0.25711  1.0000
  H   H357      1.0  0.29409  0.51805  0.47145  1.0000
  H   H358      1.0  0.22022  0.57438  0.02360  1.0000
  H   H359      1.0  0.02333  0.56036  0.33477  1.0000
  C   C199      1.0  0.03107  0.90916  0.46015  1.0000
  C   C200      1.0  0.07381  0.98387  0.46905  1.0000
  H   H360      1.0  0.05061  0.72633  0.07339  1.0000
  C   C201      1.0  0.23597  0.71830  0.47289  1.0000
  C   C202      1.0  0.01245  0.51032  0.37428  1.0000
  C   C203      1.0  0.21244  0.98465  0.45750  1.0000
  H   H361      1.0  0.01354  0.95721  0.42278  1.0000
  C   C204      1.0  0.01906  0.69513  0.05143  1.0000
  H   H362      1.0  0.13725  0.95806  0.21919  1.0000
  H   H363      1.0  0.01753  0.74334  0.05631  1.0000
  H   H364      1.0  0.06882  0.92795  0.48775  1.0000
  H   H365      1.0  0.18624  0.58784  0.00386  1.0000
  S   S44       1.0  0.02767  0.99211  0.19754  1.0000
  H   H366      1.0  0.00183  0.58026  0.06852  1.0000
  S   S45       1.0  0.29744  0.70501  0.47425  1.0000
  H   H367      1.0  0.02464  0.79223  0.00941  1.0000
  H   H368      1.0  0.02471  0.86142  0.46208  1.0000
  H   H369      1.0  0.02071  0.91023  0.43437  1.0000
  H   H370      1.0  0.31094  0.87757  0.48913  1.0000
  H   H371      1.0  0.01518  0.87711  0.31054  1.0000
  H   H372      1.0  0.01375  0.65661  0.99840  1.0000
  H   H373      1.0  0.32122  0.96397  0.43892  1.0000
  C   C205      1.0  0.01869  0.61427  0.27062  1.0000
  H   H374      1.0  0.31826  0.85846  0.34982  1.0000
  C   C206      1.0  0.24504  0.77981  0.47886  1.0000
  C   C207      1.0  0.02335  0.97129  0.48867  1.0000
  H   H375      1.0  0.00388  0.88220  0.23299  1.0000
  C   C208      1.0  0.01909  0.87762  0.25478  1.0000
  C   C209      1.0  0.00137  0.88264  0.28778  1.0000
  H   H376      1.0  0.99649  0.99228  0.37604  1.0000
  C   C210      1.0  0.01392  0.77570  0.99349  1.0000
  H   H377      1.0  0.05342  0.87503  0.49032  1.0000
  C   C211      1.0  0.07504  0.92626  0.73886  1.0000
  S   S46       1.0  0.12677  0.70270  0.93918  1.0000
  H   H378      1.0  0.02545  0.81397  0.75072  1.0000
  H   H379      1.0  0.27506  0.96380  0.72296  1.0000
  C   C212      1.0  0.31082  0.98594  0.69462  1.0000
  Fe  Fe24      1.0  0.11168  0.65483  0.93604  1.0000
  S   S47       1.0  0.11236  0.62536  0.88823  1.0000
  N   N12       1.0  0.01182  0.51040  0.89458  1.0000
  S   S48       1.0  0.14648  0.64062  0.97403  1.0000
  C   C213      1.0  0.28306  0.75389  0.97914  1.0000
  C   C214      1.0  0.03945  0.49982  0.87589  1.0000
  H   H380      1.0  0.18293  0.72601  0.77410  1.0000
  H   H381      1.0  0.06163  0.94514  0.74856  1.0000
  H   H382      1.0  0.17429  0.51080  0.53038  1.0000
  S   S49       1.0  0.17429  0.87366  0.52665  1.0000
  H   H383      1.0  0.31616  0.66111  0.61743  1.0000
  Fe  Fe25      1.0  0.12685  0.88833  0.51733  1.0000
  S   S50       1.0  0.08735  0.89408  0.55426  1.0000
  H   H384      1.0  0.29529  0.94001  0.69356  1.0000
  H   H385      1.0  0.03165  0.61962  0.61830  1.0000
  C   C215      1.0  0.04146  0.86255  0.65897  1.0000
  H   H386      1.0  0.20672  0.69410  0.76691  1.0000
  H   H387      1.0  0.03753  0.98481  0.91327  1.0000
  H   H388      1.0  0.02926  0.71161  0.95099  1.0000
  H   H389      1.0  0.09565  0.92457  0.75452  1.0000
  H   H390      1.0  0.16679  0.68960  0.76945  1.0000
  H   H391      1.0  0.30097  0.74365  0.91123  1.0000
  C   C216      1.0  0.18815  0.69712  0.81860  1.0000
  H   H392      1.0  0.01319  0.91475  0.73735  1.0000
  H   H393      1.0  0.19713  0.76228  0.96832  1.0000
  C   C217      1.0  0.07327  0.96241  0.64111  1.0000
  C   C218      1.0  0.10084  0.96093  0.62382  1.0000
  C   C219      1.0  0.10548  0.94048  0.59690  1.0000
  C   C220      1.0  0.08261  0.92108  0.58711  1.0000
  C   C221      1.0  0.05497  0.92275  0.60420  1.0000
  C   C222      1.0  0.05027  0.94329  0.63098  1.0000
  H   H394      1.0  0.03334  0.93765  0.52830  1.0000
  H   H395      1.0  0.12687  0.93947  0.58404  1.0000
  H   H396      1.0  0.03704  0.90808  0.59656  1.0000
  H   H397      1.0  0.02885  0.94435  0.64370  1.0000
  C   C223      1.0  0.00621  0.97169  0.55066  1.0000
  S   S51       1.0  0.03766  0.49821  0.75380  1.0000
  C   C224      1.0  0.26387  0.72914  0.98333  1.0000
  H   H398      1.0  0.00929  0.62218  0.84253  1.0000
  H   H399      1.0  0.02583  0.57323  0.90141  1.0000
  H   H400      1.0  0.03115  0.91214  0.69759  1.0000
  H   H401      1.0  0.31831  0.71748  0.54802  1.0000
  C   C225      1.0  0.03705  0.58888  0.81893  1.0000
  C   C226      1.0  0.06555  0.57626  0.81853  1.0000
  C   C227      1.0  0.08816  0.58752  0.84017  1.0000
  C   C228      1.0  0.08247  0.61111  0.86295  1.0000
  C   C229      1.0  0.05372  0.62317  0.86404  1.0000
  C   C230      1.0  0.03125  0.61223  0.84200  1.0000
  H   H402      1.0  0.07038  0.55830  0.80099  1.0000
  H   H403      1.0  0.11031  0.57806  0.83903  1.0000
  H   H404      1.0  0.04901  0.64144  0.88118  1.0000
  H   H405      1.0  0.05247  0.60168  0.65197  1.0000
  C   C231      1.0  0.26105  0.71596  0.56359  1.0000
  C   C232      1.0  0.05728  0.89736  0.74127  1.0000
  H   H406      1.0  0.01722  0.63280  0.93932  1.0000
  H   H407      1.0  0.04689  0.52771  0.56417  1.0000
  C   C233      1.0  0.03218  0.57121  0.61570  1.0000
  H   H408      1.0  0.26834  0.73775  0.55318  1.0000
  N   N13       1.0  0.01103  0.87095  0.71478  1.0000
  H   H409      1.0  0.32050  0.98400  0.66860  1.0000
  S   S52       1.0  0.30076  0.62070  0.51087  1.0000
  C   C234      1.0  0.02371  0.83494  0.76561  1.0000
  C   C235      1.0  0.05086  0.57320  0.94822  1.0000
  H   H410      1.0  0.13565  0.75710  0.88513  1.0000
  H   H411      1.0  0.23086  0.80554  0.95944  1.0000
  C   C236      1.0  0.05576  0.51436  0.49935  1.0000
  C   C237      1.0  0.03095  0.96207  0.52600  1.0000
  H   H412      1.0  0.05281  0.89318  0.76887  1.0000
  C   C238      1.0  0.05923  0.83927  0.63915  1.0000
  C   C239      1.0  0.02518  0.52153  0.51464  1.0000
  S   S53       1.0  0.06747  0.49736  0.65398  1.0000
  H   H413      1.0  0.03175  0.57922  0.96494  1.0000
  H   H414      1.0  0.06022  0.55259  0.90027  1.0000
  C   C240      1.0  0.03204  0.60027  0.63592  1.0000
  C   C241      1.0  0.20365  0.63223  0.90411  1.0000
  H   H415      1.0  0.26896  0.96669  0.67740  1.0000
  S   S54       1.0  0.00330  0.53927  0.69687  1.0000
  H   H416      1.0  0.05255  0.57103  0.59949  1.0000
  H   H417      1.0  0.30692  0.75138  0.98222  1.0000
  C   C242      1.0  0.24023  0.78424  0.96625  1.0000
  H   H418      1.0  0.21599  0.73640  0.82349  1.0000
  C   C243      1.0  0.02963  0.84995  0.69346  1.0000
  H   H419      1.0  0.06921  0.53491  0.49609  1.0000
  H   H420      1.0  0.01651  0.82948  0.68781  1.0000
  N   N14       1.0  0.21798  0.71399  0.87251  1.0000
  C   C244      1.0  0.19086  0.72767  0.88917  1.0000
  C   C245      1.0  0.22317  0.68314  0.88669  1.0000
  C   C246      1.0  0.24467  0.73300  0.88175  1.0000
  C   C247      1.0  0.21549  0.71344  0.83393  1.0000
  C   C248      1.0  0.18409  0.76042  0.87979  1.0000
  C   C249      1.0  0.27580  0.72079  0.87124  1.0000
  C   C250      1.0  0.19518  0.66426  0.89591  1.0000
  H   H421      1.0  0.27335  0.70777  0.98960  1.0000
  C   C251      1.0  0.15448  0.77046  0.89545  1.0000
  C   C252      1.0  0.30073  0.74173  0.88287  1.0000
  H   H422      1.0  0.19318  0.72663  0.91755  1.0000
  H   H423      1.0  0.17042  0.71473  0.88352  1.0000
  H   H424      1.0  0.23730  0.67000  0.86877  1.0000
  H   H425      1.0  0.23601  0.68444  0.91119  1.0000
  H   H426      1.0  0.24526  0.73686  0.90991  1.0000
  H   H427      1.0  0.24294  0.75535  0.86983  1.0000
  H   H428      1.0  0.23530  0.70237  0.82253  1.0000
  H   H429      1.0  0.16681  0.70484  0.82982  1.0000
  H   H430      1.0  0.19043  0.67287  0.82257  1.0000
  H   H431      1.0  0.05666  0.88163  0.66352  1.0000
  H   H432      1.0  0.18251  0.76341  0.85165  1.0000
  H   H433      1.0  0.27764  0.71860  0.84302  1.0000
  H   H434      1.0  0.28014  0.69883  0.88305  1.0000
  H   H435      1.0  0.18428  0.67352  0.91908  1.0000
  H   H436      1.0  0.17827  0.66387  0.87532  1.0000
  N   N15       1.0  0.00096  0.54062  0.57163  1.0000
  H   H437      1.0  0.21444  0.62157  0.88163  1.0000
  H   H438      1.0  0.15498  0.76822  0.92382  1.0000
  C   C253      1.0  0.02222  0.52891  0.92464  1.0000
  H   H439      1.0  0.06297  0.59383  0.94103  1.0000
  H   H440      1.0  0.30819  0.67980  0.54202  1.0000
  H   H441      1.0  0.29775  0.76419  0.87167  1.0000
  C   C254      1.0  0.28608  0.96264  0.69745  1.0000
  H   H442      1.0  0.00324  0.53633  0.94070  1.0000
  H   H443      1.0  0.03417  0.55312  0.63461  1.0000
  H   H444      1.0  0.32271  0.73295  0.87450  1.0000
  H   H445      1.0  0.06747  0.84906  0.61473  1.0000
  C   C255      1.0  0.28599  0.70153  0.58442  1.0000
  C   C256      1.0  0.02729  0.89968  0.72182  1.0000
  H   H446      1.0  0.04635  0.84446  0.76774  1.0000
  H   H447      1.0  0.03693  0.56072  0.54243  1.0000
  C   C257      1.0  0.01657  0.73017  0.96075  1.0000
  C   C258      1.0  0.31423  0.69635  0.56207  1.0000
  S   S55       1.0  0.07584  0.65904  0.97634  1.0000
  Fe  Fe26      1.0  0.09369  0.70563  0.98268  1.0000
  C   C259      1.0  0.27145  0.78165  0.97008  1.0000
  C   C260      1.0  0.02845  0.53822  0.54931  1.0000
  H   H448      1.0  0.04495  0.81983  0.63289  1.0000
  H   H449      1.0  0.00590  0.89477  0.97317  1.0000
  H   H450      1.0  0.01229  0.84708  0.81816  1.0000
  H   H451      1.0  0.07177  0.87963  0.73095  1.0000
  H   H452      1.0  0.00726  0.54606  0.85794  1.0000
  H   H453      1.0  0.11881  0.97559  0.63139  1.0000
  C   C261      1.0  0.22098  0.75964  0.97120  1.0000
  H   H454      1.0  0.29097  0.71612  0.60659  1.0000
  C   C262      1.0  0.03045  0.75136  0.98148  1.0000
  H   H455      1.0  0.21899  0.63149  0.92647  1.0000
  Fe  Fe27      1.0  0.15935  0.68873  0.97998  1.0000
  H   H456      1.0  0.25444  0.70128  0.54199  1.0000
  H   H457      1.0  0.20166  0.77539  0.89003  1.0000
  H   H458      1.0  0.02291  0.86983  0.64220  1.0000
  H   H459      1.0  0.15047  0.79414  0.88909  1.0000
  H   H460      1.0  0.24117  0.71959  0.58007  1.0000
  C   C263      1.0  0.23271  0.73172  0.97924  1.0000
  H   H461      1.0  0.04951  0.84207  0.70762  1.0000
  H   H462      1.0  0.07886  0.83183  0.65423  1.0000
  S   S56       1.0  0.29468  0.81333  0.96166  1.0000
  C   C264      1.0  0.01317  0.82693  0.80176  1.0000
  H   H463      1.0  0.02894  0.81094  0.81355  1.0000
  H   H464      1.0  0.06803  0.49868  0.51621  1.0000
  H   H465      1.0  0.01823  0.51317  0.61272  1.0000
  H   H466      1.0  0.06647  0.55882  0.96278  1.0000
  C   C265      1.0  0.04009  0.55746  0.91577  1.0000
  H   H467      1.0  0.27118  0.97987  0.51238  1.0000
  H   H468      1.0  0.27694  0.68013  0.59398  1.0000
  H   H469      1.0  0.18319  0.61940  0.91056  1.0000
  S   S57       1.0  0.00790  0.57637  0.79137  1.0000
  H   H470      1.0  0.08161  0.93066  0.71186  1.0000
  C   C266      1.0  0.18617  0.70210  0.77989  1.0000
  H   H471      1.0  0.05090  0.51867  0.86289  1.0000
  H   H472      1.0  0.03628  0.51507  0.94195  1.0000
  H   H473      1.0  0.27377  0.88808  0.50292  1.0000
  H   H474      1.0  0.32311  0.98899  0.74732  1.0000
  Fe  Fe28      1.0  0.00590  0.53669  0.75466  1.0000
  H   H475      1.0  0.01267  0.50049  0.51697  1.0000
  H   H476      1.0  0.05206  0.97251  0.53475  1.0000
  S   S58       1.0  0.20994  0.69907  0.98283  1.0000
  H   H477      1.0  0.13748  0.49840  0.54308  1.0000
  S   S59       1.0  0.06885  0.98805  0.67548  1.0000
  H   H478      1.0  0.01199  0.96501  0.57720  1.0000
  H   H479      1.0  0.09155  0.49491  0.58575  1.0000
  S   S60       1.0  0.22555  0.93714  0.50000  1.0000
  H   H480      1.0  0.22185  0.59476  0.98383  1.0000
  Fe  Fe29      1.0  0.03179  0.49799  0.69622  1.0000
  C   C267      1.0  0.00129  0.85617  0.74782  1.0000
  H   H481      1.0  0.01229  0.60123  0.65318  1.0000
  C   C268      1.0  0.99850  0.51448  0.59576  1.0000
  H   H482      1.0  0.01301  0.53557  0.49592  1.0000
  H   H483      1.0  0.00319  0.58849  0.57736  1.0000
  C   C269      1.0  0.00347  0.56822  0.59355  1.0000
  H   H484      1.0  0.32722  0.64108  0.58019  1.0000
  C   C270      1.0  0.25653  0.98892  0.49298  1.0000
  H   H485      1.0  0.08547  0.97610  0.49260  1.0000
  H   H486      1.0  0.35704  0.37736  0.21620  1.0000
  S   S61       1.0  0.48184  0.46742  0.24690  1.0000
  H   H487      1.0  0.42378  0.00281  0.46189  1.0000
  Fe  Fe30      1.0  0.48990  0.47222  0.18998  1.0000
  S   S62       1.0  0.49365  0.43473  0.15075  1.0000
  H   H488      1.0  0.52981  0.01084  0.40712  1.0000
  Fe  Fe31      1.0  0.38704  0.35187  0.01362  1.0000
  S   S63       1.0  0.38772  0.37710  0.06465  1.0000
  C   C271      1.0  0.58905  0.47315  0.13759  1.0000
  Fe  Fe32      1.0  0.35880  0.10383  0.43686  1.0000
  H   H489      1.0  0.48147  0.01820  0.12808  1.0000
  S   S64       1.0  0.40034  0.10202  0.40299  1.0000
  Fe  Fe33      1.0  0.64463  0.38964  0.42076  1.0000
  H   H490      1.0  0.59369  0.26079  0.11239  1.0000
  H   H491      1.0  0.38187  0.47398  0.14558  1.0000
  C   C272      1.0  0.42295  0.02981  0.32361  1.0000
  C   C273      1.0  0.44339  0.05233  0.33130  1.0000
  C   C274      1.0  0.43627  0.07403  0.35599  1.0000
  C   C275      1.0  0.40882  0.07329  0.37350  1.0000
  C   C276      1.0  0.38862  0.05042  0.36633  1.0000
  C   C277      1.0  0.39563  0.02887  0.34141  1.0000
  H   H492      1.0  0.46452  0.05328  0.31787  1.0000
  H   H493      1.0  0.45203  0.09164  0.36135  1.0000
  H   H494      1.0  0.36741  0.04970  0.37956  1.0000
  H   H495      1.0  0.33190  0.08520  0.22162  1.0000
  C   C278      1.0  0.46507  0.42140  0.12317  1.0000
  C   C279      1.0  0.47041  0.39606  0.10303  1.0000
  C   C280      1.0  0.44745  0.38326  0.08311  1.0000
  C   C281      1.0  0.41878  0.39554  0.08344  1.0000
  C   C282      1.0  0.41380  0.42151  0.10260  1.0000
  C   C283      1.0  0.43688  0.43458  0.12205  1.0000
  H   H496      1.0  0.49221  0.38578  0.10355  1.0000
  H   H497      1.0  0.45158  0.36316  0.06871  1.0000
  H   H498      1.0  0.39175  0.43125  0.10276  1.0000
  H   H499      1.0  0.43266  0.45431  0.13700  1.0000
  Fe  Fe34      1.0  0.50886  0.03097  0.19971  1.0000
  H   H500      1.0  0.34878  0.47719  0.17202  1.0000
  S   S65       1.0  0.50855  0.07019  0.16225  1.0000
  H   H501      1.0  0.49391  0.03554  0.48049  1.0000
  C   C284      1.0  0.44504  0.46663  0.34335  1.0000
  S   S66       1.0  0.50934  0.03409  0.25764  1.0000
  Fe  Fe35      1.0  0.60941  0.13949  0.00704  1.0000
  S   S67       1.0  0.60277  0.09957  0.04318  1.0000
  S   S68       1.0  0.62688  0.18435  0.02308  1.0000
  H   H502      1.0  0.40730  0.06841  0.47184  1.0000
  C   C285      1.0  0.57375  0.22246  0.08689  1.0000
  S   S69       1.0  0.62411  0.39393  0.36732  1.0000
  H   H503      1.0  0.34952  0.39764  0.26883  1.0000
  C   C286      1.0  0.36915  0.33106  0.17492  1.0000
  H   H504      1.0  0.49675  0.41581  0.03384  1.0000
  C   C287      1.0  0.56756  0.46944  0.32078  1.0000
  C   C288      1.0  0.57326  0.44348  0.30230  1.0000
  C   C289      1.0  0.59037  0.42055  0.31708  1.0000
  C   C290      1.0  0.60165  0.42306  0.35063  1.0000
  C   C291      1.0  0.59542  0.44878  0.36940  1.0000
  C   C292      1.0  0.35894  0.11108  0.18632  1.0000
  H   H505      1.0  0.56505  0.44129  0.27635  1.0000
  H   H506      1.0  0.59505  0.40077  0.30233  1.0000
  H   H507      1.0  0.60375  0.45085  0.39529  1.0000
  H   H508      1.0  0.43169  0.39983  0.17962  1.0000
  C   C293      1.0  0.57596  0.09139  0.07566  1.0000
  C   C294      1.0  0.58067  0.06693  0.09747  1.0000
  C   C295      1.0  0.56021  0.05990  0.12387  1.0000
  C   C296      1.0  0.53449  0.07701  0.12845  1.0000
  C   C297      1.0  0.52924  0.10075  0.10583  1.0000
  C   C298      1.0  0.54995  0.10810  0.07987  1.0000
  H   H509      1.0  0.60062  0.05372  0.09434  1.0000
  H   H510      1.0  0.56465  0.04158  0.14101  1.0000
  H   H511      1.0  0.50913  0.11367  0.10866  1.0000
  H   H512      1.0  0.54590  0.12656  0.06298  1.0000
  H   H513      1.0  0.53878  0.24765  0.06359  1.0000
  H   H514      1.0  0.39019  0.01674  0.48232  1.0000
  C   C299      1.0  0.37344  0.47979  0.17149  1.0000
  H   H515      1.0  0.54009  0.17877  0.05650  1.0000
  N   N16       1.0  0.39617  0.40548  0.21677  1.0000
  C   C300      1.0  0.38644  0.36024  0.17720  1.0000
  H   H516      1.0  0.52679  0.41730  0.47948  1.0000
  C   C301      1.0  0.52284  0.19165  0.12044  1.0000
  S   S70       1.0  0.37167  0.30440  0.00602  1.0000
  C   C302      1.0  0.54239  0.04107  0.00178  1.0000
  H   H517      1.0  0.55548  0.01366  0.04364  1.0000
  S   S71       1.0  0.62748  0.35841  0.46134  1.0000
  H   H518      1.0  0.34091  0.06146  0.30303  1.0000
  H   H519      1.0  0.47281  0.08914  0.46962  1.0000
  H   H520      1.0  0.48852  0.46642  0.05395  1.0000
  H   H521      1.0  0.43462  0.04371  0.14094  1.0000
  C   C303      1.0  0.62855  0.99360  0.47749  1.0000
  C   C304      1.0  0.40788  0.02165  0.46311  1.0000
  H   H522      1.0  0.56345  0.45453  0.09672  1.0000
  C   C305      1.0  0.50537  0.15837  0.16921  1.0000
  H   H523      1.0  0.61043  0.47211  0.12317  1.0000
  S   S72       1.0  0.54099  0.99300  0.19861  1.0000
  H   H524      1.0  0.49567  0.17171  0.99394  1.0000
  H   H525      1.0  0.51352  0.06743  0.43415  1.0000
  H   H526      1.0  0.48921  0.02231  0.02455  1.0000
  H   H527      1.0  0.39717  0.02409  0.43759  1.0000
  H   H528      1.0  0.53770  0.08631  0.46435  1.0000
  C   C306      1.0  0.36116  0.41937  0.26722  1.0000
  S   S73       1.0  0.65244  0.42763  0.45695  1.0000
  H   H529      1.0  0.48153  0.09574  0.25598  1.0000
  H   H530      1.0  0.35148  0.09963  0.34913  1.0000
  H   H531      1.0  0.63525  0.21003  0.36008  1.0000
  C   C307      1.0  0.47986  0.38015  0.21373  1.0000
  N   N17       1.0  0.37601  0.08752  0.24475  1.0000
  H   H532      1.0  0.41035  0.35503  0.17285  1.0000
  H   H533      1.0  0.38908  0.35994  0.23296  1.0000
  C   C308      1.0  0.42413  0.05041  0.47232  1.0000
  C   C309      1.0  0.38792  0.46034  0.19888  1.0000
  C   C310      1.0  0.51196  0.45865  0.05231  1.0000
  H   H534      1.0  0.37667  0.31540  0.19511  1.0000
  H   H535      1.0  0.53539  0.42368  0.02457  1.0000
  C   C311      1.0  0.50673  0.01644  0.04355  1.0000
  H   H536      1.0  0.65816  0.47359  0.39154  1.0000
  H   H537      1.0  0.34786  0.43416  0.25051  1.0000
  H   H538      1.0  0.40377  0.39840  0.27092  1.0000
  H   H539      1.0  0.48898  0.48479  0.35080  1.0000
  C   C312      1.0  0.38078  0.42705  0.19305  1.0000
  H   H540      1.0  0.53809  0.99404  0.00823  1.0000
  C   C313      1.0  0.38339  0.04089  0.20661  1.0000
  H   H541      1.0  0.41831  0.03131  0.10114  1.0000
  H   H542      1.0  0.37919  0.46787  0.22396  1.0000
  C   C314      1.0  0.39346  0.41510  0.25367  1.0000
  C   C315      1.0  0.37049  0.09575  0.28181  1.0000
  H   H543      1.0  0.35608  0.42442  0.19428  1.0000
  C   C316      1.0  0.36136  0.43297  0.30313  1.0000
  H   H544      1.0  0.46572  0.09442  0.21361  1.0000
  H   H545      1.0  0.37313  0.32073  0.14945  1.0000
  H   H546      1.0  0.37968  0.01152  0.33567  1.0000
  H   H547      1.0  0.52152  0.14113  0.16099  1.0000
  H   H548      1.0  0.51828  0.14292  0.01305  1.0000
  S   S74       1.0  0.46794  0.00178  0.19912  1.0000
  C   C317      1.0  0.49675  0.15498  0.01478  1.0000
  C   C318      1.0  0.35112  0.10088  0.22335  1.0000
  H   H549      1.0  0.37872  0.37457  0.15586  1.0000
  H   H550      1.0  0.51601  0.17229  0.18930  1.0000
  H   H551      1.0  0.51775  0.44918  0.07757  1.0000
  H   H552      1.0  0.61917  0.23927  0.08662  1.0000
  C   C319      1.0  0.57870  0.47193  0.35442  1.0000
  H   H553      1.0  0.40640  0.43592  0.25815  1.0000
  H   H554      1.0  0.34480  0.33505  0.17769  1.0000
  H   H555      1.0  0.47998  0.37405  0.18611  1.0000
  S   S75       1.0  0.56929  0.24481  0.99690  1.0000
  H   H556      1.0  0.48568  0.14703  0.18056  1.0000
  H   H557      1.0  0.32942  0.12601  0.32539  1.0000
  H   H558      1.0  0.57812  0.20982  0.06306  1.0000
  H   H559      1.0  0.37345  0.13111  0.18726  1.0000
  H   H560      1.0  0.59268  0.26333  0.06605  1.0000
  H   H561      1.0  0.43964  0.42619  0.21151  1.0000
  C   C320      1.0  0.51270  0.43350  0.02604  1.0000
  C   C321      1.0  0.49553  0.17756  0.13889  1.0000
  C   C322      1.0  0.38161  0.37548  0.21254  1.0000
  H   H562      1.0  0.47191  0.04388  0.09471  1.0000
  H   H563      1.0  0.53402  0.20517  0.14070  1.0000
  H   H564      1.0  0.43855  0.35866  0.22545  1.0000
  C   C323      1.0  0.37565  0.05415  0.24211  1.0000
  H   H565      1.0  0.52829  0.00598  0.10308  1.0000
  H   H566      1.0  0.41225  0.46446  0.19829  1.0000
  H   H567      1.0  0.40597  0.04781  0.19807  1.0000
  C   C324      1.0  0.52606  0.06509  0.45858  1.0000
  H   H568      1.0  0.49286  0.36328  0.22808  1.0000
  C   C325      1.0  0.33299  0.10203  0.33044  1.0000
  H   H569      1.0  0.49107  0.40197  0.21701  1.0000
  N   N18       1.0  0.51702  0.21043  0.08883  1.0000
  C   C326      1.0  0.48737  0.22615  0.09174  1.0000
  C   C327      1.0  0.51915  0.19199  0.05659  1.0000
  C   C328      1.0  0.49334  0.16987  0.04979  1.0000
  C   C329      1.0  0.47892  0.24673  0.06139  1.0000
  C   C330      1.0  0.44794  0.38134  0.22749  1.0000
  C   C331      1.0  0.44702  0.25836  0.06493  1.0000
  H   H570      1.0  0.48695  0.23990  0.11551  1.0000
  H   H571      1.0  0.46878  0.21006  0.09462  1.0000
  H   H572      1.0  0.52128  0.20655  0.03372  1.0000
  H   H573      1.0  0.47130  0.18097  0.04987  1.0000
  H   H574      1.0  0.49350  0.15205  0.06922  1.0000
  H   H575      1.0  0.49386  0.26637  0.06043  1.0000
  H   H576      1.0  0.48027  0.23476  0.03663  1.0000
  H   H577      1.0  0.48080  0.19510  0.14951  1.0000
  H   H578      1.0  0.48213  0.16360  0.12139  1.0000
  H   H579      1.0  0.53873  0.24970  0.10911  1.0000
  H   H580      1.0  0.54203  0.47434  0.12863  1.0000
  C   C332      1.0  0.53315  0.48451  0.04169  1.0000
  H   H581      1.0  0.44441  0.27118  0.08907  1.0000
  H   H582      1.0  0.44185  0.27325  0.04302  1.0000
  H   H583      1.0  0.43074  0.23974  0.06454  1.0000
  C   C333      1.0  0.64793  0.18900  0.35734  1.0000
  C   C334      1.0  0.40585  0.10049  0.23447  1.0000
  C   C335      1.0  0.59607  0.24813  0.08812  1.0000
  H   H584      1.0  0.37385  0.41864  0.32128  1.0000
  C   C336      1.0  0.54107  0.23399  0.08718  1.0000
  H   H585      1.0  0.50902  0.03636  0.06019  1.0000
  C   C337      1.0  0.43341  0.09000  0.25518  1.0000
  H   H586      1.0  0.45227  0.45047  0.32353  1.0000
  H   H587      1.0  0.53884  0.17345  0.11438  1.0000
  H   H588      1.0  0.46154  0.12736  0.23983  1.0000
  H   H589      1.0  0.38659  0.42205  0.16602  1.0000
  C   C338      1.0  0.46222  0.10274  0.24011  1.0000
  H   H590      1.0  0.39086  0.04428  0.26137  1.0000
  H   H591      1.0  0.40503  0.12515  0.23660  1.0000
  H   H592      1.0  0.41098  0.09576  0.20719  1.0000
  C   C339      1.0  0.53701  0.01404  0.02470  1.0000
  H   H593      1.0  0.44495  0.45536  0.36866  1.0000
  C   C340      1.0  0.42887  0.40427  0.20745  1.0000
  H   H594      1.0  0.38764  0.08581  0.29887  1.0000
  H   H595      1.0  0.42203  0.47401  0.33712  1.0000
  H   H596      1.0  0.36655  0.04770  0.18741  1.0000
  H   H597      1.0  0.44092  0.05466  0.45198  1.0000
  S   S76       1.0  0.36277  0.12971  0.48602  1.0000
  H   H598      1.0  0.43218  0.09784  0.28208  1.0000
  H   H599      1.0  0.43540  0.06548  0.25489  1.0000
  H   H600      1.0  0.44940  0.38746  0.25499  1.0000
  H   H601      1.0  0.57852  0.20779  0.10903  1.0000
  C   C341      1.0  0.46592  0.02232  0.10657  1.0000
  C   C342      1.0  0.43457  0.02563  0.12158  1.0000
  H   H602      1.0  0.54319  0.04756  0.45522  1.0000
  H   H603      1.0  0.47835  0.13877  0.01090  1.0000
  H   H604      1.0  0.65158  0.18384  0.41180  1.0000
  H   H605      1.0  0.37260  0.12025  0.28517  1.0000
  H   H606      1.0  0.64880  0.47100  0.33363  1.0000
  S   S77       1.0  0.33907  0.06380  0.46193  1.0000
  H   H607      1.0  0.63175  0.17053  0.35382  1.0000
  H   H608      1.0  0.37185  0.45532  0.30255  1.0000
  C   C343      1.0  0.50491  0.05664  0.48780  1.0000
  H   H609      1.0  0.54196  0.06184  0.01715  1.0000
  H   H610      1.0  0.35321  0.04533  0.24898  1.0000
  H   H611      1.0  0.63397  0.01765  0.47790  1.0000
  H   H612      1.0  0.34555  0.00530  0.41001  1.0000
  H   H613      1.0  0.33717  0.12726  0.14028  1.0000
  H   H614      1.0  0.57457  0.49197  0.36886  1.0000
  C   C344      1.0  0.56258  0.47473  0.11294  1.0000
  S   S78       1.0  0.42987  0.00326  0.29098  1.0000
  C   C345      1.0  0.34005  0.08557  0.29712  1.0000
  H   H615      1.0  0.37088  0.09379  0.17160  1.0000
  H   H616      1.0  0.58461  0.00172  0.45835  1.0000
  H   H617      1.0  0.50603  0.44174  0.00033  1.0000
  H   H618      1.0  0.52384  0.45599  0.46841  1.0000
  H   H619      1.0  0.52908  0.29350  0.00551  1.0000
  C   C346      1.0  0.38295  0.00698  0.20755  1.0000
  H   H620      1.0  0.42746  0.00472  0.13429  1.0000
  Fe  Fe36      1.0  0.47129  0.00164  0.25686  1.0000
  H   H621      1.0  0.58707  0.45292  0.15369  1.0000
  H   H622      1.0  0.45077  0.00304  0.05963  1.0000
  H   H623      1.0  0.55502  0.47472  0.03420  1.0000
  C   C347      1.0  0.46696  0.99673  0.07994  1.0000
  H   H624      1.0  0.34195  0.12112  0.23601  1.0000
  H   H625      1.0  0.40024  0.99849  0.22537  1.0000
  C   C348      1.0  0.52816  0.44027  0.48972  1.0000
  H   H626      1.0  0.38778  0.99804  0.18161  1.0000
  H   H627      1.0  0.33810  0.43536  0.31260  1.0000
  H   H628      1.0  0.36074  0.99863  0.21584  1.0000
  H   H629      1.0  0.66235  0.19078  0.33423  1.0000
  H   H630      1.0  0.41342  0.48057  0.49142  1.0000
  Fe  Fe37      1.0  0.53820  0.99312  0.25640  1.0000
  C   C349      1.0  0.33085  0.11931  0.16626  1.0000
  H   H631      1.0  0.65726  0.49186  0.27526  1.0000
  H   H632      1.0  0.50625  0.14546  0.72679  1.0000
  H   H633      1.0  0.38052  0.02399  0.78593  1.0000
  S   S79       1.0  0.37741  0.31786  0.92243  1.0000
  H   H634      1.0  0.50141  0.40359  0.60890  1.0000
  Fe  Fe38      1.0  0.39242  0.36399  0.93652  1.0000
  S   S80       1.0  0.40233  0.40513  0.90377  1.0000
  H   H635      1.0  0.48282  0.44030  0.50730  1.0000
  N   N19       1.0  0.45711  0.07465  0.51946  1.0000
  H   H636      1.0  0.52524  0.04235  0.98129  1.0000
  S   S81       1.0  0.49627  0.46794  0.68847  1.0000
  H   H637      1.0  0.40740  0.46516  0.72204  1.0000
  Fe  Fe39      1.0  0.49473  0.46944  0.74620  1.0000
  S   S82       1.0  0.48558  0.42519  0.77291  1.0000
  C   C350      1.0  0.36005  0.03124  0.72175  1.0000
  H   H638      1.0  0.36258  0.43874  0.83768  1.0000
  S   S83       1.0  0.36023  0.05910  0.55192  1.0000
  C   C351      1.0  0.42198  0.06729  0.64578  1.0000
  C   C352      1.0  0.40733  0.09258  0.63306  1.0000
  C   C353      1.0  0.38908  0.09086  0.60363  1.0000
  C   C354      1.0  0.38480  0.06361  0.58717  1.0000
  C   C355      1.0  0.39979  0.03846  0.59964  1.0000
  C   C356      1.0  0.41872  0.04038  0.62833  1.0000
  H   H639      1.0  0.40422  0.47469  0.80123  1.0000
  H   H640      1.0  0.37752  0.11035  0.59444  1.0000
  H   H641      1.0  0.39666  0.01729  0.58704  1.0000
  H   H642      1.0  0.43015  0.02085  0.63747  1.0000
  C   C357      1.0  0.42696  0.41008  0.86856  1.0000
  C   C358      1.0  0.43474  0.43905  0.85845  1.0000
  C   C359      1.0  0.45303  0.44406  0.82956  1.0000
  C   C360      1.0  0.46336  0.42010  0.81013  1.0000
  C   C361      1.0  0.45544  0.39114  0.82012  1.0000
  C   C362      1.0  0.43749  0.38615  0.84928  1.0000
  H   H643      1.0  0.42658  0.45773  0.87311  1.0000
  H   H644      1.0  0.45906  0.46644  0.82227  1.0000
  H   H645      1.0  0.46299  0.37249  0.80500  1.0000
  H   H646      1.0  0.43107  0.36393  0.85642  1.0000
  H   H647      1.0  0.48805  0.36572  0.97176  1.0000
  H   H648      1.0  0.42058  0.16081  0.50940  1.0000
  C   C363      1.0  0.40543  0.44673  0.74076  1.0000
  Fe  Fe40      1.0  0.65939  0.18193  0.97891  1.0000
  S   S84       1.0  0.62758  0.20243  0.94123  1.0000
  C   C364      1.0  0.50522  0.44424  0.51843  1.0000
  S   S85       1.0  0.64441  0.13525  0.96534  1.0000
  H   H649      1.0  0.42956  0.39679  0.67761  1.0000
  Fe  Fe41      1.0  0.61010  0.15618  0.93086  1.0000
  S   S86       1.0  0.60071  0.14487  0.87466  1.0000
  C   C365      1.0  0.43894  0.04813  0.50817  1.0000
  Fe  Fe42      1.0  0.51821  0.01807  0.76117  1.0000
  H   H650      1.0  0.49173  0.11397  0.70362  1.0000
  S   S87       1.0  0.53657  0.02935  0.81438  1.0000
  H   H651      1.0  0.38485  0.41096  0.70979  1.0000
  C   C366      1.0  0.43639  0.10114  0.52025  1.0000
  S   S88       1.0  0.52138  0.03926  0.70903  1.0000
  H   H652      1.0  0.40962  0.11350  0.64643  1.0000
  S   S89       1.0  0.59988  0.40389  0.53703  1.0000
  C   C367      1.0  0.48204  0.08163  0.49467  1.0000
  H   H653      1.0  0.51889  0.05315  0.51091  1.0000
  C   C368      1.0  0.61342  0.45473  0.57506  1.0000
  C   C369      1.0  0.59484  0.43001  0.57071  1.0000
  C   C370      1.0  0.57079  0.42591  0.59346  1.0000
  C   C371      1.0  0.56548  0.44600  0.62047  1.0000
  H   H654      1.0  0.45244  0.42137  0.70271  1.0000
  H   H655      1.0  0.63196  0.45821  0.55772  1.0000
  H   H656      1.0  0.55646  0.40674  0.59047  1.0000
  H   H657      1.0  0.54737  0.44210  0.63828  1.0000
  H   H658      1.0  0.33255  0.46463  0.75957  1.0000
  H   H659      1.0  0.43465  0.03469  0.84286  1.0000
  H   H660      1.0  0.46707  0.42345  0.56480  1.0000
  C   C372      1.0  0.55544  0.06119  0.83034  1.0000
  C   C373      1.0  0.56603  0.08364  0.80877  1.0000
  C   C374      1.0  0.57994  0.10900  0.82278  1.0000
  C   C375      1.0  0.58375  0.11208  0.85843  1.0000
  C   C376      1.0  0.57346  0.08946  0.87999  1.0000
  C   C377      1.0  0.55944  0.06415  0.86597  1.0000
  H   H661      1.0  0.56346  0.08148  0.78130  1.0000
  H   H662      1.0  0.58797  0.12630  0.80588  1.0000
  H   H663      1.0  0.57633  0.09146  0.90744  1.0000
  H   H664      1.0  0.55157  0.04679  0.88287  1.0000
  N   N20       1.0  0.47682  0.11599  0.82444  1.0000
  C   C378      1.0  0.49571  0.12424  0.85510  1.0000
  C   C379      1.0  0.47114  0.08282  0.82382  1.0000
  C   C380      1.0  0.49439  0.12402  0.79264  1.0000
  C   C381      1.0  0.44782  0.13294  0.82341  1.0000
  C   C382      1.0  0.42770  0.13074  0.85557  1.0000
  C   C383      1.0  0.50543  0.15722  0.85781  1.0000
  C   C384      1.0  0.48075  0.11402  0.75783  1.0000
  C   C385      1.0  0.46859  0.06659  0.85886  1.0000
  C   C386      1.0  0.45729  0.03479  0.85439  1.0000
  C   C387      1.0  0.40092  0.15157  0.85268  1.0000
  C   C388      1.0  0.51904  0.16391  0.89294  1.0000
  C   C389      1.0  0.50192  0.12122  0.72820  1.0000
  H   H665      1.0  0.51653  0.11079  0.85502  1.0000
  H   H666      1.0  0.48446  0.11842  0.87950  1.0000
  H   H667      1.0  0.45080  0.07764  0.80850  1.0000
  H   H668      1.0  0.48967  0.07119  0.81035  1.0000
  H   H669      1.0  0.51720  0.11447  0.79423  1.0000
  H   H670      1.0  0.49759  0.14846  0.79078  1.0000
  H   H671      1.0  0.45200  0.15682  0.81799  1.0000
  H   H672      1.0  0.43386  0.12517  0.80160  1.0000
  H   H673      1.0  0.43984  0.13695  0.87925  1.0000
  H   H674      1.0  0.41873  0.10791  0.85808  1.0000
  H   H675      1.0  0.52274  0.16226  0.83821  1.0000
  H   H676      1.0  0.48635  0.17249  0.85424  1.0000
  H   H677      1.0  0.45939  0.12563  0.75281  1.0000
  H   H678      1.0  0.47652  0.08977  0.75710  1.0000
  H   H679      1.0  0.49096  0.06536  0.87113  1.0000
  H   H680      1.0  0.45336  0.07802  0.87681  1.0000
  Fe  Fe43      1.0  0.59434  0.20245  0.98435  1.0000
  Fe  Fe44      1.0  0.34117  0.09013  0.51101  1.0000
  C   C390      1.0  0.53233  0.24996  0.98296  1.0000
  H   H681      1.0  0.38739  0.14617  0.82963  1.0000
  H   H682      1.0  0.38649  0.14915  0.87570  1.0000
  H   H683      1.0  0.40846  0.17505  0.85117  1.0000
  H   H684      1.0  0.50193  0.16186  0.91343  1.0000
  H   H685      1.0  0.53769  0.14845  0.89852  1.0000
  H   H686      1.0  0.52802  0.18691  0.89329  1.0000
  C   C391      1.0  0.34956  0.45270  0.74394  1.0000
  Fe  Fe45      1.0  0.34207  0.32125  0.96364  1.0000
  H   H687      1.0  0.50987  0.45682  0.59699  1.0000
  C   C392      1.0  0.37703  0.42349  0.78685  1.0000
  H   H688      1.0  0.51761  0.04813  0.59633  1.0000
  H   H689      1.0  0.41528  0.09534  0.53385  1.0000
  H   H690      1.0  0.36655  0.09153  0.70703  1.0000
  H   H691      1.0  0.42466  0.43637  0.67371  1.0000
  Fe  Fe46      1.0  0.47180  0.03236  0.70469  1.0000
  H   H692      1.0  0.46359  0.39106  0.61539  1.0000
  H   H693      1.0  0.47524  0.21427  0.94276  1.0000
  S   S90       1.0  0.44184  0.06949  0.68503  1.0000
  C   C393      1.0  0.48627  0.46285  0.59186  1.0000
  H   H694      1.0  0.45188  0.07623  0.57472  1.0000
  C   C394      1.0  0.45337  0.48370  0.54711  1.0000
  C   C395      1.0  0.47809  0.03784  0.56577  1.0000
  H   H695      1.0  0.36959  0.38342  0.83983  1.0000
  H   H696      1.0  0.49535  0.10081  0.50404  1.0000
  C   C396      1.0  0.40686  0.41694  0.72083  1.0000
  C   C397      1.0  0.51723  0.22786  0.96481  1.0000
  H   H697      1.0  0.42632  0.44825  0.75613  1.0000
  H   H698      1.0  0.51913  0.38953  0.96104  1.0000
  H   H699      1.0  0.46915  0.13782  0.52384  1.0000
  H   H700      1.0  0.33223  0.43367  0.80774  1.0000
  H   H701      1.0  0.41375  0.39880  0.73844  1.0000
  H   H702      1.0  0.38167  0.04157  0.72967  1.0000
  H   H703      1.0  0.43510  0.17476  0.54931  1.0000
  H   H704      1.0  0.33978  0.43028  0.73946  1.0000
  C   C398      1.0  0.42976  0.41809  0.69189  1.0000
  N   N21       1.0  0.52190  0.32245  0.88496  1.0000
  C   C399      1.0  0.49284  0.31585  0.86680  1.0000
  C   C400      1.0  0.54267  0.34020  0.86192  1.0000
  C   C401      1.0  0.53683  0.29313  0.89263  1.0000
  C   C402      1.0  0.51698  0.33826  0.91856  1.0000
  C   C403      1.0  0.49886  0.36740  0.91709  1.0000
  C   C404      1.0  0.46970  0.29691  0.88683  1.0000
  C   C405      1.0  0.56808  0.29501  0.90982  1.0000
  C   C406      1.0  0.52833  0.36098  0.83477  1.0000
  C   C407      1.0  0.55191  0.38022  0.81712  1.0000
  S   S91       1.0  0.46806  0.01534  0.75873  1.0000
  C   C408      1.0  0.44141  0.29187  0.86571  1.0000
  C   C409      1.0  0.58412  0.26515  0.90818  1.0000
  H   H705      1.0  0.49752  0.30418  0.84218  1.0000
  H   H706      1.0  0.48116  0.33662  0.85969  1.0000
  H   H707      1.0  0.55833  0.35383  0.87759  1.0000
  H   H708      1.0  0.55724  0.32510  0.84662  1.0000
  H   H709      1.0  0.53884  0.27980  0.86864  1.0000
  H   H710      1.0  0.52321  0.27957  0.91060  1.0000
  H   H711      1.0  0.50574  0.32330  0.93721  1.0000
  H   H712      1.0  0.53878  0.34387  0.93061  1.0000
  H   H713      1.0  0.47576  0.36326  0.90796  1.0000
  H   H714      1.0  0.50989  0.38381  0.90023  1.0000
  H   H715      1.0  0.47853  0.27459  0.89285  1.0000
  H   H716      1.0  0.46313  0.30808  0.91104  1.0000
  H   H717      1.0  0.56558  0.30107  0.93731  1.0000
  H   H718      1.0  0.58282  0.31168  0.89754  1.0000
  H   H719      1.0  0.51711  0.34763  0.81455  1.0000
  H   H720      1.0  0.51158  0.37602  0.84611  1.0000
  H   H721      1.0  0.54113  0.39414  0.79717  1.0000
  H   H722      1.0  0.56283  0.39521  0.83594  1.0000
  H   H723      1.0  0.56908  0.36620  0.80451  1.0000
  H   H724      1.0  0.48289  0.05002  0.61987  1.0000
  H   H725      1.0  0.58969  0.25933  0.88126  1.0000
  Fe  Fe47      1.0  0.40753  0.30304  0.96540  1.0000
  H   H726      1.0  0.42575  0.27745  0.88027  1.0000
  H   H727      1.0  0.42995  0.31314  0.86048  1.0000
  H   H728      1.0  0.44678  0.28073  0.84107  1.0000
  H   H729      1.0  0.47872  0.41990  0.64221  1.0000
  S   S92       1.0  0.43368  0.26081  0.95576  1.0000
  C   C410      1.0  0.42594  0.15480  0.53632  1.0000
  H   H730      1.0  0.53053  0.47601  0.54600  1.0000
  C   C411      1.0  0.48720  0.28017  0.98287  1.0000
  H   H731      1.0  0.40092  0.00209  0.68425  1.0000
  H   H732      1.0  0.51022  0.42705  0.53797  1.0000
  H   H733      1.0  0.52344  0.10931  0.73141  1.0000
  H   H734      1.0  0.56473  0.03938  0.98951  1.0000
  C   C412      1.0  0.35392  0.42460  0.81652  1.0000
  H   H735      1.0  0.52867  0.20763  0.95791  1.0000
  C   C413      1.0  0.46906  0.06987  0.55536  1.0000
  H   H736      1.0  0.36916  0.04735  0.66969  1.0000
  H   H737      1.0  0.57005  0.24727  0.91931  1.0000
  C   C414      1.0  0.49527  0.03778  0.59966  1.0000
  H   H738      1.0  0.49846  0.01466  0.60866  1.0000
  H   H739      1.0  0.47272  0.02192  0.83779  1.0000
  H   H740      1.0  0.44717  0.46174  0.53652  1.0000
  C   C415      1.0  0.47847  0.41079  0.61583  1.0000
  H   H741      1.0  0.39920  0.41927  0.79872  1.0000
  H   H742      1.0  0.45616  0.02363  0.87974  1.0000
  C   C416      1.0  0.34829  0.39375  0.83155  1.0000
  H   H743      1.0  0.48846  0.08482  0.56021  1.0000
  N   N22       1.0  0.48471  0.48353  0.56140  1.0000
  H   H744      1.0  0.40754  0.99473  0.74253  1.0000
  S   S93       1.0  0.35464  0.36898  0.97427  1.0000
  C   C417      1.0  0.35104  0.04845  0.68884  1.0000
  C   C418      1.0  0.58380  0.47086  0.62467  1.0000
  H   H745      1.0  0.45771  0.02408  0.56936  1.0000
  S   S94       1.0  0.57434  0.15798  0.97149  1.0000
  H   H746      1.0  0.37185  0.40324  0.77163  1.0000
  H   H747      1.0  0.44367  0.43926  0.59701  1.0000
  H   H748      1.0  0.49207  0.02671  0.54631  1.0000
  N   N23       1.0  0.37851  0.45042  0.76372  1.0000
  H   H749      1.0  0.47833  0.47438  0.61546  1.0000
  C   C419      1.0  0.47185  0.25766  0.96563  1.0000
  H   H750      1.0  0.42079  0.04386  0.52712  1.0000
  C   C420      1.0  0.44890  0.12978  0.53731  1.0000
  H   H751      1.0  0.45457  0.12603  0.56465  1.0000
  H   H752      1.0  0.48147  0.40105  0.95152  1.0000
  C   C421      1.0  0.46722  0.43396  0.59037  1.0000
  H   H753      1.0  0.40512  0.14806  0.54978  1.0000
  H   H754      1.0  0.36307  0.45338  0.68950  1.0000
  C   C422      1.0  0.49680  0.38171  0.95257  1.0000
  C   C423      1.0  0.50776  0.47541  0.53471  1.0000
  C   C424      1.0  0.48702  0.23167  0.95629  1.0000
  H   H755      1.0  0.60519  0.26641  0.92312  1.0000
  N   N24       1.0  0.36376  0.99794  0.71898  1.0000
  C   C425      1.0  0.60785  0.47507  0.60188  1.0000
  H   H756      1.0  0.34017  0.09305  0.67232  1.0000
  C   C426      1.0  0.34592  0.08129  0.69647  1.0000
  H   H757      1.0  0.47562  0.30024  0.99018  1.0000
  S   S95       1.0  0.42530  0.34883  0.97646  1.0000
  H   H758      1.0  0.33730  0.37914  0.81241  1.0000
  H   H759      1.0  0.42962  0.10755  0.49380  1.0000
  C   C427      1.0  0.38324  0.47731  0.78619  1.0000
  H   H760      1.0  0.36506  0.47944  0.80541  1.0000
  H   H761      1.0  0.39015  0.99457  0.83721  1.0000
  H   H762      1.0  0.33353  0.39556  0.85437  1.0000
  H   H763      1.0  0.34359  0.03676  0.74219  1.0000
  H   H764      1.0  0.55119  0.44376  0.49960  1.0000
  H   H765      1.0  0.45244  0.02759  0.50806  1.0000
  C   C428      1.0  0.37617  0.99977  0.78422  1.0000
  Fe  Fe48      1.0  0.63747  0.39576  0.49828  1.0000
  H   H766      1.0  0.58728  0.99936  0.50432  1.0000
  H   H767      1.0  0.43716  0.48786  0.56834  1.0000
  C   C429      1.0  0.35098  0.46769  0.70801  1.0000
  H   H768      1.0  0.35246  0.99572  0.79080  1.0000
  H   H769      1.0  0.36626  0.99820  0.66321  1.0000
  H   H770      1.0  0.36266  0.48931  0.70848  1.0000
  H   H771      1.0  0.33074  0.03960  0.67658  1.0000
  C   C430      1.0  0.51741  0.27631  0.99150  1.0000
  H   H772      1.0  0.50828  0.49217  0.51382  1.0000
  N   N25       1.0  0.59632  0.89327  0.24431  1.0000
  S   S96       1.0  0.50017  0.96068  0.25784  1.0000
  Fe  Fe49      1.0  0.51915  0.50020  0.25399  1.0000
  Fe  Fe50      1.0  0.50013  0.96379  0.20001  1.0000
  S   S97       1.0  0.50150  0.92530  0.16184  1.0000
  H   H773      1.0  0.44151  0.66777  0.04401  1.0000
  Fe  Fe51      1.0  0.39112  0.85386  0.01848  1.0000
  S   S98       1.0  0.39342  0.88187  0.06743  1.0000
  S   S99       1.0  0.37257  0.80727  0.01348  1.0000
  Fe  Fe52      1.0  0.34417  0.60855  0.42504  1.0000
  H   H774      1.0  0.55865  0.91170  0.44701  1.0000
  S   S100      1.0  0.37616  0.60780  0.37938  1.0000
  C   C431      1.0  0.44309  0.65732  0.14046  1.0000
  C   C432      1.0  0.62502  0.93674  0.21486  1.0000
  C   C433      1.0  0.49379  0.96222  0.04311  1.0000
  C   C434      1.0  0.39919  0.53475  0.30109  1.0000
  C   C435      1.0  0.41347  0.56234  0.30025  1.0000
  C   C436      1.0  0.40589  0.58440  0.32426  1.0000
  C   C437      1.0  0.38420  0.57912  0.34963  1.0000
  C   C438      1.0  0.37001  0.55145  0.35069  1.0000
  C   C439      1.0  0.37728  0.52947  0.32628  1.0000
  H   H775      1.0  0.43015  0.56682  0.28085  1.0000
  H   H776      1.0  0.41690  0.60578  0.32315  1.0000
  H   H777      1.0  0.35342  0.54708  0.37021  1.0000
  S   S101      1.0  0.53016  0.50187  0.19731  1.0000
  C   C440      1.0  0.47169  0.91490  0.13426  1.0000
  C   C441      1.0  0.47685  0.89393  0.10817  1.0000
  C   C442      1.0  0.45343  0.88421  0.08667  1.0000
  C   C443      1.0  0.42447  0.89510  0.09142  1.0000
  C   C444      1.0  0.41951  0.91650  0.11710  1.0000
  C   C445      1.0  0.44298  0.92651  0.13825  1.0000
  H   H778      1.0  0.49898  0.88482  0.10487  1.0000
  H   H779      1.0  0.45755  0.86771  0.06710  1.0000
  H   H780      1.0  0.39719  0.92499  0.12104  1.0000
  H   H781      1.0  0.43863  0.94256  0.15824  1.0000
  Fe  Fe53      1.0  0.49701  0.53906  0.19359  1.0000
  H   H782      1.0  0.46491  0.91524  0.01001  1.0000
  S   S102      1.0  0.49887  0.57828  0.15651  1.0000
  H   H783      1.0  0.55683  0.96776  0.06229  1.0000
  H   H784      1.0  0.51077  0.96065  0.46082  1.0000
  S   S103      1.0  0.48917  0.54042  0.25075  1.0000
  Fe  Fe54      1.0  0.61252  0.64900  0.02237  1.0000
  S   S104      1.0  0.61250  0.62370  0.07292  1.0000
  S   S105      1.0  0.63094  0.69526  0.01611  1.0000
  Fe  Fe55      1.0  0.64448  0.88432  0.43854  1.0000
  N   N26       1.0  0.47844  0.54105  0.37815  1.0000
  S   S106      1.0  0.60536  0.89013  0.40146  1.0000
  C   C446      1.0  0.44265  0.55494  0.42793  1.0000
  C   C447      1.0  0.45564  0.51770  0.36858  1.0000
  C   C448      1.0  0.54670  0.52991  0.44006  1.0000
  C   C449      1.0  0.58559  0.96390  0.32303  1.0000
  C   C450      1.0  0.56443  0.94197  0.33041  1.0000
  C   C451      1.0  0.57085  0.91972  0.35465  1.0000
  C   C452      1.0  0.59815  0.91953  0.37243  1.0000
  C   C453      1.0  0.61894  0.94203  0.36593  1.0000
  C   C454      1.0  0.61272  0.96400  0.34119  1.0000
  H   H785      1.0  0.54330  0.94188  0.31704  1.0000
  H   H786      1.0  0.55458  0.90246  0.35959  1.0000
  H   H787      1.0  0.64005  0.94214  0.37939  1.0000
  H   H788      1.0  0.57275  0.58660  0.01906  1.0000
  C   C455      1.0  0.58052  0.61010  0.09468  1.0000
  C   C456      1.0  0.58434  0.59140  0.12321  1.0000
  C   C457      1.0  0.55956  0.58085  0.14193  1.0000
  C   C458      1.0  0.53068  0.58918  0.13246  1.0000
  C   C459      1.0  0.52682  0.60726  0.10341  1.0000
  C   C460      1.0  0.55158  0.61772  0.08459  1.0000
  H   H789      1.0  0.60666  0.58536  0.13115  1.0000
  H   H790      1.0  0.56287  0.56693  0.16418  1.0000
  H   H791      1.0  0.50455  0.61289  0.09526  1.0000
  H   H792      1.0  0.54836  0.63174  0.06243  1.0000
  H   H793      1.0  0.48754  0.94322  0.06003  1.0000
  H   H794      1.0  0.52021  0.51706  0.38117  1.0000
  C   C461      1.0  0.64482  0.77839  0.01376  1.0000
  H   H795      1.0  0.64056  0.89777  0.26679  1.0000
  C   C462      1.0  0.46649  0.49305  0.34369  1.0000
  H   H796      1.0  0.47518  0.98176  0.99583  1.0000
  C   C463      1.0  0.54523  0.96290  0.08667  1.0000
  S   S107      1.0  0.63696  0.84835  0.47765  1.0000
  H   H797      1.0  0.50170  0.53642  0.32966  1.0000
  H   H798      1.0  0.49833  0.65968  0.05233  1.0000
  C   C464      1.0  0.57494  0.56581  0.00398  1.0000
  H   H799      1.0  0.46887  0.63015  0.00986  1.0000
  C   C465      1.0  0.43417  0.58089  0.45124  1.0000
  H   H800      1.0  0.61195  0.91389  0.29107  1.0000
  C   C466      1.0  0.46210  0.65158  0.99816  1.0000
  C   C467      1.0  0.51081  0.51444  0.08983  1.0000
  H   H801      1.0  0.47802  0.58245  0.40689  1.0000
  H   H802      1.0  0.49994  0.98393  0.40245  1.0000
  H   H803      1.0  0.44502  0.63417  0.15004  1.0000
  H   H804      1.0  0.56629  0.96977  0.41487  1.0000
  H   H805      1.0  0.55841  0.95633  0.13977  1.0000
  H   H806      1.0  0.56451  0.86350  0.26852  1.0000
  H   H807      1.0  0.50338  0.60030  0.30040  1.0000
  H   H808      1.0  0.55732  0.54375  0.46022  1.0000
  H   H809      1.0  0.54052  0.50817  0.45146  1.0000
  H   H810      1.0  0.53989  0.60913  0.31701  1.0000
  H   H811      1.0  0.64115  0.84661  0.34022  1.0000
  N   N27       1.0  0.53788  0.50914  0.06754  1.0000
  H   H812      1.0  0.44745  0.96590  0.02419  1.0000
  H   H813      1.0  0.41044  0.52002  0.48505  1.0000
  C   C468      1.0  0.65207  0.49517  0.33076  1.0000
  H   H814      1.0  0.61661  0.49948  0.41983  1.0000
  H   H815      1.0  0.53339  0.57346  0.29762  1.0000
  H   H816      1.0  0.53515  0.56943  0.36031  1.0000
  H   H817      1.0  0.59287  0.72328  0.07163  1.0000
  H   H818      1.0  0.64670  0.85047  0.23744  1.0000
  C   C469      1.0  0.63868  0.86268  0.21454  1.0000
  H   H819      1.0  0.58496  0.49976  0.07469  1.0000
  H   H820      1.0  0.53341  0.85692  0.48420  1.0000
  S   S108      1.0  0.33825  0.57164  0.46330  1.0000
  H   H821      1.0  0.56874  0.52225  0.10730  1.0000
  H   H822      1.0  0.42153  0.54511  0.41809  1.0000
  H   H823      1.0  0.45435  0.59063  0.46339  1.0000
  H   H824      1.0  0.63162  0.82196  0.18532  1.0000
  C   C470      1.0  0.61608  0.86672  0.29867  1.0000
  C   C471      1.0  0.53972  0.88817  0.23090  1.0000
  H   H825      1.0  0.54521  0.55663  0.06687  1.0000
  H   H826      1.0  0.44711  0.50634  0.39196  1.0000
  C   C472      1.0  0.56534  0.88628  0.25754  1.0000
  C   C473      1.0  0.47038  0.96330  0.01382  1.0000
  H   H827      1.0  0.62463  0.53094  0.44678  1.0000
  H   H828      1.0  0.63620  0.50623  0.34846  1.0000
  H   H829      1.0  0.65514  0.53290  0.39378  1.0000
  C   C474      1.0  0.49072  0.55388  0.34525  1.0000
  H   H830      1.0  0.49251  0.87839  0.22604  1.0000
  H   H831      1.0  0.52637  0.56738  0.41573  1.0000
  H   H832      1.0  0.51523  0.95581  0.03104  1.0000
  C   C475      1.0  0.55772  0.86172  0.48516  1.0000
  H   H833      1.0  0.63988  0.49516  0.45748  1.0000
  H   H834      1.0  0.65368  0.79697  0.06442  1.0000
  H   H835      1.0  0.50402  0.88762  0.26900  1.0000
  H   H836      1.0  0.47212  0.56255  0.32917  1.0000
  H   H837      1.0  0.59538  0.94666  0.45374  1.0000
  H   H838      1.0  0.51294  0.85159  0.25103  1.0000
  H   H839      1.0  0.64230  0.93730  0.23514  1.0000
  H   H840      1.0  0.45048  0.69584  0.01295  1.0000
  C   C476      1.0  0.48318  0.52724  0.07090  1.0000
  C   C477      1.0  0.63399  0.51016  0.43593  1.0000
  S   S109      1.0  0.65628  0.91872  0.47808  1.0000
  H   H841      1.0  0.55942  0.90146  0.27897  1.0000
  N   N28       1.0  0.48868  0.70332  0.07296  1.0000
  C   C478      1.0  0.51904  0.70311  0.08977  1.0000
  C   C479      1.0  0.46551  0.69513  0.09944  1.0000
  C   C480      1.0  0.48912  0.68137  0.04374  1.0000
  C   C481      1.0  0.48129  0.73359  0.05884  1.0000
  C   C482      1.0  0.48126  0.75939  0.08522  1.0000
  C   C483      1.0  0.54506  0.71649  0.06839  1.0000
  H   H842      1.0  0.63639  0.76080  0.06461  1.0000
  C   C484      1.0  0.46720  0.66298  0.11350  1.0000
  S   S110      1.0  0.35670  0.64215  0.46508  1.0000
  C   C485      1.0  0.47681  0.78932  0.06754  1.0000
  H   H843      1.0  0.43537  0.53243  0.07731  1.0000
  H   H844      1.0  0.59617  0.86802  0.31566  1.0000
  H   H845      1.0  0.51845  0.71486  0.11487  1.0000
  H   H846      1.0  0.46744  0.70995  0.12216  1.0000
  H   H847      1.0  0.44258  0.69897  0.08935  1.0000
  H   H848      1.0  0.50465  0.68899  0.02331  1.0000
  H   H849      1.0  0.49666  0.73940  0.03750  1.0000
  H   H850      1.0  0.45867  0.73358  0.04708  1.0000
  H   H851      1.0  0.50250  0.76054  0.09971  1.0000
  H   H852      1.0  0.46264  0.75657  0.10375  1.0000
  H   H853      1.0  0.50711  0.97483  0.11622  1.0000
  H   H854      1.0  0.54186  0.74064  0.06432  1.0000
  H   H855      1.0  0.62212  0.78816  0.01273  1.0000
  C   C486      1.0  0.61709  0.89426  0.27479  1.0000
  H   H856      1.0  0.48909  0.65886  0.12589  1.0000
  C   C487      1.0  0.57491  0.71238  0.08669  1.0000
  H   H857      1.0  0.44584  0.67262  0.16257  1.0000
  C   C488      1.0  0.51910  0.54570  0.42606  1.0000
  H   H858      1.0  0.49631  0.79460  0.05103  1.0000
  H   H859      1.0  0.45620  0.78915  0.05166  1.0000
  H   H860      1.0  0.47464  0.80711  0.08710  1.0000
  H   H861      1.0  0.44719  0.57764  0.37971  1.0000
  S   S111      1.0  0.57972  0.99049  0.29018  1.0000
  H   H862      1.0  0.58541  0.93986  0.24658  1.0000
  H   H863      1.0  0.45656  0.53690  0.11612  1.0000
  H   H864      1.0  0.42050  0.66026  0.12924  1.0000
  C   C489      1.0  0.60493  0.86995  0.21821  1.0000
  H   H865      1.0  0.51639  0.53020  0.11085  1.0000
  H   H866      1.0  0.57654  0.51855  0.01159  1.0000
  H   H867      1.0  0.45047  0.50017  0.09832  1.0000
  C   C490      1.0  0.52321  0.59109  0.31376  1.0000
  H   H868      1.0  0.58731  0.94900  0.10893  1.0000
  H   H869      1.0  0.50628  0.59739  0.36455  1.0000
  H   H870      1.0  0.54696  0.70569  0.04296  1.0000
  C   C491      1.0  0.54233  0.96541  0.41993  1.0000
  C   C492      1.0  0.54445  0.53771  0.04856  1.0000
  C   C493      1.0  0.64301  0.50354  0.29426  1.0000
  C   C494      1.0  0.62097  0.96861  0.20231  1.0000
  H   H871      1.0  0.52491  0.91098  0.47021  1.0000
  H   H872      1.0  0.52568  0.67997  0.09618  1.0000
  H   H873      1.0  0.59388  0.84836  0.22412  1.0000
  C   C495      1.0  0.64366  0.86514  0.32166  1.0000
  S   S112      1.0  0.45728  0.50936  0.18443  1.0000
  H   H874      1.0  0.61455  0.84580  0.28380  1.0000
  H   H875      1.0  0.47970  0.51618  0.04581  1.0000
  H   H876      1.0  0.36612  0.50820  0.32719  1.0000
  H   H877      1.0  0.53682  0.94301  0.40996  1.0000
  H   H878      1.0  0.46389  0.64649  0.09278  1.0000
  C   C496      1.0  0.51450  0.57862  0.34883  1.0000
  H   H879      1.0  0.54526  0.87586  0.20710  1.0000
  C   C497      1.0  0.50294  0.52638  0.39877  1.0000
  C   C498      1.0  0.51058  0.87560  0.24529  1.0000
  Fe  Fe56      1.0  0.45245  0.50764  0.24187  1.0000
  C   C499      1.0  0.46230  0.56532  0.39739  1.0000
  C   C500      1.0  0.58632  0.95583  0.47819  1.0000
  H   H880      1.0  0.53529  0.99094  0.46686  1.0000
  H   H881      1.0  0.49420  0.50675  0.41299  1.0000
  C   C501      1.0  0.59516  0.92370  0.22809  1.0000
  C   C502      1.0  0.57394  0.53873  0.02760  1.0000
  H   H882      1.0  0.48650  0.55134  0.06615  1.0000
  H   H883      1.0  0.57433  0.72257  0.11261  1.0000
  H   H884      1.0  0.50401  0.55015  0.44804  1.0000
  H   H885      1.0  0.64261  0.97742  0.19277  1.0000
  H   H886      1.0  0.53539  0.91167  0.22420  1.0000
  H   H887      1.0  0.59627  0.87620  0.19242  1.0000
  H   H888      1.0  0.42246  0.59837  0.43634  1.0000
  H   H889      1.0  0.58006  0.92374  0.20545  1.0000
  H   H890      1.0  0.37896  0.50343  0.17659  1.0000
  C   C503      1.0  0.51892  0.98454  0.09370  1.0000
  H   H891      1.0  0.64488  0.52788  0.29033  1.0000
  H   H892      1.0  0.41888  0.57318  0.47184  1.0000
  H   H893      1.0  0.59341  0.54062  0.04511  1.0000
  H   H894      1.0  0.58036  0.68840  0.08905  1.0000
  C   C504      1.0  0.45470  0.52387  0.09208  1.0000
  H   H895      1.0  0.53667  0.93975  0.08531  1.0000
  H   H896      1.0  0.45421  0.53790  0.44348  1.0000
  C   C505      1.0  0.53463  0.96730  0.45869  1.0000
  H   H897      1.0  0.64639  0.88604  0.33644  1.0000
  H   H898      1.0  0.60454  0.96949  0.18105  1.0000
  C   C506      1.0  0.56440  0.50280  0.09026  1.0000
  H   H899      1.0  0.43578  0.52824  0.35670  1.0000
  H   H900      1.0  0.46755  0.50189  0.31713  1.0000
  H   H901      1.0  0.52618  0.54285  0.03021  1.0000
  C   C507      1.0  0.45880  0.67548  0.02572  1.0000
  H   H902      1.0  0.65262  0.88281  0.21193  1.0000
  C   C508      1.0  0.65319  0.77501  0.05153  1.0000
  C   C509      1.0  0.64446  0.84302  0.18330  1.0000
  S   S113      1.0  0.40869  0.50628  0.27167  1.0000
  C   C510      1.0  0.59475  0.98925  0.47988  1.0000
  H   H903      1.0  0.33174  0.95318  0.39595  1.0000
  S   S114      1.0  0.54828  0.50003  0.30238  1.0000
  C   C511      1.0  0.56845  0.96397  0.11529  1.0000
  H   H904      1.0  0.63311  0.92368  0.19264  1.0000
  H   H905      1.0  0.56326  0.52630  0.41925  1.0000
  H   H906      1.0  0.56759  0.85831  0.45930  1.0000
  C   C512      1.0  0.47041  0.93442  0.99321  1.0000
  H   H907      1.0  0.62922  0.98092  0.33573  1.0000
  H   H908      1.0  0.50381  0.49396  0.10342  1.0000
  C   C513      1.0  0.54906  0.91631  0.47280  1.0000
  N   N29       1.0  0.55358  0.94852  0.48205  1.0000
  H   H909      1.0  0.64383  0.75589  0.00258  1.0000
  H   H910      1.0  0.45769  0.97646  0.09254  1.0000
  H   H911      1.0  0.61946  0.49691  0.28967  1.0000
  H   H912      1.0  0.63804  0.85472  0.15936  1.0000
  C   C514      1.0  0.66164  0.51736  0.41450  1.0000
  H   H913      1.0  0.61322  0.98312  0.22355  1.0000
  H   H914      1.0  0.63735  0.98401  0.45325  1.0000
  C   C515      1.0  0.52427  0.98784  0.39917  1.0000
  H   H915      1.0  0.57733  0.98684  0.11849  1.0000
  N   N30       1.0  0.49719  0.98995  0.06459  1.0000
  H   H916      1.0  0.52977  0.98553  0.37151  1.0000
  H   H917      1.0  0.52371  0.49349  0.01739  1.0000
  H   H918      1.0  0.58937  0.49280  0.15480  1.0000
  H   H919      1.0  0.50683  0.56161  0.61587  1.0000
  H   H920      1.0  0.53130  0.56329  0.57893  1.0000
  S   S115      1.0  0.38005  0.81629  0.92912  1.0000
  Fe  Fe57      1.0  0.46800  0.50908  0.68982  1.0000
  Fe  Fe58      1.0  0.39836  0.86187  0.94065  1.0000
  S   S116      1.0  0.42248  0.89771  0.90933  1.0000
  H   H921      1.0  0.54600  0.55324  0.62031  1.0000
  C   C516      1.0  0.38979  0.73436  0.64497  1.0000
  S   S117      1.0  0.64062  0.63172  0.97893  1.0000
  H   H922      1.0  0.41410  0.73651  0.65006  1.0000
  H   H923      1.0  0.38990  0.96068  0.81292  1.0000
  Fe  Fe59      1.0  0.47531  0.97019  0.73625  1.0000
  S   S118      1.0  0.44489  0.93185  0.75238  1.0000
  C   C517      1.0  0.37253  0.70659  0.52911  1.0000
  H   H924      1.0  0.36948  0.60345  0.64898  1.0000
  S   S119      1.0  0.38554  0.60401  0.54424  1.0000
  C   C518      1.0  0.41612  0.53443  0.62365  1.0000
  C   C519      1.0  0.39164  0.52838  0.60211  1.0000
  C   C520      1.0  0.38210  0.54919  0.57738  1.0000
  C   C521      1.0  0.39700  0.57633  0.57393  1.0000
  C   C522      1.0  0.42157  0.58228  0.59536  1.0000
  C   C523      1.0  0.43107  0.56152  0.62009  1.0000
  H   H925      1.0  0.37885  0.72554  0.66844  1.0000
  H   H926      1.0  0.36310  0.54434  0.56120  1.0000
  H   H927      1.0  0.43320  0.60323  0.59302  1.0000
  H   H928      1.0  0.44986  0.56655  0.63651  1.0000
  C   C524      1.0  0.42833  0.90611  0.86534  1.0000
  C   C525      1.0  0.44992  0.92759  0.85682  1.0000
  C   C526      1.0  0.45540  0.93546  0.82242  1.0000
  C   C527      1.0  0.43914  0.92205  0.79603  1.0000
  C   C528      1.0  0.41754  0.90049  0.80449  1.0000
  C   C529      1.0  0.41217  0.89249  0.83897  1.0000
  H   H929      1.0  0.46249  0.93833  0.87701  1.0000
  H   H930      1.0  0.47206  0.95209  0.81636  1.0000
  H   H931      1.0  0.40477  0.89007  0.78428  1.0000
  H   H932      1.0  0.39530  0.87614  0.84516  1.0000
  N   N31       1.0  0.63791  0.59986  0.80631  1.0000
  H   H933      1.0  0.52111  0.93267  0.58125  1.0000
  H   H934      1.0  0.40101  0.94796  0.69869  1.0000
  C   C530      1.0  0.37908  0.99023  0.68567  1.0000
  S   S120      1.0  0.61749  0.68691  0.93295  1.0000
  C   C531      1.0  0.36576  0.68065  0.55416  1.0000
  H   H935      1.0  0.60054  0.56944  0.80354  1.0000
  H   H936      1.0  0.62225  0.49417  0.60500  1.0000
  Fe  Fe60      1.0  0.60036  0.64118  0.94611  1.0000
  S   S121      1.0  0.58751  0.60081  0.91370  1.0000
  H   H937      1.0  0.45327  0.93555  0.97266  1.0000
  Fe  Fe61      1.0  0.50644  0.53602  0.74783  1.0000
  C   C532      1.0  0.36005  0.64399  0.62095  1.0000
  S   S122      1.0  0.51111  0.57947  0.77773  1.0000
  H   H938      1.0  0.39443  0.55391  0.77899  1.0000
  H   H939      1.0  0.33824  0.95771  0.72679  1.0000
  S   S123      1.0  0.50774  0.53950  0.69009  1.0000
  H   H940      1.0  0.51980  0.88363  0.94902  1.0000
  S   S124      1.0  0.62316  0.88301  0.56604  1.0000
  C   C533      1.0  0.57476  0.95995  0.62096  1.0000
  C   C534      1.0  0.59446  0.96587  0.59360  1.0000
  C   C535      1.0  0.60965  0.94269  0.57664  1.0000
  C   C536      1.0  0.60499  0.91323  0.58660  1.0000
  C   C537      1.0  0.58532  0.90734  0.61395  1.0000
  C   C538      1.0  0.57032  0.93052  0.63109  1.0000
  C   C539      1.0  0.39401  0.53228  0.79264  1.0000
  H   H941      1.0  0.62506  0.94761  0.55604  1.0000
  H   H942      1.0  0.58169  0.88465  0.62198  1.0000
  H   H943      1.0  0.55526  0.92561  0.65204  1.0000
  H   H944      1.0  0.62464  0.82798  0.97486  1.0000
  H   H945      1.0  0.64384  0.54897  0.89661  1.0000
  H   H946      1.0  0.37190  0.72843  0.54216  1.0000
  C   C540      1.0  0.53115  0.58483  0.81652  1.0000
  C   C541      1.0  0.54500  0.56132  0.83357  1.0000
  C   C542      1.0  0.56143  0.56664  0.86377  1.0000
  C   C543      1.0  0.56427  0.59546  0.87731  1.0000
  C   C544      1.0  0.55005  0.61894  0.86058  1.0000
  C   C545      1.0  0.53359  0.61361  0.83033  1.0000
  H   H947      1.0  0.54320  0.53907  0.82337  1.0000
  H   H948      1.0  0.57233  0.54832  0.87652  1.0000
  H   H949      1.0  0.55197  0.64119  0.87073  1.0000
  H   H950      1.0  0.52280  0.63192  0.81742  1.0000
  H   H951      1.0  0.50673  0.92284  0.52162  1.0000
  H   H952      1.0  0.48349  0.94507  0.57366  1.0000
  C   C546      1.0  0.62445  0.83382  0.92079  1.0000
  C   C547      1.0  0.51212  0.94607  0.52859  1.0000
  H   H953      1.0  0.38075  0.75674  0.63916  1.0000
  H   H954      1.0  0.37989  0.50750  0.60462  1.0000
  Fe  Fe62      1.0  0.34853  0.60595  0.50365  1.0000
  H   H955      1.0  0.39967  0.50800  0.74594  1.0000
  C   C548      1.0  0.62015  0.57621  0.78776  1.0000
  S   S125      1.0  0.47514  0.98703  0.68157  1.0000
  H   H956      1.0  0.66131  0.72468  0.89487  1.0000
  S   S126      1.0  0.57239  0.74763  0.98203  1.0000
  C   C549      1.0  0.38479  0.71337  0.61473  1.0000
  H   H957      1.0  0.65006  0.54095  0.83385  1.0000
  H   H958      1.0  0.41925  0.98776  0.80624  1.0000
  S   S127      1.0  0.52545  0.97174  0.74050  1.0000
  H   H959      1.0  0.39739  0.72246  0.59260  1.0000
  H   H960      1.0  0.61683  0.69040  0.80810  1.0000
  H   H961      1.0  0.60304  0.53883  0.73375  1.0000
  H   H962      1.0  0.59512  0.62227  0.80833  1.0000
  C   C550      1.0  0.33435  0.98192  0.72329  1.0000
  H   H963      1.0  0.36466  0.65805  0.64370  1.0000
  C   C551      1.0  0.51953  0.77774  0.98257  1.0000
  H   H964      1.0  0.38456  0.96331  0.74954  1.0000
  C   C552      1.0  0.38412  0.50779  0.76798  1.0000
  H   H965      1.0  0.40371  0.92787  0.64036  1.0000
  H   H966      1.0  0.48000  0.87859  0.94636  1.0000
  H   H967      1.0  0.58687  0.85399  0.89459  1.0000
  N   N32       1.0  0.34212  0.68669  0.58084  1.0000
  H   H968      1.0  0.54287  0.74753  0.86034  1.0000
  C   C553      1.0  0.39509  0.98475  0.81172  1.0000
  C   C554      1.0  0.59102  0.83990  0.91745  1.0000
  C   C555      1.0  0.54460  0.95450  0.51870  1.0000
  H   H969      1.0  0.58111  0.56573  0.71077  1.0000
  H   H970      1.0  0.47905  0.65826  0.97880  1.0000
  H   H971      1.0  0.34437  0.73296  0.59611  1.0000
  Fe  Fe63      1.0  0.40836  0.80129  0.97337  1.0000
  N   N33       1.0  0.48432  0.81967  0.86133  1.0000
  C   C556      1.0  0.45895  0.79785  0.85689  1.0000
  C   C557      1.0  0.51340  0.80289  0.85937  1.0000
  C   C558      1.0  0.48059  0.83471  0.89563  1.0000
  C   C559      1.0  0.48419  0.84293  0.83353  1.0000
  C   C560      1.0  0.48669  0.83101  0.79630  1.0000
  C   C561      1.0  0.42773  0.81147  0.84989  1.0000
  C   C562      1.0  0.50529  0.85730  0.90553  1.0000
  C   C563      1.0  0.52021  0.78192  0.88988  1.0000
  C   C564      1.0  0.54743  0.76252  0.88234  1.0000
  C   C565      1.0  0.48206  0.85577  0.77011  1.0000
  C   C566      1.0  0.40382  0.78728  0.84797  1.0000
  H   H972      1.0  0.33842  0.70792  0.63034  1.0000
  H   H973      1.0  0.45657  0.78382  0.88028  1.0000
  H   H974      1.0  0.46375  0.78190  0.83581  1.0000
  H   H975      1.0  0.51392  0.78899  0.83577  1.0000
  H   H976      1.0  0.53261  0.81841  0.85653  1.0000
  H   H977      1.0  0.47841  0.81799  0.91651  1.0000
  H   H978      1.0  0.45929  0.84723  0.89644  1.0000
  H   H979      1.0  0.46412  0.85729  0.83575  1.0000
  H   H980      1.0  0.50335  0.85842  0.83674  1.0000
  H   H981      1.0  0.47000  0.81344  0.79095  1.0000
  H   H982      1.0  0.50929  0.82166  0.79185  1.0000
  H   H983      1.0  0.42126  0.82718  0.87041  1.0000
  H   H984      1.0  0.42733  0.82358  0.82514  1.0000
  H   H985      1.0  0.50377  0.87739  0.88914  1.0000
  H   H986      1.0  0.52785  0.84770  0.90270  1.0000
  H   H987      1.0  0.52510  0.79503  0.91327  1.0000
  H   H988      1.0  0.50112  0.76697  0.89544  1.0000
  H   H989      1.0  0.42067  0.96408  0.64186  1.0000
  H   H990      1.0  0.58257  0.85172  0.94049  1.0000
  H   H991      1.0  0.55260  0.74857  0.90501  1.0000
  H   H992      1.0  0.49717  0.87485  0.77526  1.0000
  H   H993      1.0  0.48673  0.84736  0.74389  1.0000
  H   H994      1.0  0.45859  0.86356  0.77079  1.0000
  H   H995      1.0  0.38161  0.79762  0.84385  1.0000
  H   H996      1.0  0.40844  0.77192  0.82634  1.0000
  H   H997      1.0  0.40299  0.77442  0.87227  1.0000
  H   H998      1.0  0.47272  0.71006  0.95322  1.0000
  H   H999      1.0  0.63224  0.82369  0.89660  1.0000
  H   H1000     1.0  0.54039  0.50947  0.58294  1.0000
  H   H1001     1.0  0.63367  0.55579  0.78412  1.0000
  C   C567      1.0  0.35077  0.61343  0.63431  1.0000
  H   H1002     1.0  0.61522  0.64008  0.86134  1.0000
  C   C568      1.0  0.51678  0.72619  0.96549  1.0000
  H   H1003     1.0  0.66199  0.61344  0.76086  1.0000
  C   C569      1.0  0.49164  0.51461  0.57368  1.0000
  C   C570      1.0  0.60819  0.58458  0.75160  1.0000
  H   H1004     1.0  0.39497  0.69179  0.62125  1.0000
  S   S128      1.0  0.36079  0.87171  0.97737  1.0000
  H   H1005     1.0  0.38702  0.67351  0.56605  1.0000
  C   C571      1.0  0.47149  0.75591  0.96865  1.0000
  C   C572      1.0  0.52028  0.51843  0.59576  1.0000
  S   S129      1.0  0.46406  0.50874  0.74751  1.0000
  C   C573      1.0  0.38522  0.95683  0.67940  1.0000
  Fe  Fe64      1.0  0.34481  0.82430  0.96966  1.0000
  H   H1006     1.0  0.56730  0.77638  0.87649  1.0000
  C   C574      1.0  0.52635  0.55120  0.60308  1.0000
  H   H1007     1.0  0.36426  0.94373  0.68043  1.0000
  Fe  Fe65      1.0  0.65086  0.88219  0.51675  1.0000
  H   H1008     1.0  0.47274  0.52321  0.58938  1.0000
  H   H1009     1.0  0.63987  0.98295  0.49963  1.0000
  C   C575      1.0  0.48577  0.72894  0.96156  1.0000
  C   C576      1.0  0.33489  0.65801  0.59914  1.0000
  C   C577      1.0  0.38403  0.98798  0.74781  1.0000
  C   C578      1.0  0.40303  0.70300  0.51201  1.0000
  H   H1010     1.0  0.50359  0.84835  0.96050  1.0000
  H   H1011     1.0  0.55995  0.94303  0.53667  1.0000
  H   H1012     1.0  0.38092  0.64103  0.60615  1.0000
  H   H1013     1.0  0.38385  0.95944  0.62350  1.0000
  H   H1014     1.0  0.59933  0.94465  0.49871  1.0000
  H   H1015     1.0  0.55393  0.89516  0.52376  1.0000
  H   H1016     1.0  0.46283  0.50509  0.49730  1.0000
  H   H1017     1.0  0.52759  0.70525  0.96015  1.0000
  C   C579      1.0  0.60791  0.67908  0.83124  1.0000
  H   H1018     1.0  0.51777  0.50697  0.62077  1.0000
  C   C580      1.0  0.50730  0.94914  0.56723  1.0000
  H   H1019     1.0  0.62681  0.58898  0.73355  1.0000
  H   H1020     1.0  0.42114  0.70445  0.53137  1.0000
  C   C581      1.0  0.58953  0.55935  0.73651  1.0000
  H   H1021     1.0  0.59363  0.60445  0.75257  1.0000
  C   C582      1.0  0.50189  0.86748  0.94267  1.0000
  Fe  Fe66      1.0  0.65553  0.67895  0.96972  1.0000
  H   H1022     1.0  0.64808  0.65492  0.84176  1.0000
  H   H1023     1.0  0.56999  0.55469  0.75320  1.0000
  H   H1024     1.0  0.49398  0.53000  0.55153  1.0000
  H   H1025     1.0  0.59818  0.98858  0.58569  1.0000
  H   H1026     1.0  0.62158  0.58507  0.85526  1.0000
  C   C583      1.0  0.63099  0.81399  0.95241  1.0000
  C   C584      1.0  0.39919  0.95188  0.64408  1.0000
  S   S130      1.0  0.42724  0.50739  0.65431  1.0000
  S   S131      1.0  0.43241  0.75769  0.96580  1.0000
  H   H1027     1.0  0.64865  0.75692  0.94742  1.0000
  H   H1028     1.0  0.62221  0.64047  0.78259  1.0000
  H   H1029     1.0  0.49603  0.96102  0.51563  1.0000
  H   H1030     1.0  0.34531  0.59835  0.61265  1.0000
  H   H1031     1.0  0.39835  0.50402  0.52491  1.0000
  H   H1032     1.0  0.35893  0.66147  0.53796  1.0000
  Fe  Fe67      1.0  0.53582  0.49814  0.69200  1.0000
  S   S132      1.0  0.42918  0.84587  0.98233  1.0000
  H   H1033     1.0  0.63585  0.85561  0.92369  1.0000
  C   C585      1.0  0.41534  0.50251  0.50420  1.0000
  H   H1034     1.0  0.49251  0.93076  0.98100  1.0000
  C   C586      1.0  0.62426  0.64981  0.83731  1.0000
  H   H1035     1.0  0.47759  0.80123  0.98442  1.0000
  S   S133      1.0  0.57738  0.49711  0.65790  1.0000
  H   H1036     1.0  0.41684  0.52782  0.80248  1.0000
  H   H1037     1.0  0.57849  0.81879  0.91445  1.0000
  C   C587      1.0  0.64332  0.58891  0.84236  1.0000
  H   H1038     1.0  0.37833  0.53397  0.81464  1.0000
  H   H1039     1.0  0.36144  0.51365  0.75877  1.0000
  H   H1040     1.0  0.65472  0.60583  0.85833  1.0000
  H   H1041     1.0  0.35547  0.70696  0.50848  1.0000
  H   H1042     1.0  0.33103  0.61524  0.65143  1.0000
  Fe  Fe68      1.0  0.59248  0.70167  0.97991  1.0000
  H   H1043     1.0  0.40445  0.68126  0.49868  1.0000
  H   H1044     1.0  0.64087  0.77603  0.89103  1.0000
  H   H1045     1.0  0.44768  0.52978  0.52941  1.0000
  H   H1046     1.0  0.51351  0.97173  0.57609  1.0000
  H   H1047     1.0  0.58359  0.67508  0.82798  1.0000
  C   C588      1.0  0.61935  0.62794  0.80699  1.0000
  H   H1048     1.0  0.61475  0.79517  0.95238  1.0000
  C   C589      1.0  0.44673  0.50692  0.51879  1.0000
  C   C590      1.0  0.35103  0.71070  0.60591  1.0000
  H   H1049     1.0  0.55683  0.56478  0.98457  1.0000
  H   H1050     1.0  0.54711  0.97843  0.52492  1.0000
  H   H1051     1.0  0.58785  0.89665  0.49904  1.0000
  S   S134      1.0  0.53713  0.49653  0.74991  1.0000
  H   H1052     1.0  0.44042  0.64833  0.98486  1.0000
  S   S135      1.0  0.55569  0.99006  0.64069  1.0000
  C   C591      1.0  0.53366  0.75053  0.97630  1.0000
  C   C592      1.0  0.48847  0.78043  0.97879  1.0000
  C   C593      1.0  0.56334  0.89340  0.49752  1.0000
  H   H1053     1.0  0.56836  0.84585  0.50318  1.0000
  H   H1054     1.0  0.61116  0.69393  0.85366  1.0000
  S   S136      1.0  0.57179  0.65685  0.99023  1.0000
  H   H1055     1.0  0.53257  0.79666  0.99084  1.0000
  H   H1056     1.0  0.59666  0.56654  0.99020  1.0000
  H   H1057     1.0  0.40635  0.72088  0.49279  1.0000
  C   C594      1.0  0.66166  0.55996  0.84605  1.0000
  N   N34       1.0  0.66249  0.80243  0.95656  1.0000
  Fe  Fe69      1.0  0.52489  0.99265  0.68771  1.0000
  H   H1058     1.0  0.98283  0.38861  0.32746  1.0000
  C   C595      1.0  0.71978  0.01384  0.47576  1.0000
  H   H1059     1.0  0.76892  0.20670  0.01009  1.0000
  H   H1060     1.0  0.74675  0.34101  0.40454  1.0000
  H   H1061     1.0  0.72828  0.45914  0.38869  1.0000
  H   H1062     1.0  0.73225  0.46820  0.34441  1.0000
  H   H1063     1.0  0.96958  0.42327  0.31014  1.0000
  H   H1064     1.0  0.68236  0.20302  0.39231  1.0000
  S   S137      1.0  0.90693  0.35465  0.07475  1.0000
  H   H1065     1.0  0.69926  0.02601  0.47956  1.0000
  C   C596      1.0  0.73486  0.17234  0.40523  1.0000
  H   H1066     1.0  0.93017  0.16206  0.30089  1.0000
  H   H1067     1.0  0.69047  0.18077  0.45020  1.0000
  S   S138      1.0  0.74689  0.06826  0.47499  1.0000
  S   S139      1.0  0.69123  0.37120  0.42544  1.0000
  Fe  Fe70      1.0  0.85276  0.10584  0.44660  1.0000
  H   H1068     1.0  0.93806  0.03211  0.00177  1.0000
  S   S140      1.0  0.89386  0.09275  0.41504  1.0000
  Fe  Fe71      1.0  0.81124  0.15814  0.46828  1.0000
  H   H1069     1.0  0.77999  0.35090  0.38126  1.0000
  C   C597      1.0  0.76722  0.23013  0.46054  1.0000
  H   H1070     1.0  0.99129  0.42540  0.07057  1.0000
  S   S141      1.0  0.80692  0.12064  0.42997  1.0000
  C   C598      1.0  0.76207  0.25453  0.43872  1.0000
  C   C599      1.0  0.73805  0.27427  0.44448  1.0000
  H   H1071     1.0  0.77664  0.25808  0.41697  1.0000
  H   H1072     1.0  0.73400  0.29230  0.42686  1.0000
  H   H1073     1.0  0.97529  0.10021  0.25956  1.0000
  C   C600      1.0  0.88256  0.14563  0.33724  1.0000
  H   H1074     1.0  0.97797  0.45405  0.41796  1.0000
  C   C601      1.0  0.69675  0.43795  0.35447  1.0000
  H   H1075     1.0  0.76346  0.37733  0.41026  1.0000
  C   C602      1.0  0.73197  0.10670  0.37760  1.0000
  N   N35       1.0  0.99494  0.29913  0.07716  1.0000
  H   H1076     1.0  0.79369  0.46550  0.44727  1.0000
  N   N36       1.0  0.70955  0.15094  0.41241  1.0000
  H   H1077     1.0  0.94014  0.19525  0.25451  1.0000
  C   C603      1.0  0.69731  0.15710  0.44790  1.0000
  C   C604      1.0  0.76156  0.22577  0.99558  1.0000
  H   H1078     1.0  0.77506  0.20089  0.33530  1.0000
  H   H1079     1.0  0.76292  0.36790  0.47226  1.0000
  C   C605      1.0  0.90637  0.03966  0.31502  1.0000
  C   C606      1.0  0.93071  0.04650  0.33603  1.0000
  C   C607      1.0  0.92628  0.06198  0.36703  1.0000
  C   C608      1.0  0.89750  0.07058  0.37760  1.0000
  C   C609      1.0  0.87305  0.06304  0.35702  1.0000
  C   C610      1.0  0.87752  0.04773  0.32586  1.0000
  H   H1080     1.0  0.95298  0.04017  0.32821  1.0000
  H   H1081     1.0  0.94529  0.06767  0.38282  1.0000
  H   H1082     1.0  0.85082  0.06955  0.36478  1.0000
  H   H1083     1.0  0.85852  0.04238  0.30990  1.0000
  C   C611      1.0  0.97561  0.41905  0.12233  1.0000
  C   C612      1.0  0.95409  0.40499  0.14272  1.0000
  C   C613      1.0  0.93274  0.38600  0.12761  1.0000
  C   C614      1.0  0.93213  0.38135  0.09194  1.0000
  C   C615      1.0  0.95273  0.39650  0.07139  1.0000
  C   C616      1.0  0.97469  0.41476  0.08657  1.0000
  H   H1084     1.0  0.95469  0.40777  0.17025  1.0000
  H   H1085     1.0  0.91685  0.37448  0.14376  1.0000
  H   H1086     1.0  0.95215  0.39351  0.04392  1.0000
  Fe  Fe72      1.0  0.69779  0.40705  0.46469  1.0000
  Fe  Fe73      1.0  0.89732  0.34370  0.01854  1.0000
  H   H1087     1.0  0.98120  0.31250  0.02640  1.0000
  S   S142      1.0  0.95570  0.00598  0.19340  1.0000
  H   H1088     1.0  0.69160  0.15088  0.36068  1.0000
  H   H1089     1.0  0.87615  0.01892  0.11588  1.0000
  C   C617      1.0  0.94490  0.27263  0.06345  1.0000
  S   S143      1.0  0.79769  0.20560  0.45147  1.0000
  C   C618      1.0  0.66689  0.18393  0.38934  1.0000
  H   H1090     1.0  0.97233  0.14051  0.22478  1.0000
  H   H1091     1.0  0.97390  0.33919  0.05800  1.0000
  C   C619      1.0  0.91472  0.26440  0.07916  1.0000
  H   H1092     1.0  0.75296  0.11805  0.37007  1.0000
  H   H1093     1.0  0.95559  0.25171  0.05498  1.0000
  H   H1094     1.0  0.96651  0.27573  0.11325  1.0000
  H   H1095     1.0  0.74689  0.06499  0.35554  1.0000
  H   H1096     1.0  0.81397  0.30178  0.47684  1.0000
  H   H1097     1.0  0.79428  0.02512  0.46476  1.0000
  H   H1098     1.0  0.75183  0.33031  0.46966  1.0000
  H   H1099     1.0  0.71516  0.10890  0.35695  1.0000
  C   C620      1.0  0.95990  0.11024  0.27863  1.0000
  H   H1100     1.0  0.95132  0.30927  0.09785  1.0000
  C   C621      1.0  0.77182  0.34488  0.47051  1.0000
  C   C622      1.0  0.98037  0.19868  0.22492  1.0000
  H   H1101     1.0  0.67926  0.43272  0.37367  1.0000
  H   H1102     1.0  0.75595  0.16382  0.41661  1.0000
  H   H1103     1.0  0.90495  0.49123  0.40864  1.0000
  H   H1104     1.0  0.88367  0.11165  0.29903  1.0000
  H   H1105     1.0  0.73105  0.19391  0.41845  1.0000
  H   H1106     1.0  0.80302  0.24978  0.00274  1.0000
  S   S144      1.0  0.68808  0.29440  0.48131  1.0000
  Fe  Fe74      1.0  0.67509  0.34306  0.46908  1.0000
  C   C623      1.0  0.99082  0.32256  0.04993  1.0000
  H   H1107     1.0  0.90129  0.25174  0.06021  1.0000
  H   H1108     1.0  0.91776  0.25038  0.10229  1.0000
  H   H1109     1.0  0.90215  0.28475  0.08627  1.0000
  C   C624      1.0  0.90002  0.12639  0.31194  1.0000
  S   S145      1.0  0.85866  0.14531  0.48176  1.0000
  H   H1110     1.0  0.97790  0.33364  0.13763  1.0000
  C   C625      1.0  0.74096  0.18037  0.36708  1.0000
  H   H1111     1.0  0.88056  0.02146  0.16168  1.0000
  H   H1112     1.0  0.97539  0.42431  0.37385  1.0000
  H   H1113     1.0  0.94064  0.28650  0.04050  1.0000
  H   H1114     1.0  0.86973  0.13119  0.35506  1.0000
  C   C626      1.0  0.98867  0.41227  0.32313  1.0000
  H   H1115     1.0  0.80907  0.35326  0.43399  1.0000
  H   H1116     1.0  0.68640  0.44159  0.32905  1.0000
  C   C627      1.0  0.71547  0.46530  0.36518  1.0000
  C   C628      1.0  0.76813  0.35340  0.40611  1.0000
  H   H1117     1.0  0.91113  0.00843  0.13508  1.0000
  H   H1118     1.0  0.72312  0.12718  0.48118  1.0000
  H   H1119     1.0  0.70275  0.10411  0.42192  1.0000
  C   C629      1.0  0.71650  0.41051  0.35099  1.0000
  Fe  Fe75      1.0  0.95616  0.01100  0.25076  1.0000
  H   H1120     1.0  0.96711  0.13800  0.32475  1.0000
  C   C630      1.0  0.91721  0.10886  0.23994  1.0000
  S   S146      1.0  0.88023  0.29751  0.00698  1.0000
  H   H1121     1.0  0.89802  0.15944  0.35281  1.0000
  C   C631      1.0  0.77137  0.19530  0.36270  1.0000
  C   C632      1.0  0.93250  0.09257  0.20949  1.0000
  H   H1122     1.0  0.78955  0.18028  0.37125  1.0000
  C   C633      1.0  0.96455  0.28957  0.08974  1.0000
  H   H1123     1.0  0.71961  0.06080  0.38924  1.0000
  C   C634      1.0  0.74825  0.22625  0.48873  1.0000
  C   C635      1.0  0.90993  0.07404  0.18945  1.0000
  C   C636      1.0  0.78745  0.34129  0.43509  1.0000
  C   C637      1.0  0.99537  0.42726  0.35742  1.0000
  C   C638      1.0  0.72054  0.11927  0.41213  1.0000
  H   H1124     1.0  0.96088  0.00379  0.02160  1.0000
  H   H1125     1.0  0.89785  0.12144  0.22943  1.0000
  H   H1126     1.0  0.90756  0.09103  0.25637  1.0000
  C   C639      1.0  0.98183  0.47696  0.40858  1.0000
  C   C640      1.0  0.67625  0.48887  0.39974  1.0000
  H   H1127     1.0  0.94890  0.09102  0.29136  1.0000
  H   H1128     1.0  0.86656  0.16018  0.32353  1.0000
  C   C641      1.0  0.95197  0.15076  0.23622  1.0000
  Fe  Fe76      1.0  0.79066  0.09353  0.47487  1.0000
  H   H1129     1.0  0.94997  0.07725  0.21884  1.0000
  H   H1130     1.0  0.94295  0.10828  0.19115  1.0000
  C   C642      1.0  0.92620  0.48282  0.41964  1.0000
  H   H1131     1.0  0.72839  0.40607  0.37540  1.0000
  H   H1132     1.0  0.74044  0.16088  0.34996  1.0000
  C   C643      1.0  0.74690  0.02926  0.47254  1.0000
  S   S147      1.0  0.91105  0.02189  0.27470  1.0000
  H   H1133     1.0  0.70240  0.39093  0.34474  1.0000
  H   H1134     1.0  0.77239  0.21609  0.37788  1.0000
  H   H1135     1.0  0.91570  0.11268  0.32701  1.0000
  C   C644      1.0  0.71906  0.27037  0.47267  1.0000
  S   S148      1.0  0.83588  0.07572  0.48861  1.0000
  C   C645      1.0  0.77334  0.01341  0.46765  1.0000
  H   H1136     1.0  0.89997  0.05674  0.20626  1.0000
  H   H1137     1.0  0.89195  0.08828  0.17890  1.0000
  H   H1138     1.0  0.92147  0.06294  0.16774  1.0000
  H   H1139     1.0  0.73972  0.11679  0.42987  1.0000
  H   H1140     1.0  0.79161  0.31750  0.42955  1.0000
  H   H1141     1.0  0.94563  0.47608  0.37002  1.0000
  C   C646      1.0  0.73945  0.07371  0.38076  1.0000
  H   H1142     1.0  0.90048  0.15908  0.27127  1.0000
  H   H1143     1.0  0.67679  0.14363  0.45259  1.0000
  N   N37       1.0  0.93703  0.12925  0.26073  1.0000
  H   H1144     1.0  0.74044  0.16278  0.47427  1.0000
  H   H1145     1.0  0.98528  0.47073  0.33630  1.0000
  H   H1146     1.0  0.97268  0.18059  0.27499  1.0000
  H   H1147     1.0  0.98551  0.22109  0.23521  1.0000
  C   C647      1.0  0.71884  0.15123  0.47826  1.0000
  H   H1148     1.0  0.98661  0.49045  0.43190  1.0000
  H   H1149     1.0  0.93698  0.15557  0.21408  1.0000
  H   H1150     1.0  0.92347  0.45878  0.42511  1.0000
  H   H1151     1.0  0.75783  0.07033  0.39947  1.0000
  H   H1152     1.0  0.83599  0.34778  0.48423  1.0000
  H   H1153     1.0  0.73314  0.41359  0.33015  1.0000
  C   C648      1.0  0.91724  0.14574  0.28566  1.0000
  C   C649      1.0  0.98020  0.12577  0.30522  1.0000
  C   C650      1.0  0.72535  0.48431  0.47837  1.0000
  C   C651      1.0  0.95854  0.01845  0.99886  1.0000
  C   C652      1.0  0.95154  0.48791  0.39402  1.0000
  H   H1154     1.0  0.72376  0.19608  0.35770  1.0000
  C   C653      1.0  0.88652  0.00831  0.13862  1.0000
  H   H1155     1.0  0.97801  0.03365  0.99793  1.0000
  H   H1156     1.0  0.70417  0.47449  0.48552  1.0000
  C   C654      1.0  0.74836  0.46642  0.46590  1.0000
  C   C655      1.0  0.96063  0.18183  0.25033  1.0000
  S   S149      1.0  0.74379  0.42788  0.46157  1.0000
  H   H1157     1.0  0.66735  0.13600  0.39177  1.0000
  H   H1158     1.0  0.81254  0.37946  0.48656  1.0000
  C   C656      1.0  0.77584  0.47931  0.45699  1.0000
  C   C657      1.0  0.68402  0.15403  0.38747  1.0000
  H   H1159     1.0  0.96879  0.20128  0.19992  1.0000
  H   H1160     1.0  0.68708  0.47725  0.42162  1.0000
  H   H1161     1.0  0.99392  0.23708  0.09381  1.0000
  H   H1162     1.0  0.98513  0.08751  0.33904  1.0000
  H   H1163     1.0  0.99533  0.35698  0.10619  1.0000
  H   H1164     1.0  0.99576  0.14113  0.29204  1.0000
  H   H1165     1.0  0.81648  0.17249  0.82375  1.0000
  H   H1166     1.0  0.97979  0.30444  0.90149  1.0000
  S   S150      1.0  0.87723  0.31798  0.92637  1.0000
  C   C658      1.0  0.86214  0.15999  0.81596  1.0000
  Fe  Fe77      1.0  0.89450  0.36250  0.94353  1.0000
  S   S151      1.0  0.89820  0.40204  0.90701  1.0000
  H   H1167     1.0  0.90953  0.99637  0.96387  1.0000
  H   H1168     1.0  0.86642  0.19613  0.87112  1.0000
  Fe  Fe78      1.0  0.95926  0.01065  0.69986  1.0000
  C   C659      1.0  0.83642  0.01123  0.68310  1.0000
  C   C660      1.0  0.97541  0.48685  0.93983  1.0000
  H   H1169     1.0  0.76230  0.00137  0.61140  1.0000
  H   H1170     1.0  0.93759  0.02111  0.84162  1.0000
  C   C661      1.0  0.78995  0.19736  0.87753  1.0000
  H   H1171     1.0  0.90833  0.37743  0.71809  1.0000
  H   H1172     1.0  0.92141  0.27616  0.76893  1.0000
  H   H1173     1.0  0.93857  0.26983  0.80998  1.0000
  C   C662      1.0  0.72853  0.33339  0.57212  1.0000
  Fe  Fe79      1.0  0.83935  0.11563  0.52270  1.0000
  S   S152      1.0  0.85512  0.11406  0.57847  1.0000
  H   H1174     1.0  0.74609  0.04545  0.56654  1.0000
  C   C663      1.0  0.82733  0.20983  0.92233  1.0000
  H   H1175     1.0  0.82725  0.01364  0.70942  1.0000
  H   H1176     1.0  0.99164  0.29706  0.85831  1.0000
  H   H1177     1.0  0.95210  0.37324  0.77849  1.0000
  C   C664      1.0  0.81751  0.29365  0.53058  1.0000
  H   H1178     1.0  0.77089  0.10793  0.57945  1.0000
  S   S153      1.0  0.68373  0.37832  0.50904  1.0000
  C   C665      1.0  0.74316  0.27517  0.95848  1.0000
  C   C666      1.0  0.99118  0.28013  0.96476  1.0000
  C   C667      1.0  0.91063  0.04215  0.63350  1.0000
  C   C668      1.0  0.90494  0.03986  0.59811  1.0000
  C   C669      1.0  0.88925  0.06230  0.58045  1.0000
  C   C670      1.0  0.87827  0.08695  0.59827  1.0000
  C   C671      1.0  0.88460  0.08957  0.63349  1.0000
  C   C672      1.0  0.90088  0.06747  0.65096  1.0000
  H   H1179     1.0  0.91238  0.02040  0.58434  1.0000
  H   H1180     1.0  0.88505  0.06018  0.55326  1.0000
  H   H1181     1.0  0.87634  0.10856  0.64752  1.0000
  H   H1182     1.0  0.90474  0.06941  0.67824  1.0000
  C   C673      1.0  0.92704  0.41181  0.87786  1.0000
  C   C674      1.0  0.92167  0.43441  0.85379  1.0000
  C   C675      1.0  0.94271  0.44107  0.82800  1.0000
  C   C676      1.0  0.96939  0.42513  0.82601  1.0000
  C   C677      1.0  0.97532  0.40339  0.85095  1.0000
  C   C678      1.0  0.95429  0.39677  0.87682  1.0000
  H   H1183     1.0  0.90071  0.44630  0.85450  1.0000
  H   H1184     1.0  0.93785  0.45789  0.80904  1.0000
  H   H1185     1.0  0.70107  0.25166  0.95272  1.0000
  H   H1186     1.0  0.95888  0.37968  0.89552  1.0000
  C   C679      1.0  0.73242  0.22593  0.98191  1.0000
  H   H1187     1.0  0.86173  0.99884  0.56841  1.0000
  H   H1188     1.0  0.83282  0.04302  0.55599  1.0000
  H   H1189     1.0  0.88508  0.16884  0.81975  1.0000
  Fe  Fe80      1.0  0.91173  0.29962  0.96221  1.0000
  H   H1190     1.0  0.77656  0.06234  0.54283  1.0000
  H   H1191     1.0  0.80598  0.29791  0.55523  1.0000
  N   N38       1.0  0.80267  0.02123  0.59112  1.0000
  C   C680      1.0  0.93087  0.37836  0.72990  1.0000
  C   C681      1.0  0.83887  0.18196  0.82923  1.0000
  S   S154      1.0  0.99288  0.46670  0.69805  1.0000
  C   C682      1.0  0.82563  0.23918  0.86774  1.0000
  C   C683      1.0  0.81122  0.26610  0.88583  1.0000
  C   C684      1.0  0.99061  0.45950  0.60626  1.0000
  H   H1192     1.0  0.75231  0.20821  0.50636  1.0000
  C   C685      1.0  0.70535  0.16162  0.51221  1.0000
  H   H1193     1.0  0.80650  0.04354  0.66265  1.0000
  C   C686      1.0  0.81739  0.29483  0.86623  1.0000
  H   H1194     1.0  0.96935  0.46382  0.62011  1.0000
  H   H1195     1.0  0.75699  0.00369  0.54366  1.0000
  H   H1196     1.0  0.85650  0.02562  0.68081  1.0000
  H   H1197     1.0  0.97524  0.20779  0.94845  1.0000
  H   H1198     1.0  0.78179  0.20493  0.85203  1.0000
  H   H1199     1.0  0.78570  0.34209  0.55681  1.0000
  H   H1200     1.0  0.89606  0.23843  0.82802  1.0000
  C   C687      1.0  0.81967  0.02207  0.55770  1.0000
  H   H1201     1.0  0.84987  0.24428  0.86526  1.0000
  H   H1202     1.0  0.81689  0.23906  0.84106  1.0000
  H   H1203     1.0  0.82059  0.26893  0.91188  1.0000
  H   H1204     1.0  0.78672  0.26369  0.88734  1.0000
  C   C688      1.0  0.72329  0.25103  0.96351  1.0000
  S   S155      1.0  0.79252  0.13161  0.51199  1.0000
  H   H1205     1.0  0.84146  0.20273  0.81429  1.0000
  C   C689      1.0  0.76530  0.20422  0.90441  1.0000
  S   S156      1.0  0.99496  0.43014  0.79170  1.0000
  H   H1206     1.0  0.76444  0.22791  0.91130  1.0000
  H   H1207     1.0  0.98004  0.47472  0.88597  1.0000
  H   H1208     1.0  0.72866  0.20813  0.86776  1.0000
  H   H1209     1.0  0.96033  0.31482  0.80952  1.0000
  H   H1210     1.0  0.80731  0.29394  0.84025  1.0000
  H   H1211     1.0  0.80738  0.31378  0.88041  1.0000
  H   H1212     1.0  0.84175  0.29884  0.86401  1.0000
  H   H1213     1.0  0.74870  0.30202  0.53807  1.0000
  H   H1214     1.0  0.84229  0.16605  0.88169  1.0000
  N   N39       1.0  0.82117  0.20916  0.88430  1.0000
  H   H1215     1.0  0.70994  0.24280  0.51657  1.0000
  H   H1216     1.0  0.84012  0.30369  0.53116  1.0000
  C   C690      1.0  0.84312  0.18787  0.86818  1.0000
  N   N40       1.0  0.91407  0.32898  0.81055  1.0000
  C   C691      1.0  0.89888  0.29909  0.81160  1.0000
  C   C692      1.0  0.89549  0.35067  0.83077  1.0000
  C   C693      1.0  0.91718  0.33870  0.77368  1.0000
  C   C694      1.0  0.94481  0.32759  0.82621  1.0000
  C   C695      1.0  0.94662  0.31503  0.86319  1.0000
  H   H1217     1.0  0.88525  0.22732  0.97908  1.0000
  C   C696      1.0  0.86408  0.35766  0.81613  1.0000
  C   C697      1.0  0.84753  0.37966  0.83910  1.0000
  H   H1218     1.0  0.87775  0.24494  0.78722  1.0000
  S   S157      1.0  0.92562  0.01103  0.65565  1.0000
  H   H1219     1.0  0.87758  0.29980  0.79701  1.0000
  H   H1220     1.0  0.89235  0.29337  0.83837  1.0000
  H   H1221     1.0  0.89198  0.34253  0.85736  1.0000
  H   H1222     1.0  0.90757  0.37196  0.83379  1.0000
  H   H1223     1.0  0.89551  0.33654  0.75996  1.0000
  C   C698      1.0  0.73444  0.19531  0.89112  1.0000
  H   H1224     1.0  0.82261  0.18762  0.93374  1.0000
  H   H1225     1.0  0.95475  0.35011  0.82748  1.0000
  C   C699      1.0  0.95461  0.46028  0.94485  1.0000
  H   H1226     1.0  0.93488  0.32980  0.88151  1.0000
  C   C700      1.0  0.85960  0.21847  0.93297  1.0000
  H   H1227     1.0  0.91472  0.38759  0.78033  1.0000
  H   H1228     1.0  0.86562  0.36768  0.79022  1.0000
  H   H1229     1.0  0.85019  0.33734  0.81454  1.0000
  H   H1230     1.0  0.84493  0.37059  0.86545  1.0000
  H   H1231     1.0  0.85991  0.40102  0.84053  1.0000
  H   H1232     1.0  0.82498  0.38407  0.82851  1.0000
  C   C701      1.0  0.92922  0.37075  0.76802  1.0000
  C   C702      1.0  0.99464  0.48340  0.90689  1.0000
  S   S158      1.0  0.93622  0.25822  0.94563  1.0000
  C   C703      1.0  0.77248  0.34494  0.53306  1.0000
  H   H1233     1.0  0.98081  0.30171  0.96486  1.0000
  H   H1234     1.0  0.69975  0.18558  0.51122  1.0000
  H   H1235     1.0  0.96730  0.43913  0.94452  1.0000
  C   C704      1.0  0.91693  0.27273  0.79663  1.0000
  H   H1236     1.0  0.81186  0.22522  0.93565  1.0000
  C   C705      1.0  0.76536  0.06079  0.56811  1.0000
  H   H1237     1.0  0.72756  0.33097  0.51762  1.0000
  Fe  Fe81      1.0  0.84641  0.31851  0.97215  1.0000
  H   H1238     1.0  0.73911  0.09070  0.60015  1.0000
  H   H1239     1.0  0.77412  0.05062  0.62049  1.0000
  C   C706      1.0  0.89966  0.24361  0.80047  1.0000
  H   H1240     1.0  0.86735  0.23880  0.91960  1.0000
  C   C707      1.0  0.81281  0.02026  0.65681  1.0000
  H   H1241     1.0  0.70751  0.32036  0.57426  1.0000
  H   H1242     1.0  0.72279  0.35733  0.57343  1.0000
  H   H1243     1.0  0.84311  0.03487  0.61725  1.0000
  H   H1244     1.0  0.73581  0.29422  0.94392  1.0000
  H   H1245     1.0  0.83656  0.99598  0.61806  1.0000
  H   H1246     1.0  0.91269  0.22521  0.78886  1.0000
  S   S159      1.0  0.79677  0.30583  0.96369  1.0000
  H   H1247     1.0  0.76941  0.19145  0.92832  1.0000
  H   H1248     1.0  0.81684  0.38370  0.54795  1.0000
  C   C708      1.0  0.78734  0.05072  0.59635  1.0000
  H   H1249     1.0  0.94604  0.36283  0.71630  1.0000
  C   C709      1.0  0.78058  0.99582  0.59312  1.0000
  H   H1250     1.0  0.73364  0.17119  0.88533  1.0000
  H   H1251     1.0  0.79014  0.17264  0.87605  1.0000
  C   C710      1.0  0.97909  0.31279  0.87481  1.0000
  H   H1252     1.0  0.93276  0.32373  0.75976  1.0000
  H   H1253     1.0  0.95703  0.01564  0.94403  1.0000
  H   H1254     1.0  0.93672  0.29254  0.86519  1.0000
  H   H1255     1.0  0.73805  0.09877  0.55487  1.0000
  C   C711      1.0  0.85305  0.99536  0.51480  1.0000
  H   H1256     1.0  0.86491  0.01631  0.50843  1.0000
  H   H1257     1.0  0.74317  0.32753  0.59404  1.0000
  H   H1258     1.0  0.80432  0.02291  0.53543  1.0000
  H   H1259     1.0  0.93747  0.45977  0.92432  1.0000
  H   H1260     1.0  0.87531  0.20015  0.92703  1.0000
  H   H1261     1.0  0.80444  0.06863  0.59926  1.0000
  H   H1262     1.0  0.79299  0.00580  0.66040  1.0000
  C   C712      1.0  0.75263  0.09144  0.57627  1.0000
  H   H1263     1.0  0.86001  0.13836  0.82941  1.0000
  H   H1264     1.0  0.92137  0.01032  0.90161  1.0000
  H   H1265     1.0  0.71730  0.20007  0.91096  1.0000
  C   C713      1.0  0.98815  0.22722  0.95526  1.0000
  S   S160      1.0  0.95281  0.01204  0.75752  1.0000
  H   H1266     1.0  0.85870  0.15616  0.78809  1.0000
  H   H1267     1.0  0.79958  0.24862  0.52854  1.0000
  C   C714      1.0  0.97431  0.25511  0.95623  1.0000
  H   H1268     1.0  0.72170  0.15805  0.53320  1.0000
  H   H1269     1.0  0.84926  0.24476  0.97798  1.0000
  C   C715      1.0  0.94896  0.00366  0.85687  1.0000
  C   C716      1.0  0.74382  0.32612  0.53810  1.0000
  S   S161      1.0  0.86109  0.36494  0.98689  1.0000
  C   C717      1.0  0.77237  0.27491  0.97200  1.0000
  H   H1270     1.0  0.94291  0.46213  0.96989  1.0000
  H   H1271     1.0  0.83671  0.34924  0.55163  1.0000
  H   H1272     1.0  0.68480  0.14876  0.51816  1.0000
  H   H1273     1.0  0.76561  0.36873  0.53274  1.0000
  C   C718      1.0  0.82154  0.26006  0.52744  1.0000
  C   C719      1.0  0.82519  0.01786  0.61975  1.0000
  S   S162      1.0  0.93150  0.34396  0.97614  1.0000
  H   H1274     1.0  0.83547  0.25178  0.54894  1.0000
  H   H1275     1.0  0.85625  0.46542  0.52690  1.0000
  H   H1276     1.0  0.97780  0.48193  0.56045  1.0000
  H   H1277     1.0  0.77980  0.29171  0.49584  1.0000
  H   H1278     1.0  0.99013  0.33487  0.87411  1.0000
  H   H1279     1.0  0.93984  0.40123  0.72679  1.0000
  Fe  Fe82      1.0  0.99579  0.47014  0.75563  1.0000
  C   C720      1.0  0.86158  0.22421  0.97147  1.0000
  S   S163      1.0  0.70937  0.19357  0.98701  1.0000
  C   C721      1.0  0.83219  0.36823  0.53444  1.0000
  H   H1280     1.0  0.85218  0.20531  0.98627  1.0000
  H   H1281     1.0  0.81714  0.45726  0.52083  1.0000
  H   H1282     1.0  0.96918  0.01358  0.86865  1.0000
  H   H1283     1.0  0.98728  0.10549  0.98728  1.0000
  C   C722      1.0  0.84183  0.99611  0.55177  1.0000
  C   C723      1.0  0.83371  0.47539  0.52435  1.0000
  H   H1284     1.0  0.81968  0.47476  0.66106  1.0000
  C   C724      1.0  0.72435  0.24611  0.49461  1.0000
  H   H1285     1.0  0.99024  0.48818  0.96263  1.0000
  C   C725      1.0  0.95709  0.99998  0.96599  1.0000
  H   H1286     1.0  0.82859  0.47854  0.57878  1.0000
  H   H1287     1.0  0.87070  0.39243  0.55356  1.0000
  H   H1288     1.0  0.78367  0.48998  0.61629  1.0000
  H   H1289     1.0  0.77982  0.48661  0.55459  1.0000
  C   C726      1.0  0.86157  0.38481  0.52858  1.0000
  H   H1290     1.0  0.83367  0.48983  0.50126  1.0000
  H   H1291     1.0  0.98912  0.43740  0.59380  1.0000
  H   H1292     1.0  0.87826  0.37002  0.51628  1.0000
  C   C727      1.0  0.78120  0.25012  0.99109  1.0000
  H   H1293     1.0  0.85795  0.40456  0.51206  1.0000
  H   H1294     1.0  0.83276  0.25422  0.50292  1.0000
  C   C728      1.0  0.81809  0.35826  0.49994  1.0000
  C   C729      1.0  0.79978  0.30596  0.49975  1.0000
  N   N41       1.0  0.79089  0.33819  0.50152  1.0000
  H   H1295     1.0  0.91356  0.95369  0.23694  1.0000
  C   C730      1.0  0.90868  0.66365  0.31406  1.0000
  H   H1296     1.0  0.97239  0.63759  0.14636  1.0000
  H   H1297     1.0  0.80217  0.76486  0.43929  1.0000
  H   H1298     1.0  0.79058  0.96384  0.22237  1.0000
  H   H1299     1.0  0.96301  0.65936  0.20383  1.0000
  N   N42       1.0  0.69867  0.49383  0.37137  1.0000
  C   C731      1.0  0.97976  0.58649  0.07939  1.0000
  S   S164      1.0  0.90268  0.89754  0.03817  1.0000
  C   C732      1.0  0.76601  0.54954  0.37191  1.0000
  S   S165      1.0  0.87888  0.80809  0.01742  1.0000
  H   H1300     1.0  0.88804  0.53093  0.25511  1.0000
  H   H1301     1.0  0.80164  0.51982  0.45377  1.0000
  C   C733      1.0  0.83917  0.96724  0.21999  1.0000
  S   S166      1.0  0.69190  0.86921  0.42912  1.0000
  Fe  Fe83      1.0  0.86423  0.60272  0.43367  1.0000
  H   H1302     1.0  0.72975  0.51005  0.40954  1.0000
  S   S167      1.0  0.90174  0.59675  0.39407  1.0000
  H   H1303     1.0  0.83847  0.98621  0.20186  1.0000
  H   H1304     1.0  0.91603  0.61114  0.18862  1.0000
  H   H1305     1.0  0.88314  0.93504  0.25884  1.0000
  H   H1306     1.0  0.78613  0.55236  0.35556  1.0000
  S   S168      1.0  0.81654  0.61781  0.42586  1.0000
  H   H1307     1.0  0.87012  0.86549  0.10730  1.0000
  C   C734      1.0  0.95169  0.65040  0.15151  1.0000
  H   H1308     1.0  0.67538  0.76427  0.05410  1.0000
  H   H1309     1.0  0.98526  0.64755  0.08173  1.0000
  H   H1310     1.0  0.67772  0.52900  0.43156  1.0000
  H   H1311     1.0  0.75235  0.69137  0.47972  1.0000
  H   H1312     1.0  0.89117  0.97654  0.19476  1.0000
  H   H1313     1.0  0.97060  0.79677  0.99575  1.0000
  C   C735      1.0  0.78059  0.72569  0.45920  1.0000
  H   H1314     1.0  0.74062  0.76972  0.03259  1.0000
  C   C736      1.0  0.72966  0.76333  0.46655  1.0000
  C   C737      1.0  0.75640  0.77445  0.45300  1.0000
  C   C738      1.0  0.87501  0.97659  0.14225  1.0000
  H   H1315     1.0  0.91545  0.89171  0.26992  1.0000
  H   H1316     1.0  0.88343  0.68766  0.02723  1.0000
  S   S169      1.0  0.79212  0.79671  0.00131  1.0000
  H   H1317     1.0  0.90120  0.51344  0.21648  1.0000
  H   H1318     1.0  0.97423  0.58251  0.23872  1.0000
  C   C739      1.0  0.92845  0.52359  0.31738  1.0000
  C   C740      1.0  0.94734  0.54757  0.32407  1.0000
  C   C741      1.0  0.93884  0.56952  0.34784  1.0000
  C   C742      1.0  0.91138  0.56776  0.36531  1.0000
  C   C743      1.0  0.89258  0.54357  0.35892  1.0000
  C   C744      1.0  0.90111  0.52161  0.33505  1.0000
  H   H1319     1.0  0.96865  0.54898  0.31118  1.0000
  H   H1320     1.0  0.95366  0.58800  0.35287  1.0000
  H   H1321     1.0  0.87139  0.54193  0.37213  1.0000
  H   H1322     1.0  0.98005  0.71049  0.02573  1.0000
  C   C745      1.0  0.95840  0.91496  0.13560  1.0000
  C   C746      1.0  0.94908  0.93832  0.11459  1.0000
  C   C747      1.0  0.93260  0.93244  0.08455  1.0000
  C   C748      1.0  0.92564  0.90316  0.07477  1.0000
  C   C749      1.0  0.93578  0.87974  0.09518  1.0000
  C   C750      1.0  0.95199  0.88565  0.12547  1.0000
  H   H1323     1.0  0.95409  0.96097  0.12181  1.0000
  H   H1324     1.0  0.92490  0.95072  0.06896  1.0000
  H   H1325     1.0  0.93058  0.85712  0.08801  1.0000
  H   H1326     1.0  0.68996  0.78719  0.99870  1.0000
  H   H1327     1.0  0.75203  0.56976  0.36951  1.0000
  N   N43       1.0  0.93555  0.61119  0.23973  1.0000
  C   C751      1.0  0.80979  0.96722  0.23995  1.0000
  S   S170      1.0  0.87396  0.64132  0.46864  1.0000
  H   H1328     1.0  0.85737  0.97174  0.23841  1.0000
  H   H1329     1.0  0.85033  0.97728  0.14465  1.0000
  H   H1330     1.0  0.85439  0.92344  0.13439  1.0000
  H   H1331     1.0  0.88640  0.50302  0.33016  1.0000
  N   N44       1.0  0.97471  0.66264  0.03017  1.0000
  S   S171      1.0  0.85359  0.57151  0.47744  1.0000
  C   C752      1.0  0.89393  0.68552  0.00154  1.0000
  H   H1332     1.0  0.98290  0.59447  0.10608  1.0000
  H   H1333     1.0  0.95548  0.67376  0.14352  1.0000
  S   S172      1.0  0.81378  0.70372  0.45557  1.0000
  C   C753      1.0  0.91990  0.63482  0.29798  1.0000
  C   C754      1.0  0.75744  0.52785  0.47332  1.0000
  C   C755      1.0  0.99059  0.62543  0.25258  1.0000
  H   H1334     1.0  0.96329  0.59366  0.28017  1.0000
  H   H1335     1.0  0.93140  0.92549  0.28658  1.0000
  H   H1336     1.0  0.94308  0.61575  0.06986  1.0000
  H   H1337     1.0  0.93138  0.66718  0.05385  1.0000
  H   H1338     1.0  0.74183  0.52518  0.33343  1.0000
  H   H1339     1.0  0.79854  0.85674  0.47021  1.0000
  C   C756      1.0  0.96553  0.60179  0.25347  1.0000
  C   C757      1.0  0.85056  0.86597  0.12486  1.0000
  C   C758      1.0  0.94105  0.66381  0.02779  1.0000
  C   C759      1.0  0.78164  0.75584  0.44960  1.0000
  H   H1340     1.0  0.97278  0.69766  0.06811  1.0000
  H   H1341     1.0  0.93733  0.65781  0.25417  1.0000
  H   H1342     1.0  0.93312  0.64104  0.13602  1.0000
  H   H1343     1.0  0.99284  0.51842  0.35966  1.0000
  H   H1344     1.0  0.93168  0.64243  0.01873  1.0000
  H   H1345     1.0  0.66910  0.81967  0.00789  1.0000
  H   H1346     1.0  0.90350  0.61737  0.30492  1.0000
  H   H1347     1.0  0.93262  0.71069  0.01449  1.0000
  C   C760      1.0  0.72400  0.73590  0.99816  1.0000
  Fe  Fe84      1.0  0.70303  0.90125  0.47185  1.0000
  Fe  Fe85      1.0  0.80679  0.58966  0.47243  1.0000
  H   H1348     1.0  0.91298  0.95580  0.16638  1.0000
  C   C761      1.0  0.98446  0.63868  0.05505  1.0000
  H   H1349     1.0  0.76062  0.84343  0.47206  1.0000
  H   H1350     1.0  0.87523  0.54388  0.21373  1.0000
  H   H1351     1.0  0.76418  0.50290  0.36204  1.0000
  C   C762      1.0  0.66799  0.79786  0.99444  1.0000
  H   H1352     1.0  0.96006  0.60064  0.03206  1.0000
  H   H1353     1.0  0.90092  0.64371  0.24787  1.0000
  H   H1354     1.0  0.94039  0.54576  0.23859  1.0000
  H   H1355     1.0  0.89183  0.91119  0.13875  1.0000
  H   H1356     1.0  0.89081  0.59302  0.23778  1.0000
  H   H1357     1.0  0.95452  0.60223  0.18952  1.0000
  H   H1358     1.0  0.95920  0.86738  0.14140  1.0000
  H   H1359     1.0  0.94594  0.90970  0.24750  1.0000
  H   H1360     1.0  0.84332  0.84276  0.12968  1.0000
  H   H1361     1.0  0.91243  0.57974  0.27278  1.0000
  H   H1362     1.0  0.94160  0.62955  0.31017  1.0000
  H   H1363     1.0  0.82585  0.93747  0.18001  1.0000
  C   C763      1.0  0.89466  0.53500  0.22806  1.0000
  Fe  Fe86      1.0  0.82543  0.65429  0.46420  1.0000
  C   C764      1.0  0.68462  0.50511  0.33858  1.0000
  H   H1364     1.0  0.69874  0.49895  0.31616  1.0000
  H   H1365     1.0  0.71017  0.53848  0.38756  1.0000
  C   C765      1.0  0.88937  0.96048  0.17331  1.0000
  H   H1366     1.0  0.75760  0.79730  0.44487  1.0000
  H   H1367     1.0  0.92630  0.56007  0.19878  1.0000
  C   C766      1.0  0.92098  0.55659  0.22625  1.0000
  H   H1368     1.0  0.92412  0.66337  0.19406  1.0000
  Fe  Fe87      1.0  0.68549  0.83594  0.47174  1.0000
  C   C767      1.0  0.74558  0.96679  0.46967  1.0000
  C   C768      1.0  0.72107  0.51653  0.38391  1.0000
  C   C769      1.0  0.77264  0.98226  0.46622  1.0000
  C   C770      1.0  0.92787  0.68824  0.00417  1.0000
  S   S173      1.0  0.69732  0.78602  0.47326  1.0000
  H   H1369     1.0  0.88656  0.66978  0.30336  1.0000
  S   S174      1.0  0.98203  0.96881  0.25883  1.0000
  C   C771      1.0  0.91376  0.58597  0.24525  1.0000
  C   C772      1.0  0.72852  0.73313  0.47590  1.0000
  H   H1370     1.0  0.96549  0.56632  0.08024  1.0000
  H   H1371     1.0  0.70524  0.73005  0.01428  1.0000
  S   S175      1.0  0.97699  0.92127  0.17524  1.0000
  N   N45       1.0  0.87395  0.93222  0.18430  1.0000
  H   H1372     1.0  0.88064  0.96470  0.11812  1.0000
  C   C773      1.0  0.89397  0.91565  0.20881  1.0000
  C   C774      1.0  0.87024  0.91302  0.15274  1.0000
  C   C775      1.0  0.84356  0.93765  0.20007  1.0000
  H   H1373     1.0  0.80984  0.94945  0.25969  1.0000
  C   C776      1.0  0.78038  0.51000  0.46056  1.0000
  C   C777      1.0  0.85874  0.88097  0.15878  1.0000
  C   C778      1.0  0.90296  0.93191  0.24220  1.0000
  C   C779      1.0  0.92530  0.91347  0.26271  1.0000
  C   C780      1.0  0.71910  0.98268  0.47433  1.0000
  C   C781      1.0  0.92328  0.63790  0.25846  1.0000
  H   H1374     1.0  0.98375  0.64620  0.26553  1.0000
  S   S176      1.0  0.97512  0.50615  0.19399  1.0000
  H   H1375     1.0  0.83198  0.87791  0.11206  1.0000
  H   H1376     1.0  0.88315  0.89472  0.21743  1.0000
  H   H1377     1.0  0.91489  0.90893  0.19538  1.0000
  C   C782      1.0  0.94413  0.64929  0.18973  1.0000
  C   C783      1.0  0.98511  0.69225  0.04405  1.0000
  H   H1378     1.0  0.77339  0.54730  0.39897  1.0000
  H   H1379     1.0  0.83754  0.91904  0.21758  1.0000
  H   H1380     1.0  0.90614  0.66055  0.34220  1.0000
  C   C784      1.0  0.74860  0.52201  0.36054  1.0000
  H   H1381     1.0  0.80697  0.98888  0.25316  1.0000
  C   C785      1.0  0.93748  0.61702  0.20148  1.0000
  H   H1382     1.0  0.83870  0.88086  0.17554  1.0000
  H   H1383     1.0  0.87642  0.86725  0.17084  1.0000
  C   C786      1.0  0.96478  0.61034  0.05752  1.0000
  Fe  Fe88      1.0  0.89003  0.85622  0.00664  1.0000
  H   H1384     1.0  0.66860  0.83753  0.18181  1.0000
  C   C787      1.0  0.75369  0.71444  0.47223  1.0000
  H   H1385     1.0  0.99396  0.90608  0.28966  1.0000
  H   H1386     1.0  0.95154  0.55004  0.48294  1.0000
  S   S177      1.0  0.74599  0.92769  0.46924  1.0000
  H   H1387     1.0  0.95222  0.51209  0.38891  1.0000
  H   H1388     1.0  0.79312  0.97002  0.46234  1.0000
  S   S178      1.0  0.76255  0.56603  0.48013  1.0000
  C   C788      1.0  0.72990  0.51498  0.48201  1.0000
  C   C789      1.0  0.74420  0.75836  0.00851  1.0000
  S   S179      1.0  0.93856  0.49533  0.28795  1.0000
  H   H1389     1.0  0.68408  0.52983  0.33830  1.0000
  H   H1390     1.0  0.92480  0.68200  0.30956  1.0000
  H   H1391     1.0  0.69818  0.97097  0.47712  1.0000
  C   C790      1.0  0.77962  0.85163  0.48768  1.0000
  Fe  Fe89      1.0  0.97812  0.49775  0.25100  1.0000
  H   H1392     1.0  0.98128  0.86817  0.28791  1.0000
  C   C791      1.0  0.98914  0.65819  0.99561  1.0000
  H   H1393     1.0  0.70800  0.72410  0.48622  1.0000
  Fe  Fe90      1.0  0.98460  0.96621  0.20099  1.0000
  H   H1394     1.0  0.66406  0.86126  0.30610  1.0000
  H   H1395     1.0  0.94135  0.58849  0.48781  1.0000
  H   H1396     1.0  0.93060  0.49496  0.44390  1.0000
  S   S180      1.0  0.96415  0.50855  0.75833  1.0000
  H   H1397     1.0  0.83341  0.96430  0.94563  1.0000
  S   S181      1.0  0.86245  0.80221  0.93430  1.0000
  C   C792      1.0  0.97206  0.92666  0.95808  1.0000
  Fe  Fe91      1.0  0.87527  0.85050  0.93019  1.0000
  S   S182      1.0  0.87149  0.88030  0.88299  1.0000
  H   H1398     1.0  0.84337  0.50227  0.68065  1.0000
  H   H1399     1.0  0.87947  0.91603  0.96247  1.0000
  H   H1400     1.0  0.82264  0.54133  0.64427  1.0000
  H   H1401     1.0  0.81295  0.77271  0.61330  1.0000
  C   C793      1.0  0.92850  0.98045  0.96540  1.0000
  H   H1402     1.0  0.77182  0.52340  0.63564  1.0000
  C   C794      1.0  0.94192  0.96581  0.90472  1.0000
  H   H1403     1.0  0.68176  0.84637  0.95817  1.0000
  S   S183      1.0  0.69882  0.86732  0.51399  1.0000
  C   C795      1.0  0.96450  0.54222  0.88379  1.0000
  H   H1404     1.0  0.73481  0.84133  0.90395  1.0000
  H   H1405     1.0  0.94774  0.52454  0.88874  1.0000
  H   H1406     1.0  0.77083  0.76504  0.52319  1.0000
  S   S184      1.0  0.89074  0.61198  0.55960  1.0000
  H   H1407     1.0  0.73100  0.95536  0.54153  1.0000
  C   C796      1.0  0.71253  0.78232  0.56186  1.0000
  H   H1408     1.0  0.81250  0.81467  0.57541  1.0000
  H   H1409     1.0  0.95578  0.98559  0.83914  1.0000
  H   H1410     1.0  0.92703  0.92062  0.97366  1.0000
  C   C797      1.0  0.76231  0.81910  0.53692  1.0000
  H   H1411     1.0  0.79183  0.51713  0.52922  1.0000
  C   C798      1.0  0.68503  0.82504  0.94418  1.0000
  Fe  Fe92      1.0  0.83840  0.81343  0.98321  1.0000
  H   H1412     1.0  0.75638  0.71772  0.92239  1.0000
  C   C799      1.0  0.91682  0.53669  0.63366  1.0000
  C   C800      1.0  0.89924  0.53057  0.60460  1.0000
  C   C801      1.0  0.89148  0.55330  0.58140  1.0000
  C   C802      1.0  0.90069  0.58246  0.58739  1.0000
  C   C803      1.0  0.91852  0.58851  0.61622  1.0000
  C   C804      1.0  0.92665  0.56576  0.63918  1.0000
  H   H1413     1.0  0.71625  0.63101  0.75658  1.0000
  H   H1414     1.0  0.87863  0.54841  0.55868  1.0000
  H   H1415     1.0  0.92589  0.61101  0.62101  1.0000
  H   H1416     1.0  0.94008  0.57083  0.66148  1.0000
  C   C805      1.0  0.90219  0.89407  0.85882  1.0000
  C   C806      1.0  0.89729  0.91668  0.83458  1.0000
  C   C807      1.0  0.92113  0.92877  0.81544  1.0000
  C   C808      1.0  0.95014  0.91814  0.82015  1.0000
  C   C809      1.0  0.95505  0.89547  0.84428  1.0000
  C   C810      1.0  0.93126  0.88358  0.86364  1.0000
  H   H1417     1.0  0.87489  0.92495  0.83069  1.0000
  H   H1418     1.0  0.91701  0.94619  0.79698  1.0000
  H   H1419     1.0  0.87725  0.95184  0.98278  1.0000
  H   H1420     1.0  0.93537  0.86615  0.88210  1.0000
  N   N46       1.0  0.92614  0.95722  0.93752  1.0000
  H   H1421     1.0  0.98366  0.65087  0.92440  1.0000
  H   H1422     1.0  0.97741  0.88711  0.84816  1.0000
  H   H1423     1.0  0.95502  0.62877  0.97251  1.0000
  H   H1424     1.0  0.97391  0.85789  0.68221  1.0000
  C   C811      1.0  0.92773  0.99179  0.88439  1.0000
  H   H1425     1.0  0.79405  0.71073  0.52886  1.0000
  Fe  Fe93      1.0  0.86116  0.61086  0.51180  1.0000
  C   C812      1.0  0.98176  0.89504  0.96672  1.0000
  H   H1426     1.0  0.68745  0.76236  0.94647  1.0000
  H   H1427     1.0  0.74218  0.77504  0.60463  1.0000
  S   S185      1.0  0.84760  0.86232  0.97640  1.0000
  H   H1428     1.0  0.96945  0.52339  0.53421  1.0000
  C   C813      1.0  0.89349  0.95265  0.92917  1.0000
  N   N47       1.0  0.76851  0.79673  0.56494  1.0000
  H   H1429     1.0  0.79867  0.80921  0.50058  1.0000
  C   C814      1.0  0.95718  0.89302  0.71435  1.0000
  H   H1430     1.0  0.82653  0.79722  0.66725  1.0000
  C   C815      1.0  0.75329  0.53602  0.57650  1.0000
  C   C816      1.0  0.94466  0.56724  0.50173  1.0000
  H   H1431     1.0  0.78288  0.83273  0.59762  1.0000
  C   C817      1.0  0.81939  0.51801  0.63599  1.0000
  H   H1432     1.0  0.98557  0.67791  0.97924  1.0000
  H   H1433     1.0  0.77274  0.87252  0.50056  1.0000
  H   H1434     1.0  0.90727  0.98389  0.87103  1.0000
  S   S186      1.0  0.70221  0.69383  0.95144  1.0000
  C   C818      1.0  0.76885  0.76643  0.98797  1.0000
  C   C819      1.0  0.73960  0.79180  0.58415  1.0000
  H   H1435     1.0  0.69448  0.74902  0.59680  1.0000
  H   H1436     1.0  0.69397  0.53386  0.60147  1.0000
  C   C820      1.0  0.97237  0.54277  0.55131  1.0000
  H   H1437     1.0  0.92319  0.88457  0.67549  1.0000
  C   C821      1.0  0.96937  0.75678  0.96565  1.0000
  H   H1438     1.0  0.98637  0.51424  0.84757  1.0000
  H   H1439     1.0  0.97898  0.51741  0.61324  1.0000
  H   H1440     1.0  0.82741  0.61347  0.58226  1.0000
  H   H1441     1.0  0.98838  0.61020  0.98749  1.0000
  H   H1442     1.0  0.80791  0.83076  0.65422  1.0000
  H   H1443     1.0  0.81153  0.62335  0.62305  1.0000
  H   H1444     1.0  0.96596  0.58270  0.85322  1.0000
  H   H1445     1.0  0.83634  0.92821  0.92534  1.0000
  H   H1446     1.0  0.99417  0.87328  0.76680  1.0000
  C   C822      1.0  0.87387  0.93968  0.95835  1.0000
  C   C823      1.0  0.73053  0.50992  0.57684  1.0000
  C   C824      1.0  0.79105  0.81060  0.58890  1.0000
  C   C825      1.0  0.95079  0.56356  0.85777  1.0000
  H   H1447     1.0  0.69868  0.73939  0.89070  1.0000
  H   H1448     1.0  0.83857  0.59386  0.62051  1.0000
  C   C826      1.0  0.79992  0.79253  0.62105  1.0000
  H   H1449     1.0  0.96907  0.88651  0.98919  1.0000
  H   H1450     1.0  0.75227  0.73123  0.56433  1.0000
  H   H1451     1.0  0.74557  0.81022  0.51854  1.0000
  H   H1452     1.0  0.69399  0.62100  0.83030  1.0000
  C   C827      1.0  0.80383  0.55601  0.57841  1.0000
  H   H1453     1.0  0.72216  0.97469  0.58057  1.0000
  H   H1454     1.0  0.93699  0.68671  0.97780  1.0000
  H   H1455     1.0  0.73568  0.86151  0.94421  1.0000
  C   C828      1.0  0.79413  0.58233  0.60162  1.0000
  C   C829      1.0  0.93832  0.92781  0.94967  1.0000
  C   C830      1.0  0.81950  0.60453  0.60715  1.0000
  H   H1456     1.0  0.89193  0.50806  0.59986  1.0000
  H   H1457     1.0  0.68102  0.64934  0.80102  1.0000
  H   H1458     1.0  0.80275  0.56409  0.55138  1.0000
  H   H1459     1.0  0.82785  0.55179  0.58279  1.0000
  H   H1460     1.0  0.72939  0.60283  0.78607  1.0000
  H   H1461     1.0  0.96568  0.97131  0.90932  1.0000
  C   C831      1.0  0.71840  0.81632  0.94809  1.0000
  H   H1462     1.0  0.88296  0.97399  0.92155  1.0000
  H   H1463     1.0  0.72470  0.81477  0.97552  1.0000
  H   H1464     1.0  0.73293  0.81252  0.59777  1.0000
  H   H1465     1.0  0.78639  0.57465  0.62713  1.0000
  H   H1466     1.0  0.67239  0.74341  0.85606  1.0000
  C   C832      1.0  0.97959  0.63046  0.97499  1.0000
  C   C833      1.0  0.68719  0.76961  0.58363  1.0000
  C   C834      1.0  0.84072  0.94099  0.94920  1.0000
  C   C835      1.0  0.75288  0.72893  0.94657  1.0000
  H   H1467     1.0  0.97776  0.98671  0.96429  1.0000
  H   H1468     1.0  0.80713  0.83928  0.52953  1.0000
  C   C836      1.0  0.99346  0.52822  0.86962  1.0000
  H   H1469     1.0  0.97542  0.71664  0.93659  1.0000
  H   H1470     1.0  0.82736  0.93097  0.97024  1.0000
  H   H1471     1.0  0.88751  0.66394  0.98992  1.0000
  H   H1472     1.0  0.98597  0.93422  0.93625  1.0000
  H   H1473     1.0  0.91435  0.91393  0.70525  1.0000
  H   H1474     1.0  0.98603  0.61100  0.92448  1.0000
  H   H1475     1.0  0.80510  0.77120  0.54394  1.0000
  C   C837      1.0  0.81995  0.81084  0.64476  1.0000
  C   C838      1.0  0.74035  0.96354  0.56613  1.0000
  H   H1476     1.0  0.75225  0.83956  0.54808  1.0000
  Fe  Fe94      1.0  0.90323  0.79875  0.96791  1.0000
  C   C839      1.0  0.98614  0.73303  0.95270  1.0000
  H   H1477     1.0  0.94258  0.94649  0.88692  1.0000
  H   H1478     1.0  0.71211  0.52877  0.49188  1.0000
  H   H1479     1.0  0.93338  0.91023  0.93034  1.0000
  H   H1480     1.0  0.77833  0.74145  0.59673  1.0000
  H   H1481     1.0  0.84057  0.81793  0.63114  1.0000
  H   H1482     1.0  0.97806  0.88007  0.94447  1.0000
  H   H1483     1.0  0.75076  0.54775  0.55148  1.0000
  H   H1484     1.0  0.89102  0.93775  0.90663  1.0000
  H   H1485     1.0  0.96144  0.50704  0.93946  1.0000
  C   C840      1.0  0.72803  0.72115  0.96692  1.0000
  H   H1486     1.0  0.99064  0.81656  0.80100  1.0000
  H   H1487     1.0  0.78024  0.78558  0.63630  1.0000
  C   C841      1.0  0.77544  0.73916  0.56876  1.0000
  H   H1488     1.0  0.79185  0.75722  0.94076  1.0000
  H   H1489     1.0  0.86889  0.97665  0.51150  1.0000
  H   H1490     1.0  0.79135  0.97569  0.60410  1.0000
  H   H1491     1.0  0.70344  0.80190  0.54811  1.0000
  H   H1492     1.0  0.83840  0.51226  0.61927  1.0000
  C   C842      1.0  0.73897  0.83952  0.93194  1.0000
  C   C843      1.0  0.93259  0.90355  0.69012  1.0000
  H   H1493     1.0  0.78248  0.97347  0.54285  1.0000
  H   H1494     1.0  0.68163  0.83061  0.91681  1.0000
  H   H1495     1.0  0.77531  0.59432  0.58927  1.0000
  H   H1496     1.0  0.96487  0.91235  0.72932  1.0000
  C   C844      1.0  0.77314  0.75134  0.95697  1.0000
  H   H1497     1.0  0.94662  0.55211  0.83297  1.0000
  S   S187      1.0  0.91778  0.84604  0.95984  1.0000
  H   H1498     1.0  0.74551  0.55197  0.59634  1.0000
  H   H1499     1.0  0.73497  0.64153  0.79565  1.0000
  H   H1500     1.0  0.79173  0.69379  0.57045  1.0000
  C   C845      1.0  0.79670  0.71480  0.55671  1.0000
  C   C846      1.0  0.68943  0.62628  0.80307  1.0000
  H   H1501     1.0  0.84349  0.51131  0.55817  1.0000
  H   H1502     1.0  0.67799  0.58296  0.78236  1.0000
  H   H1503     1.0  0.96855  0.55495  0.90762  1.0000
  H   H1504     1.0  0.94680  0.87715  0.73259  1.0000
  S   S188      1.0  0.98105  0.93246  0.79690  1.0000
  C   C847      1.0  0.66665  0.60457  0.78689  1.0000
  C   C848      1.0  0.96848  0.57129  0.52942  1.0000
  H   H1505     1.0  0.82026  0.72108  0.56191  1.0000
  S   S189      1.0  0.93068  0.75749  0.95802  1.0000
  H   H1506     1.0  0.76262  0.83281  0.93579  1.0000
  C   C849      1.0  0.71928  0.62526  0.78405  1.0000
  H   H1507     1.0  0.88524  0.70360  0.98495  1.0000
  C   C850      1.0  0.69838  0.52126  0.57752  1.0000
  C   C851      1.0  0.78073  0.76869  0.54897  1.0000
  H   H1508     1.0  0.73377  0.49543  0.59951  1.0000
  C   C852      1.0  0.99246  0.63141  0.93864  1.0000
  H   H1509     1.0  0.74840  0.94409  0.58091  1.0000
  C   C853      1.0  0.66437  0.77289  0.89918  1.0000
  H   H1510     1.0  0.98469  0.96100  0.54371  1.0000
  C   C854      1.0  0.66610  0.77286  0.93881  1.0000
  H   H1511     1.0  0.98124  0.84202  0.74322  1.0000
  H   H1512     1.0  0.92923  0.57214  0.86768  1.0000
  H   H1513     1.0  0.97681  0.94041  0.98103  1.0000
  H   H1514     1.0  0.96108  0.58989  0.54612  1.0000
  Fe  Fe95      1.0  0.96457  0.50793  0.70032  1.0000
  H   H1515     1.0  0.72321  0.79482  0.93544  1.0000
  S   S190      1.0  0.98516  0.96771  0.70203  1.0000
  H   H1516     1.0  0.98892  0.89351  0.67266  1.0000
  H   H1517     1.0  0.98379  0.57001  0.61091  1.0000
  H   H1518     1.0  0.95287  0.54178  0.56895  1.0000
  H   H1519     1.0  0.84319  0.98776  0.67931  1.0000
  H   H1520     1.0  0.67969  0.78614  0.60291  1.0000
  S   S191      1.0  0.92540  0.50755  0.66261  1.0000
  C   C855      1.0  0.67480  0.74326  0.88439  1.0000
  C   C856      1.0  0.98331  0.87831  0.69425  1.0000
  H   H1521     1.0  0.71898  0.76546  0.54256  1.0000
  N   N48       1.0  0.78566  0.52796  0.58247  1.0000
  H   H1522     1.0  0.94137  0.92040  0.67190  1.0000
  H   H1523     1.0  0.67859  0.79029  0.88755  1.0000
  H   H1524     1.0  0.68415  0.56247  0.83446  1.0000
  H   H1525     1.0  0.83143  0.97441  0.55791  1.0000
  S   S192      1.0  0.81351  0.62683  0.51031  1.0000
  H   H1526     1.0  0.66798  0.76409  0.56676  1.0000
  Fe  Fe96      1.0  0.98215  0.97162  0.75959  1.0000
  H   H1527     1.0  0.67866  0.53107  0.88611  1.0000
  C   C857      1.0  0.76595  0.98522  0.55909  1.0000
  H   H1528     1.0  0.92298  0.56080  0.51345  1.0000
  C   C858      1.0  0.98339  0.77836  0.98574  1.0000
  H   H1529     1.0  0.98969  0.57795  0.51688  1.0000
  H   H1530     1.0  0.67836  0.56986  0.89742  1.0000
  H   H1531     1.0  0.92606  0.96980  0.99108  1.0000
  H   H1532     1.0  0.80346  0.50435  0.68647  1.0000
  C   C859      1.0  0.78922  0.82865  0.51431  1.0000
  C   C860      1.0  0.78877  0.51416  0.61765  1.0000
  C   C861      1.0  0.79458  0.50641  0.55466  1.0000
  H   H1533     1.0  0.69404  0.53578  0.55506  1.0000
  C   C862      1.0  0.82653  0.49360  0.55639  1.0000
  C   C863      1.0  0.82143  0.49860  0.66799  1.0000
  H   H1534     1.0  0.73277  0.49624  0.55334  1.0000
  H   H1535     1.0  0.68265  0.50217  0.57646  1.0000
  C   C864      1.0  0.66586  0.55206  0.88387  1.0000
  H   H1536     1.0  0.83421  0.99217  0.49673  1.0000
