data_image0
_chemical_formula_structural       FeSHCH2FeHSFeS2FeHFeHS3FeS2C6H5C2HCHC2NSH3CHC3H3C2HC3HCH3NC10H20C2H8CH6C2HSC2H2CH2CH12C2HC2H9CHCHCS2CH4CHC2H2C2H3C2SHC2FeSFeS2H2S2FeSFeS2NH3CHC6H4SCH5C2H4SCH6C3H3CH8C2H2C4HCH2CHCHCH4C2H5CHCH5CH4CHCHCHCFeH2C3HCH2NC4NC2H3C2H3SH12CH2NHCHCH6CHCHC2H4CH2CHCH2CHCHCH9CHC4H2FeH3C2H4NHFeSCH3FeCSFeS2H2C2S2CFeS2C6H4C3H3C2H2C2H3C2HCH6CH5C2H4CH4CH3FeCH6C2HCHCH3CH4C2H4CSH2C2H3CH3CH2CH5CHNC4HC2HCHCH17C2NH3NCH2SHNC4H2FeH2C2HCSCHNCH2CHCH2CHCHSH3FeSFeS2Fe2S2FeSFeS2CH2C2HC6H8C2H2CH3C2NH2SHCH6CHFeHCHSH2CH4C2H2CHCH10CH2NC4H5CSH2C2H3CH2CH2CH2CH2C2SCH2C5HC2H5NC8HCH9CH5CH9CH4SH6CHCHSH4CH5SCH2SCH2C2H4SHCHCHC3HFeCH2CHFeS2H2FeH2FeSFe2SHSH2SHFeS2FeSCFeSFeHS2H2C6H6C3HC3NCH2C6H4S2CHCHC2H3C2HC2NHCH4C2HCH2CH4C2H3C2H2C3H6CH3SHCHCHCHNC4HC4H13CH8SH4SCH4CHC2HCH6C2H2C2HCH4CH8CHSCH2CS2CH4C2H2CHCS3C2H2NH4C2HCHCH3CH3FeS2H2C2FeS2FeS2FeS2FeSFeS3HCHCH2C2H4CH3C8H5CH2C2HC6H4FeH3CH4CHC2H3C2H2Fe2CHC2H4SH8NCH4CHSH3C2H2CSHCHCH2C2H4CHCH2CHCH2SH5CNC2HC3HC2HC2H5FeH4CH5CH2NH10SC2H2CHCNC2SH3CHC5H4CH3CH3CHCH2CH6CH8FeS2C2FeCHFeH2FeSHSCH3FeS2FeSCFeSFeHS2HC7H4CHC3H3CHCH2C6H5CH8CH3C3H5CH3CH3SH2CHCH5SH3C3H2CH2CHCH2C2HCHC2HSCH5SH3CSH2C2H7CHCSHCHC3HCHC3H3SH5NCH2CNC2HC6H4NHN2HCFeH5C3HCH4FeHCH2C3H4CH4C2H3SH5SCHCH2CSHFeS4H2FeS2FeS2FeS2FeSFeS3H2C2HCH2C2SHC2HSC8H4CH6C6H6CHCSCH7CHC4H3CH2C2H3CHCHFeH2CHCHC2HFeH2NH4CH3C3HFeH2C6H2CH3C3H4CH3C2H4NHNH3CHCH2CH2CH4CHCH2C2H2CH3C3H2CH5C2H9CSCHCH5CH2FeSH3FeSH2SHSFeS2FeCSFeHFe2S2CHC4HCHCH2CH5C2H2CHC3H3C6H8CH2CH7SCH6CH2CHCH5CHCH2SHCSHC3H2C2HC3HCH3CH3CH2CH5C2SH2CH3NHCHC2H2C2H2C2HCSCH4C2SC3HC2H2CH2CH7NH4C2H3CH2SNC3HCHFeSHFeH11C3HNC2H3CHNHCH2CHCH2SH2CSCHCFeSHFeCSFeSH2S2CSH2C2HCH2CHC6H6CH4CNCH3CSH5CH4C2H4C2H2C3H5CHFeHCHCH3CHFeHC2H2CH5CH5CHC2HC3NHSH4CH4CHCSFeHCH2CH2CNCH3C2FeH2SH3C3H3C2H2C2SH2CH2CH2C4S2HCHFeS2H2CSFeS2FeNSFeHFeHS2HC5H2C2NH3CHCHCH4SC3NHC7H6FeCHCFeHC3H2CHC2H7CHCSH2NC11H13CH6CHC2HSCH3C3H6SC4HCHCNCH3CHCSHCH5CHCH10CSCSH2CHCH5CH6C2H2CH6FeCH10CH4CHNC2HCHCH2CH4CHSCH4C2H2CH3CH3SH2CFeSCFeS2FeSH2S2HSH2CH3CHCHC6H4CHNCH2CH3NC8HCH11CH5CH6C4H2CHC2SHSHCH3CH2CH3SH4FeHCH3CH3CHNC2H2CH3CFeHC2HCHCFe2H14CHCH2CH4C2HC2HC2H3CH5CH2FeHC3H2CH2CHCHCH3CH
_chemical_formula_sum              "Fe96 S192 H1536 C864 N48"
_cell_length_a       63.224
_cell_length_b       49.7277
_cell_length_c       31.726
_cell_angle_alpha    89.7461
_cell_angle_beta     89.8371
_cell_angle_gamma    90.1307

_space_group_name_H-M_alt    "P 1"
_space_group_IT_number       1

loop_
  _space_group_symop_operation_xyz
  'x, y, z'

loop_
  _atom_site_type_symbol
  _atom_site_label
  _atom_site_symmetry_multiplicity
  _atom_site_fract_x
  _atom_site_fract_y
  _atom_site_fract_z
  _atom_site_occupancy
  Fe  Fe1       1.0  0.31439  0.35703  0.06597  1.0000
  S   S1        1.0  0.27853  0.35812  0.07505  1.0000
  H   H1        1.0  0.04373  0.03491  0.27051  1.0000
  C   C1        1.0  0.29120  0.26925  0.09474  1.0000
  H   H2        1.0  0.07353  0.99874  0.07784  1.0000
  H   H3        1.0  0.29876  0.45444  0.99446  1.0000
  Fe  Fe2       1.0  0.17347  0.10269  0.05764  1.0000
  H   H4        1.0  0.09059  0.16081  0.10723  1.0000
  S   S2        1.0  0.20801  0.08985  0.05905  1.0000
  Fe  Fe3       1.0  0.13197  0.11674  0.10573  1.0000
  S   S3        1.0  0.11392  0.12289  0.04520  1.0000
  S   S4        1.0  0.11916  0.12352  0.17299  1.0000
  Fe  Fe4       1.0  0.13061  0.08516  0.02387  1.0000
  H   H5        1.0  0.17495  0.20111  0.21059  1.0000
  Fe  Fe5       1.0  0.14307  0.14472  0.02229  1.0000
  H   H6        1.0  0.26294  0.45088  0.06136  1.0000
  S   S5        1.0  0.14700  0.07763  0.08544  1.0000
  S   S6        1.0  0.16039  0.14111  0.08384  1.0000
  S   S7        1.0  0.14121  0.43120  0.01230  1.0000
  Fe  Fe6       1.0  0.01099  0.10566  0.32785  1.0000
  S   S8        1.0  0.03006  0.10164  0.26559  1.0000
  S   S9        1.0  0.01739  0.10041  0.39819  1.0000
  C   C2        1.0  0.09387  0.11939  0.19779  1.0000
  C   C3        1.0  0.09233  0.12135  0.24201  1.0000
  C   C4        1.0  0.07292  0.11676  0.26328  1.0000
  C   C5        1.0  0.05471  0.10998  0.24062  1.0000
  C   C6        1.0  0.05621  0.10852  0.19630  1.0000
  C   C7        1.0  0.07554  0.11345  0.17501  1.0000
  H   H7        1.0  0.10633  0.12601  0.26011  1.0000
  H   H8        1.0  0.07216  0.11794  0.29730  1.0000
  H   H9        1.0  0.04226  0.10346  0.17830  1.0000
  H   H10       1.0  0.07633  0.11223  0.14103  1.0000
  H   H11       1.0  0.23242  0.46606  0.00551  1.0000
  C   C8        1.0  0.24722  0.08974  0.02074  1.0000
  C   C9        1.0  0.09875  0.00758  0.12430  1.0000
  H   H12       1.0  0.14481  0.04773  0.24126  1.0000
  C   C10       1.0  0.07296  0.04536  0.12106  1.0000
  H   H13       1.0  0.25214  0.07776  0.04750  1.0000
  C   C11       1.0  0.07443  0.01612  0.18327  1.0000
  C   C12       1.0  0.06675  0.07311  0.05489  1.0000
  N   N1        1.0  0.08751  0.02917  0.14894  1.0000
  S   S10       1.0  0.11812  0.30071  0.00304  1.0000
  H   H14       1.0  0.29011  0.40801  0.01749  1.0000
  H   H15       1.0  0.06804  0.46517  0.03446  1.0000
  H   H16       1.0  0.14815  0.02790  0.03266  1.0000
  C   C13       1.0  0.11522  0.24626  0.01594  1.0000
  H   H17       1.0  0.10174  0.25095  0.03566  1.0000
  C   C14       1.0  0.16124  0.17832  0.26119  1.0000
  C   C15       1.0  0.13391  0.46430  0.99869  1.0000
  C   C16       1.0  0.11900  0.03554  0.20046  1.0000
  H   H18       1.0  0.09634  0.07048  0.08718  1.0000
  H   H19       1.0  0.11262  0.20323  0.02564  1.0000
  H   H20       1.0  0.28438  0.28976  0.09776  1.0000
  C   C17       1.0  0.14162  0.01321  0.01131  1.0000
  C   C18       1.0  0.13883  0.21322  0.98522  1.0000
  H   H21       1.0  0.15570  0.21896  0.24165  1.0000
  C   C19       1.0  0.25993  0.35667  0.03298  1.0000
  C   C20       1.0  0.23827  0.36015  0.04167  1.0000
  C   C21       1.0  0.07930  0.47973  0.04853  1.0000
  H   H22       1.0  0.29082  0.44463  0.07040  1.0000
  C   C22       1.0  0.12141  0.21931  0.01062  1.0000
  H   H23       1.0  0.23320  0.36363  0.07378  1.0000
  H   H24       1.0  0.14610  0.17637  0.27885  1.0000
  H   H25       1.0  0.17383  0.18432  0.28362  1.0000
  N   N2        1.0  0.13907  0.20982  0.15671  1.0000
  C   C23       1.0  0.12266  0.19701  0.12863  1.0000
  C   C24       1.0  0.16029  0.21136  0.13438  1.0000
  C   C25       1.0  0.14160  0.19168  0.19474  1.0000
  C   C26       1.0  0.13228  0.23718  0.17188  1.0000
  C   C27       1.0  0.12715  0.25830  0.13738  1.0000
  C   C28       1.0  0.10000  0.19426  0.14720  1.0000
  C   C29       1.0  0.16024  0.21640  0.08604  1.0000
  C   C30       1.0  0.18261  0.22091  0.06904  1.0000
  C   C31       1.0  0.11702  0.28335  0.15641  1.0000
  C   C32       1.0  0.08503  0.18131  0.11539  1.0000
  H   H26       1.0  0.12795  0.17653  0.11927  1.0000
  H   H27       1.0  0.12094  0.20828  0.09874  1.0000
  H   H28       1.0  0.17045  0.22707  0.14904  1.0000
  H   H29       1.0  0.16910  0.19209  0.13833  1.0000
  H   H30       1.0  0.14478  0.17068  0.18432  1.0000
  H   H31       1.0  0.12678  0.19077  0.21360  1.0000
  H   H32       1.0  0.11839  0.23531  0.19337  1.0000
  H   H33       1.0  0.14489  0.24642  0.19144  1.0000
  H   H34       1.0  0.11605  0.25043  0.11347  1.0000
  H   H35       1.0  0.14196  0.26498  0.12165  1.0000
  H   H36       1.0  0.09974  0.18129  0.17568  1.0000
  H   H37       1.0  0.09343  0.21425  0.15535  1.0000
  H   H38       1.0  0.15371  0.19859  0.06963  1.0000
  H   H39       1.0  0.15061  0.23399  0.07700  1.0000
  H   H40       1.0  0.18199  0.22366  0.03428  1.0000
  H   H41       1.0  0.18973  0.23922  0.08309  1.0000
  H   H42       1.0  0.19274  0.20321  0.07596  1.0000
  H   H43       1.0  0.12769  0.29262  0.18005  1.0000
  H   H44       1.0  0.11403  0.29835  0.13103  1.0000
  H   H45       1.0  0.10167  0.27822  0.17159  1.0000
  C   C33       1.0  0.22307  0.35918  0.00916  1.0000
  C   C34       1.0  0.08292  0.05690  0.08005  1.0000
  H   H46       1.0  0.06897  0.17951  0.12940  1.0000
  H   H47       1.0  0.08400  0.00122  0.20121  1.0000
  H   H48       1.0  0.21322  0.00111  0.04114  1.0000
  H   H49       1.0  0.06657  0.06284  0.13858  1.0000
  H   H50       1.0  0.21947  0.03561  0.02880  1.0000
  H   H51       1.0  0.06133  0.00421  0.16921  1.0000
  H   H52       1.0  0.30633  0.26873  0.11240  1.0000
  H   H53       1.0  0.12897  0.01964  0.18621  1.0000
  C   C35       1.0  0.27765  0.42366  0.01615  1.0000
  H   H54       1.0  0.21000  0.46365  0.04016  1.0000
  H   H55       1.0  0.30654  0.27787  0.03616  1.0000
  H   H56       1.0  0.05289  0.04956  0.19905  1.0000
  H   H57       1.0  0.09314  0.46838  0.06069  1.0000
  H   H58       1.0  0.20650  0.36191  0.01647  1.0000
  H   H59       1.0  0.05876  0.03338  0.11224  1.0000
  C   C36       1.0  0.21494  0.46429  0.00665  1.0000
  C   C37       1.0  0.05110  0.02033  0.24843  1.0000
  H   H60       1.0  0.99913  0.26764  0.44294  1.0000
  S   S11       1.0  0.15782  0.10755  0.99543  1.0000
  C   C38       1.0  0.13385  0.05699  0.21810  1.0000
  C   C39       1.0  0.10390  0.04786  0.16715  1.0000
  H   H61       1.0  0.01862  0.99820  0.44020  1.0000
  H   H62       1.0  0.11417  0.05618  0.14182  1.0000
  C   C40       1.0  0.22616  0.09869  0.01829  1.0000
  H   H63       1.0  0.03828  0.00849  0.23339  1.0000
  H   H64       1.0  0.30299  0.24262  0.04729  1.0000
  C   C41       1.0  0.29529  0.26263  0.04843  1.0000
  H   H65       1.0  0.11015  0.02678  0.22745  1.0000
  H   H66       1.0  0.25436  0.98447  0.01163  1.0000
  H   H67       1.0  0.06094  0.09044  0.07358  1.0000
  H   H68       1.0  0.08401  0.19371  0.08625  1.0000
  H   H69       1.0  0.14294  0.47988  0.05931  1.0000
  H   H70       1.0  0.19251  0.02599  0.04118  1.0000
  H   H71       1.0  0.09623  0.06567  0.18140  1.0000
  H   H72       1.0  0.27101  0.02961  0.99891  1.0000
  H   H73       1.0  0.27148  0.41918  0.08309  1.0000
  H   H74       1.0  0.26711  0.28293  0.02847  1.0000
  H   H75       1.0  0.08870  0.04058  0.05934  1.0000
  H   H76       1.0  0.26238  0.41385  0.00848  1.0000
  C   C42       1.0  0.27440  0.26289  0.02291  1.0000
  C   C43       1.0  0.20735  0.01958  0.02528  1.0000
  H   H77       1.0  0.21766  0.42074  0.00309  1.0000
  C   C44       1.0  0.15930  0.19949  0.22630  1.0000
  C   C45       1.0  0.06393  0.03566  0.21522  1.0000
  H   H78       1.0  0.11042  0.01666  0.10193  1.0000
  H   H79       1.0  0.07431  0.08099  0.02566  1.0000
  H   H80       1.0  0.06148  0.00667  0.26685  1.0000
  H   H81       1.0  0.05318  0.06021  0.04574  1.0000
  H   H82       1.0  0.14340  0.06632  0.19242  1.0000
  H   H83       1.0  0.19163  0.43334  0.99161  1.0000
  H   H84       1.0  0.12468  0.07296  0.23430  1.0000
  H   H85       1.0  0.16545  0.15846  0.24764  1.0000
  H   H86       1.0  0.28019  0.25436  0.10910  1.0000
  C   C46       1.0  0.27560  0.43546  0.06037  1.0000
  H   H87       1.0  0.07588  0.04785  0.23218  1.0000
  C   C47       1.0  0.14937  0.98676  0.01149  1.0000
  H   H88       1.0  0.26337  0.24817  0.03785  1.0000
  C   C48       1.0  0.12630  0.26717  0.99563  1.0000
  S   S12       1.0  0.32620  0.36203  0.00019  1.0000
  S   S13       1.0  0.15926  0.36069  0.99460  1.0000
  C   C49       1.0  0.08433  0.98794  0.09950  1.0000
  H   H89       1.0  0.10835  0.99479  0.14576  1.0000
  H   H90       1.0  0.27165  0.46230  0.98663  1.0000
  H   H91       1.0  0.27823  0.08950  0.99151  1.0000
  H   H92       1.0  0.29495  0.99089  0.01179  1.0000
  C   C50       1.0  0.00648  0.98877  0.45932  1.0000
  H   H93       1.0  0.27966  0.20834  0.02343  1.0000
  C   C51       1.0  0.26618  0.35225  0.99121  1.0000
  C   C52       1.0  0.28047  0.20640  0.98867  1.0000
  H   H94       1.0  0.31076  0.18548  0.99198  1.0000
  H   H95       1.0  0.28791  0.16382  0.99293  1.0000
  C   C53       1.0  0.26208  0.09644  0.98907  1.0000
  C   C54       1.0  0.20884  0.43723  0.98730  1.0000
  H   H96       1.0  0.23941  0.28960  0.98837  1.0000
  H   H97       1.0  0.28269  0.34949  0.98385  1.0000
  H   H98       1.0  0.99953  0.22051  0.41668  1.0000
  C   C55       1.0  0.28349  0.44588  0.98356  1.0000
  C   C56       1.0  0.12520  0.02039  0.98415  1.0000
  S   S14       1.0  0.11438  0.05310  0.98490  1.0000
  H   H99       1.0  0.06224  0.48026  0.10703  1.0000
  C   C57       1.0  0.22005  0.11418  0.98346  1.0000
  C   C58       1.0  0.28519  0.99091  0.98285  1.0000
  Fe  Fe7       1.0  0.17507  0.35853  0.93166  1.0000
  S   S15       1.0  0.21091  0.35292  0.92519  1.0000
  Fe  Fe8       1.0  0.13223  0.36628  0.88397  1.0000
  S   S16       1.0  0.11419  0.37005  0.94507  1.0000
  S   S17       1.0  0.11815  0.36582  0.81662  1.0000
  H   H100      1.0  0.05243  0.39175  0.66797  1.0000
  H   H101      1.0  0.21840  0.26497  0.91011  1.0000
  S   S18       1.0  0.15836  0.39476  0.90478  1.0000
  S   S19       1.0  0.15083  0.32983  0.90495  1.0000
  Fe  Fe9       1.0  0.30948  0.11329  0.91763  1.0000
  S   S20       1.0  0.27394  0.12053  0.91315  1.0000
  Fe  Fe10      1.0  0.00903  0.34825  0.66425  1.0000
  S   S21       1.0  0.02743  0.35230  0.72717  1.0000
  S   S22       1.0  0.01432  0.35656  0.59455  1.0000
  N   N3        1.0  0.28510  0.43704  0.93814  1.0000
  H   H102      1.0  0.20866  0.29242  0.94148  1.0000
  H   H103      1.0  0.07589  0.31945  0.86745  1.0000
  H   H104      1.0  0.16292  0.22941  0.94412  1.0000
  C   C59       1.0  0.23487  0.12078  0.95172  1.0000
  H   H105      1.0  0.22998  0.13285  0.92504  1.0000
  C   C60       1.0  0.09269  0.36177  0.79269  1.0000
  C   C61       1.0  0.07375  0.36337  0.81553  1.0000
  C   C62       1.0  0.05407  0.36017  0.79498  1.0000
  C   C63       1.0  0.05291  0.35549  0.75123  1.0000
  C   C64       1.0  0.07183  0.35389  0.72837  1.0000
  C   C65       1.0  0.09150  0.35710  0.74894  1.0000
  H   H106      1.0  0.07427  0.36749  0.84896  1.0000
  H   H107      1.0  0.03961  0.36164  0.81311  1.0000
  H   H108      1.0  0.07135  0.35014  0.69483  1.0000
  H   H109      1.0  0.10596  0.35600  0.73071  1.0000
  S   S23       1.0  0.32732  0.07738  0.89293  1.0000
  C   C66       1.0  0.08445  0.31236  0.89544  1.0000
  H   H110      1.0  0.12328  0.45496  0.93608  1.0000
  H   H111      1.0  0.10424  0.00649  0.93536  1.0000
  H   H112      1.0  0.05461  0.29392  0.83291  1.0000
  H   H113      1.0  0.00255  0.29461  0.84522  1.0000
  H   H114      1.0  0.07644  0.45629  0.79007  1.0000
  C   C67       1.0  0.01043  0.45015  0.70304  1.0000
  C   C68       1.0  0.30865  0.47858  0.92138  1.0000
  H   H115      1.0  0.25600  0.34751  0.92673  1.0000
  H   H116      1.0  0.10597  0.18674  0.86362  1.0000
  H   H117      1.0  0.28917  0.45713  0.87760  1.0000
  H   H118      1.0  0.30423  0.28283  0.96854  1.0000
  S   S24       1.0  0.14714  0.17983  0.97709  1.0000
  C   C69       1.0  0.07743  0.43217  0.73275  1.0000
  H   H119      1.0  0.06004  0.36677  0.60304  1.0000
  H   H120      1.0  0.08566  0.44849  0.71525  1.0000
  H   H121      1.0  0.06724  0.24874  0.84117  1.0000
  H   H122      1.0  0.29708  0.39665  0.87558  1.0000
  H   H123      1.0  0.11023  0.27446  0.76707  1.0000
  H   H124      1.0  0.24549  0.23917  0.97684  1.0000
  C   C70       1.0  0.08163  0.43603  0.77977  1.0000
  C   C71       1.0  0.29005  0.28075  0.90765  1.0000
  C   C72       1.0  0.04105  0.47372  0.62380  1.0000
  H   H125      1.0  0.14935  0.30642  0.79589  1.0000
  H   H126      1.0  0.06137  0.42801  0.59042  1.0000
  H   H127      1.0  0.27109  0.02202  0.94317  1.0000
  C   C73       1.0  0.25452  0.25438  0.95822  1.0000
  H   H128      1.0  0.20397  0.12135  0.98113  1.0000
  H   H129      1.0  0.19946  0.98782  0.85874  1.0000
  H   H130      1.0  0.03926  0.26014  0.78452  1.0000
  H   H131      1.0  0.25547  0.03442  0.87655  1.0000
  H   H132      1.0  0.16491  0.00906  0.91940  1.0000
  H   H133      1.0  0.04637  0.44875  0.74162  1.0000
  H   H134      1.0  0.00751  0.32632  0.92747  1.0000
  H   H135      1.0  0.27469  0.27724  0.89189  1.0000
  C   C74       1.0  0.29893  0.30739  0.89095  1.0000
  C   C75       1.0  0.10855  0.19701  0.89419  1.0000
  H   H136      1.0  0.00964  0.44212  0.73575  1.0000
  H   H137      1.0  0.23299  0.05685  0.93345  1.0000
  C   C76       1.0  0.28896  0.23253  0.96757  1.0000
  C   C77       1.0  0.18924  0.98585  0.88716  1.0000
  C   C78       1.0  0.20344  0.01393  0.97867  1.0000
  C   C79       1.0  0.05610  0.98399  0.56896  1.0000
  H   H138      1.0  0.14521  0.29236  0.74422  1.0000
  C   C80       1.0  0.05766  0.41135  0.65417  1.0000
  H   H139      1.0  0.05915  0.26861  0.74531  1.0000
  H   H140      1.0  0.25167  0.44614  0.87292  1.0000
  C   C81       1.0  0.06481  0.28585  0.80743  1.0000
  H   H141      1.0  0.29520  0.03185  0.96902  1.0000
  C   C82       1.0  0.11195  0.28903  0.83258  1.0000
  H   H142      1.0  0.27007  0.42068  0.85730  1.0000
  C   C83       1.0  0.30335  0.41762  0.93482  1.0000
  H   H143      1.0  0.08436  0.25063  0.79750  1.0000
  H   H144      1.0  0.13207  0.26085  0.79693  1.0000
  H   H145      1.0  0.31350  0.42639  0.86947  1.0000
  H   H146      1.0  0.29960  0.39874  0.95216  1.0000
  C   C84       1.0  0.07846  0.26247  0.82478  1.0000
  C   C85       1.0  0.22933  0.35458  0.96748  1.0000
  H   H147      1.0  0.07458  0.30224  0.79382  1.0000
  H   H148      1.0  0.05612  0.30989  0.93473  1.0000
  H   H149      1.0  0.23330  0.40899  0.83803  1.0000
  H   H150      1.0  0.17689  0.03982  0.97111  1.0000
  H   H151      1.0  0.31465  0.31160  0.90499  1.0000
  C   C86       1.0  0.13714  0.30042  0.77259  1.0000
  H   H152      1.0  0.22543  0.40994  0.89262  1.0000
  C   C87       1.0  0.29471  0.18241  0.97874  1.0000
  H   H153      1.0  0.09976  0.32332  0.89632  1.0000
  H   H154      1.0  0.07402  0.27096  0.90507  1.0000
  H   H155      1.0  0.20115  0.05690  0.96633  1.0000
  H   H156      1.0  0.08072  0.22097  0.88649  1.0000
  H   H157      1.0  0.29477  0.98295  0.95641  1.0000
  C   C88       1.0  0.04995  0.27624  0.77263  1.0000
  H   H158      1.0  0.04012  0.29335  0.76149  1.0000
  H   H159      1.0  0.12582  0.19941  0.89925  1.0000
  H   H160      1.0  0.10449  0.30860  0.82515  1.0000
  H   H161      1.0  0.24409  0.38497  0.87465  1.0000
  C   C89       1.0  0.23890  0.40617  0.87090  1.0000
  H   H162      1.0  0.09885  0.43405  0.78606  1.0000
  C   C90       1.0  0.14958  0.23407  0.96421  1.0000
  H   H163      1.0  0.06575  0.99192  0.59532  1.0000
  C   C91       1.0  0.25598  0.11210  0.95441  1.0000
  H   H164      1.0  0.12490  0.29399  0.85495  1.0000
  C   C92       1.0  0.12534  0.47059  0.95933  1.0000
  Fe  Fe11      1.0  0.13389  0.33480  0.96663  1.0000
  H   H165      1.0  0.09820  0.23214  0.92729  1.0000
  H   H166      1.0  0.25109  0.43206  0.94479  1.0000
  C   C93       1.0  0.25723  0.42538  0.87978  1.0000
  C   C94       1.0  0.26447  0.42342  0.92645  1.0000
  C   C95       1.0  0.10857  0.24437  0.86376  1.0000
  H   H167      1.0  0.03724  0.40893  0.59791  1.0000
  C   C96       1.0  0.08862  0.28164  0.89455  1.0000
  H   H168      1.0  0.00135  0.34312  0.83181  1.0000
  H   H169      1.0  0.16961  0.01743  0.86554  1.0000
  N   N4        1.0  0.19119  0.03663  0.90926  1.0000
  C   C97       1.0  0.21271  0.03529  0.88855  1.0000
  C   C98       1.0  0.17775  0.01286  0.89587  1.0000
  C   C99       1.0  0.18059  0.06211  0.89400  1.0000
  C   C100      1.0  0.12237  0.27905  0.79118  1.0000
  N   N5        1.0  0.09657  0.26988  0.85354  1.0000
  C   C101      1.0  0.22858  0.05794  0.89961  1.0000
  C   C102      1.0  0.15657  0.06476  0.90395  1.0000
  H   H170      1.0  0.11218  0.23305  0.83443  1.0000
  H   H171      1.0  0.10046  0.27835  0.92008  1.0000
  H   H172      1.0  0.02685  0.32430  0.88530  1.0000
  C   C103      1.0  0.24884  0.05498  0.87353  1.0000
  C   C104      1.0  0.14780  0.09138  0.88731  1.0000
  H   H173      1.0  0.21081  0.03504  0.85360  1.0000
  H   H174      1.0  0.22097  0.01633  0.89654  1.0000
  H   H175      1.0  0.25522  0.24600  0.92576  1.0000
  S   S25       1.0  0.32505  0.11214  0.98063  1.0000
  H   H176      1.0  0.18239  0.06421  0.85916  1.0000
  H   H177      1.0  0.18832  0.08015  0.90793  1.0000
  H   H178      1.0  0.08077  0.99245  0.52236  1.0000
  H   H179      1.0  0.06157  0.38410  0.55310  1.0000
  H   H180      1.0  0.12803  0.31848  0.76304  1.0000
  H   H181      1.0  0.24565  0.05931  0.83977  1.0000
  H   H182      1.0  0.22207  0.07817  0.89285  1.0000
  H   H183      1.0  0.15206  0.27690  0.95377  1.0000
  H   H184      1.0  0.15366  0.06394  0.93826  1.0000
  H   H185      1.0  0.14711  0.04848  0.88938  1.0000
  H   H186      1.0  0.08277  0.38742  0.59065  1.0000
  H   H187      1.0  0.32639  0.37215  0.90813  1.0000
  C   C105      1.0  0.06534  0.38558  0.58720  1.0000
  H   H188      1.0  0.30117  0.26462  0.89805  1.0000
  H   H189      1.0  0.01772  0.43209  0.64220  1.0000
  N   N6        1.0  0.04714  0.43422  0.67729  1.0000
  H   H190      1.0  0.12421  0.24930  0.87813  1.0000
  C   C106      1.0  0.14342  0.26097  0.96953  1.0000
  H   H191      1.0  0.21255  0.43687  0.95311  1.0000
  C   C107      1.0  0.09753  0.22434  0.89455  1.0000
  H   H192      1.0  0.28016  0.30052  0.96560  1.0000
  H   H193      1.0  0.13093  0.09329  0.89676  1.0000
  H   H194      1.0  0.15665  0.10871  0.90058  1.0000
  H   H195      1.0  0.14882  0.09215  0.85238  1.0000
  H   H196      1.0  0.26486  0.40179  0.93557  1.0000
  H   H197      1.0  0.04669  0.41312  0.73731  1.0000
  C   C108      1.0  0.11695  0.00105  0.95647  1.0000
  H   H198      1.0  0.27469  0.47574  0.91516  1.0000
  C   C109      1.0  0.25098  0.35111  0.95880  1.0000
  H   H199      1.0  0.26094  0.06940  0.88469  1.0000
  C   C110      1.0  0.28849  0.46200  0.91162  1.0000
  C   C111      1.0  0.07154  0.32050  0.93410  1.0000
  H   H200      1.0  0.03714  0.45916  0.59873  1.0000
  H   H201      1.0  0.07114  0.45971  0.64906  1.0000
  H   H202      1.0  0.21036  0.25932  0.96436  1.0000
  H   H203      1.0  0.24730  0.29514  0.93456  1.0000
  C   C112      1.0  0.02347  0.43059  0.67508  1.0000
  H   H204      1.0  0.07509  0.41218  0.65801  1.0000
  H   H205      1.0  0.08464  0.41266  0.72391  1.0000
  C   C113      1.0  0.01347  0.31375  0.90113  1.0000
  H   H206      1.0  0.30583  0.23526  0.97660  1.0000
  C   C114      1.0  0.05334  0.43195  0.72322  1.0000
  H   H207      1.0  0.03941  0.99037  0.57339  1.0000
  H   H208      1.0  0.01906  0.40978  0.68502  1.0000
  C   C115      1.0  0.28021  0.02034  0.97286  1.0000
  H   H209      1.0  0.00080  0.30771  0.77698  1.0000
  C   C116      1.0  0.19284  0.03814  0.95663  1.0000
  H   H210      1.0  0.30081  0.30631  0.85620  1.0000
  C   C117      1.0  0.05426  0.41012  0.60597  1.0000
  H   H211      1.0  0.05430  0.98994  0.50089  1.0000
  H   H212      1.0  0.19282  0.99616  0.97702  1.0000
  H   H213      1.0  0.07319  0.42049  0.79865  1.0000
  H   H214      1.0  0.08019  0.31567  0.96348  1.0000
  H   H215      1.0  0.28805  0.32420  0.89848  1.0000
  H   H216      1.0  0.28940  0.22841  0.93313  1.0000
  H   H217      1.0  0.33077  0.02282  0.83553  1.0000
  H   H218      1.0  0.26444  0.20144  0.97684  1.0000
  H   H219      1.0  0.05477  0.47654  0.68546  1.0000
  C   C118      1.0  0.21818  0.27367  0.94230  1.0000
  H   H220      1.0  0.02581  0.48142  0.63617  1.0000
  C   C119      1.0  0.05443  0.46114  0.66006  1.0000
  C   C120      1.0  0.28782  0.28132  0.95634  1.0000
  C   C121      1.0  0.06382  0.99710  0.52802  1.0000
  C   C122      1.0  0.32960  0.39120  0.89087  1.0000
  H   H221      1.0  0.31763  0.42580  0.95087  1.0000
  H   H222      1.0  0.32301  0.46584  0.92021  1.0000
  Fe  Fe12      1.0  0.14142  0.39574  0.96721  1.0000
  H   H223      1.0  0.01937  0.29449  0.91443  1.0000
  H   H224      1.0  0.01782  0.47035  0.70460  1.0000
  H   H225      1.0  0.06862  0.34251  0.93329  1.0000
  C   C123      1.0  0.30983  0.40886  0.88990  1.0000
  C   C124      1.0  0.24064  0.28012  0.95690  1.0000
  H   H226      1.0  0.10211  0.18408  0.91987  1.0000
  H   H227      1.0  0.21893  0.00908  0.96428  1.0000
  H   H228      1.0  0.29598  0.17932  0.94415  1.0000
  H   H229      1.0  0.06205  0.01928  0.53014  1.0000
  N   N7        1.0  0.27645  0.25774  0.97620  1.0000
  H   H230      1.0  0.99859  0.27041  0.72601  1.0000
  Fe  Fe13      1.0  0.31762  0.85236  0.04486  1.0000
  S   S26       1.0  0.28195  0.84729  0.05477  1.0000
  C   C125      1.0  0.16064  0.71433  0.10516  1.0000
  H   H231      1.0  0.18289  0.55813  0.04336  1.0000
  H   H232      1.0  0.28610  0.75566  0.07198  1.0000
  H   H233      1.0  0.14349  0.71823  0.10973  1.0000
  Fe  Fe14      1.0  0.16084  0.61525  0.04623  1.0000
  C   C126      1.0  0.19309  0.51579  0.04177  1.0000
  S   S27       1.0  0.19653  0.61269  0.05645  1.0000
  Fe  Fe15      1.0  0.11556  0.62164  0.08323  1.0000
  S   S28       1.0  0.10170  0.62060  0.01769  1.0000
  S   S29       1.0  0.08826  0.62780  0.13069  1.0000
  H   H234      1.0  0.03502  0.58804  0.04200  1.0000
  H   H235      1.0  0.16972  0.72873  0.12480  1.0000
  C   C127      1.0  0.11725  0.75141  0.01090  1.0000
  C   C128      1.0  0.29676  0.75918  0.98580  1.0000
  S   S30       1.0  0.13662  0.58560  0.07179  1.0000
  S   S31       1.0  0.14114  0.65136  0.06404  1.0000
  C   C129      1.0  0.17767  0.54067  0.10432  1.0000
  Fe  Fe16      1.0  0.01841  0.60234  0.34470  1.0000
  S   S32       1.0  0.05198  0.60391  0.31644  1.0000
  S   S33       1.0  0.01385  0.60133  0.41571  1.0000
  C   C130      1.0  0.07862  0.62035  0.18246  1.0000
  C   C131      1.0  0.09168  0.61096  0.21484  1.0000
  C   C132      1.0  0.08319  0.60574  0.25536  1.0000
  C   C133      1.0  0.06151  0.60948  0.26404  1.0000
  C   C134      1.0  0.04841  0.61854  0.23150  1.0000
  C   C135      1.0  0.05694  0.62408  0.19115  1.0000
  H   H236      1.0  0.10838  0.60825  0.20892  1.0000
  H   H237      1.0  0.09354  0.59893  0.28030  1.0000
  H   H238      1.0  0.03174  0.62165  0.23757  1.0000
  H   H239      1.0  0.04665  0.63136  0.16644  1.0000
  C   C136      1.0  0.21553  0.61176  0.01484  1.0000
  C   C137      1.0  0.23689  0.60725  0.02458  1.0000
  C   C138      1.0  0.08409  0.51460  0.10621  1.0000
  H   H240      1.0  0.07905  0.75672  0.41871  1.0000
  H   H241      1.0  0.20644  0.55162  0.07321  1.0000
  H   H242      1.0  0.24140  0.60340  0.05692  1.0000
  C   C139      1.0  0.05276  0.56037  0.08148  1.0000
  C   C140      1.0  0.28763  0.91889  0.11003  1.0000
  H   H243      1.0  0.05990  0.50415  0.17584  1.0000
  H   H244      1.0  0.02740  0.67606  0.31457  1.0000
  C   C141      1.0  0.00553  0.70667  0.47693  1.0000
  C   C142      1.0  0.07086  0.70001  0.27863  1.0000
  H   H245      1.0  0.13226  0.52686  0.04292  1.0000
  H   H246      1.0  0.17024  0.78968  0.99723  1.0000
  H   H247      1.0  0.17610  0.56075  0.11924  1.0000
  C   C143      1.0  0.13643  0.48473  0.02872  1.0000
  C   C144      1.0  0.22097  0.71138  0.00399  1.0000
  H   H248      1.0  0.31363  0.75288  0.98611  1.0000
  C   C145      1.0  0.26796  0.52522  0.99396  1.0000
  H   H249      1.0  0.10972  0.75798  0.03973  1.0000
  H   H250      1.0  0.08987  0.75983  0.36593  1.0000
  H   H251      1.0  0.23045  0.54220  0.02699  1.0000
  H   H252      1.0  0.02879  0.50935  0.22637  1.0000
  H   H253      1.0  0.19959  0.50172  0.06572  1.0000
  H   H254      1.0  0.03798  0.55096  0.09328  1.0000
  C   C146      1.0  0.24135  0.84896  0.02263  1.0000
  H   H255      1.0  0.02564  0.95402  0.47454  1.0000
  H   H256      1.0  0.05080  0.72249  0.39691  1.0000
  H   H257      1.0  0.27816  0.79066  0.01772  1.0000
  H   H258      1.0  0.23630  0.84745  0.05518  1.0000
  H   H259      1.0  0.28955  0.89846  0.12385  1.0000
  C   C147      1.0  0.13041  0.51131  0.01954  1.0000
  C   C148      1.0  0.09751  0.96872  0.07273  1.0000
  H   H260      1.0  0.06662  0.64917  0.46392  1.0000
  H   H261      1.0  0.22848  0.68424  0.05667  1.0000
  H   H262      1.0  0.10871  0.95709  0.09262  1.0000
  H   H263      1.0  0.24767  0.90891  0.99944  1.0000
  C   C149      1.0  0.08642  0.68860  0.24641  1.0000
  H   H264      1.0  0.03199  0.71134  0.31099  1.0000
  H   H265      1.0  0.01729  0.54212  0.23358  1.0000
  H   H266      1.0  0.09555  0.71047  0.36365  1.0000
  H   H267      1.0  0.18674  0.67234  0.99646  1.0000
  C   C150      1.0  0.19085  0.54332  0.06404  1.0000
  H   H268      1.0  0.19449  0.76453  0.04535  1.0000
  H   H269      1.0  0.27624  0.93026  0.12977  1.0000
  H   H270      1.0  0.08465  0.49374  0.02327  1.0000
  Fe  Fe17      1.0  0.12834  0.64781  0.99846  1.0000
  C   C151      1.0  0.04721  0.58886  0.06709  1.0000
  H   H271      1.0  0.07637  0.63848  0.37036  1.0000
  H   H272      1.0  0.06141  0.59920  0.05419  1.0000
  H   H273      1.0  0.26916  0.54535  0.00891  1.0000
  H   H274      1.0  0.27255  0.50962  0.01734  1.0000
  H   H275      1.0  0.19219  0.68997  0.06163  1.0000
  H   H276      1.0  0.09415  0.52101  0.18944  1.0000
  C   C152      1.0  0.19094  0.74066  0.98680  1.0000
  C   C153      1.0  0.27951  0.91643  0.06490  1.0000
  H   H277      1.0  0.12403  0.56128  0.21799  1.0000
  C   C154      1.0  0.33060  0.48740  0.03693  1.0000
  H   H278      1.0  0.01089  0.68094  0.38459  1.0000
  C   C155      1.0  0.29424  0.78181  0.01889  1.0000
  H   H279      1.0  0.11928  0.53885  0.12819  1.0000
  H   H280      1.0  0.09332  0.52531  0.08119  1.0000
  H   H281      1.0  0.07705  0.71980  0.28894  1.0000
  C   C156      1.0  0.24588  0.93104  0.00384  1.0000
  H   H282      1.0  0.04056  0.65308  0.37678  1.0000
  H   H283      1.0  0.29377  0.95259  0.04232  1.0000
  H   H284      1.0  0.04091  0.60078  0.09386  1.0000
  H   H285      1.0  0.06209  0.66113  0.30420  1.0000
  C   C157      1.0  0.01048  0.96357  0.47915  1.0000
  C   C158      1.0  0.27737  0.94448  0.04368  1.0000
  H   H286      1.0  0.05699  0.62124  0.43286  1.0000
  H   H287      1.0  0.15594  0.70468  0.03987  1.0000
  H   H288      1.0  0.29664  0.78806  0.08628  1.0000
  H   H289      1.0  0.16406  0.69350  0.11589  1.0000
  C   C159      1.0  0.26309  0.84974  0.01313  1.0000
  S   S34       1.0  0.31220  0.61178  0.98952  1.0000
  H   H290      1.0  0.05865  0.73312  0.34614  1.0000
  H   H291      1.0  0.30326  0.92916  0.11049  1.0000
  C   C160      1.0  0.07004  0.63598  0.43658  1.0000
  C   C161      1.0  0.02469  0.52847  0.21013  1.0000
  H   H292      1.0  0.16182  0.98124  0.03319  1.0000
  H   H293      1.0  0.08696  0.95433  0.05624  1.0000
  H   H294      1.0  0.26889  0.60475  0.00135  1.0000
  C   C162      1.0  0.26460  0.97413  0.98805  1.0000
  H   H295      1.0  0.08676  0.66559  0.40033  1.0000
  H   H296      1.0  0.08063  0.66901  0.23433  1.0000
  H   H297      1.0  0.09574  0.50112  0.12204  1.0000
  C   C163      1.0  0.07274  0.65264  0.39634  1.0000
  H   H298      1.0  0.30607  0.79797  0.01327  1.0000
  H   H299      1.0  0.04323  0.51737  0.13633  1.0000
  C   C164      1.0  0.18988  0.71104  0.05036  1.0000
  H   H300      1.0  0.10632  0.74834  0.40862  1.0000
  H   H301      1.0  0.14452  0.55890  0.17857  1.0000
  H   H302      1.0  0.23910  0.93342  0.03611  1.0000
  H   H303      1.0  0.29107  0.90404  0.04737  1.0000
  H   H304      1.0  0.04618  0.67767  0.41564  1.0000
  C   C165      1.0  0.09008  0.74767  0.39540  1.0000
  H   H305      1.0  0.08427  0.67598  0.32817  1.0000
  N   N8        1.0  0.07491  0.53461  0.13726  1.0000
  C   C166      1.0  0.05560  0.52317  0.15924  1.0000
  C   C167      1.0  0.01394  0.69925  0.36545  1.0000
  C   C168      1.0  0.09133  0.53976  0.17085  1.0000
  C   C169      1.0  0.07020  0.56090  0.11550  1.0000
  H   H306      1.0  0.26840  0.95769  0.06569  1.0000
  C   C170      1.0  0.04452  0.54180  0.19183  1.0000
  C   C171      1.0  0.11300  0.55056  0.15510  1.0000
  H   H307      1.0  0.11179  0.70918  0.02355  1.0000
  C   C172      1.0  0.25328  0.68114  0.01052  1.0000
  H   H308      1.0  0.28766  0.74163  0.99810  1.0000
  C   C173      1.0  0.12953  0.54975  0.19013  1.0000
  H   H309      1.0  0.17687  0.50826  0.03500  1.0000
  H   H310      1.0  0.19979  0.72351  0.07168  1.0000
  H   H311      1.0  0.01768  0.71594  0.38716  1.0000
  H   H312      1.0  0.05850  0.54931  0.05337  1.0000
  H   H313      1.0  0.21573  0.76864  0.00811  1.0000
  H   H314      1.0  0.08571  0.55502  0.19373  1.0000
  H   H315      1.0  0.06606  0.57645  0.13902  1.0000
  H   H316      1.0  0.08459  0.56885  0.09936  1.0000
  H   H317      1.0  0.07466  0.97559  0.12154  1.0000
  H   H318      1.0  0.08801  0.70267  0.21928  1.0000
  H   H319      1.0  0.05498  0.54637  0.21887  1.0000
  H   H320      1.0  0.03951  0.56101  0.17708  1.0000
  H   H321      1.0  0.11131  0.57188  0.14520  1.0000
  H   H322      1.0  0.05563  0.70304  0.26202  1.0000
  H   H323      1.0  0.16266  0.73910  0.05021  1.0000
  H   H324      1.0  0.08509  0.70748  0.41675  1.0000
  H   H325      1.0  0.16160  0.53291  0.09710  1.0000
  C   C174      1.0  0.29803  0.77122  0.06353  1.0000
  C   C175      1.0  0.16632  0.71795  0.05863  1.0000
  N   N9        1.0  0.20649  0.51542  0.00233  1.0000
  H   H326      1.0  0.31415  0.76253  0.06620  1.0000
  H   H327      1.0  0.23446  0.50796  0.04003  1.0000
  H   H328      1.0  0.13276  0.52865  0.19975  1.0000
  N   N10       1.0  0.26725  0.94493  0.00055  1.0000
  C   C176      1.0  0.08388  0.71852  0.38639  1.0000
  H   H329      1.0  0.22840  0.72759  0.02294  1.0000
  H   H330      1.0  0.18548  0.52692  0.12710  1.0000
  S   S35       1.0  0.12233  0.80504  0.99368  1.0000
  H   H331      1.0  0.26424  0.90542  0.06621  1.0000
  N   N11       1.0  0.05391  0.69011  0.35183  1.0000
  C   C177      1.0  0.06815  0.68059  0.31666  1.0000
  C   C178      1.0  0.05234  0.66876  0.38589  1.0000
  C   C179      1.0  0.03208  0.69405  0.33335  1.0000
  C   C180      1.0  0.06095  0.71675  0.36975  1.0000
  H   H332      1.0  0.10228  0.68573  0.26070  1.0000
  H   H333      1.0  0.05481  0.50604  0.07011  1.0000
  Fe  Fe18      1.0  0.12381  0.58626  0.00602  1.0000
  H   H334      1.0  0.19281  0.80885  0.01332  1.0000
  H   H335      1.0  0.20940  0.85009  0.99824  1.0000
  C   C181      1.0  0.11845  0.72379  0.00187  1.0000
  C   C182      1.0  0.22993  0.68461  0.02175  1.0000
  H   H336      1.0  0.22134  0.66700  0.00938  1.0000
  C   C183      1.0  0.22912  0.52149  0.01411  1.0000
  S   S36       1.0  0.15084  0.93417  0.98766  1.0000
  C   C184      1.0  0.19837  0.76590  0.01135  1.0000
  H   H337      1.0  0.26266  0.69895  0.02028  1.0000
  N   N12       1.0  0.19721  0.71379  0.00523  1.0000
  C   C185      1.0  0.14095  0.96728  0.98431  1.0000
  H   H338      1.0  0.31941  0.49128  0.06202  1.0000
  H   H339      1.0  0.01298  0.52441  0.18490  1.0000
  C   C186      1.0  0.25263  0.60819  0.99296  1.0000
  H   H340      1.0  0.25964  0.66317  0.02706  1.0000
  C   C187      1.0  0.06842  0.49525  0.08396  1.0000
  H   H341      1.0  0.08481  0.62467  0.44306  1.0000
  H   H342      1.0  0.01813  0.69395  0.46565  1.0000
  C   C188      1.0  0.18771  0.79130  0.99443  1.0000
  H   H343      1.0  0.20247  0.92098  0.00853  1.0000
  C   C189      1.0  0.22602  0.85024  0.99035  1.0000
  H   H344      1.0  0.10657  0.98011  0.04851  1.0000
  S   S37       1.0  0.32595  0.54070  0.01757  1.0000
  H   H345      1.0  0.16549  0.54189  0.98671  1.0000
  H   H346      1.0  0.17348  0.74178  0.98310  1.0000
  H   H347      1.0  0.22286  0.96127  0.98375  1.0000
  Fe  Fe19      1.0  0.17795  0.85736  0.91220  1.0000
  S   S38       1.0  0.21374  0.85180  0.90577  1.0000
  Fe  Fe20      1.0  0.13453  0.86496  0.86617  1.0000
  S   S39       1.0  0.11750  0.87217  0.92774  1.0000
  S   S40       1.0  0.11971  0.86187  0.79968  1.0000
  Fe  Fe21      1.0  0.14577  0.89762  0.94577  1.0000
  Fe  Fe22      1.0  0.13669  0.83699  0.95121  1.0000
  S   S41       1.0  0.16167  0.89297  0.88268  1.0000
  S   S42       1.0  0.15271  0.82871  0.88955  1.0000
  Fe  Fe23      1.0  0.30239  0.61221  0.92226  1.0000
  S   S43       1.0  0.26685  0.61758  0.91057  1.0000
  Fe  Fe24      1.0  0.00854  0.85301  0.65390  1.0000
  S   S44       1.0  0.02704  0.86110  0.71570  1.0000
  S   S45       1.0  0.01737  0.85050  0.58507  1.0000
  C   C190      1.0  0.24732  0.61406  0.95109  1.0000
  H   H348      1.0  0.02601  0.91911  0.81434  1.0000
  H   H349      1.0  0.29867  0.70715  0.95451  1.0000
  C   C191      1.0  0.17536  0.53572  0.95951  1.0000
  C   C192      1.0  0.22584  0.61785  0.94118  1.0000
  H   H350      1.0  0.22141  0.62216  0.90894  1.0000
  C   C193      1.0  0.09371  0.86167  0.77729  1.0000
  C   C194      1.0  0.07547  0.86712  0.80088  1.0000
  C   C195      1.0  0.05535  0.86704  0.78140  1.0000
  C   C196      1.0  0.05303  0.86133  0.73814  1.0000
  C   C197      1.0  0.07124  0.85572  0.71462  1.0000
  C   C198      1.0  0.09137  0.85597  0.73403  1.0000
  H   H351      1.0  0.07689  0.87170  0.83404  1.0000
  H   H352      1.0  0.04145  0.87127  0.80011  1.0000
  H   H353      1.0  0.06982  0.85102  0.68154  1.0000
  H   H354      1.0  0.10529  0.85166  0.71535  1.0000
  H   H355      1.0  0.03789  0.93850  0.69360  1.0000
  H   H356      1.0  0.07025  0.90291  0.53742  1.0000
  H   H357      1.0  0.11826  0.95970  0.93535  1.0000
  H   H358      1.0  0.11212  0.50184  0.92007  1.0000
  C   C199      1.0  0.28947  0.69409  0.89292  1.0000
  C   C200      1.0  0.13608  0.73436  0.93607  1.0000
  H   H359      1.0  0.14155  0.77648  0.92349  1.0000
  H   H360      1.0  0.14319  0.72781  0.90681  1.0000
  C   C201      1.0  0.18148  0.67079  0.90720  1.0000
  H   H361      1.0  0.25901  0.85421  0.90601  1.0000
  H   H362      1.0  0.06030  0.85716  0.55820  1.0000
  H   H363      1.0  0.16361  0.95910  0.90627  1.0000
  C   C202      1.0  0.05747  0.95287  0.56667  1.0000
  C   C203      1.0  0.07227  0.89736  0.57116  1.0000
  N   N13       1.0  0.28994  0.76597  0.94135  1.0000
  H   H364      1.0  0.19987  0.70614  0.91816  1.0000
  H   H365      1.0  0.07187  0.84687  0.90405  1.0000
  S   S46       1.0  0.32057  0.57471  0.90506  1.0000
  H   H366      1.0  0.08559  0.94911  0.72215  1.0000
  C   C204      1.0  0.05256  0.49741  0.60315  1.0000
  H   H367      1.0  0.29125  0.74580  0.88063  1.0000
  H   H368      1.0  0.06888  0.96308  0.65503  1.0000
  H   H369      1.0  0.24530  0.50059  0.96159  1.0000
  H   H370      1.0  0.02521  0.91145  0.66504  1.0000
  H   H371      1.0  0.02065  0.94346  0.60272  1.0000
  H   H372      1.0  0.00107  0.88122  0.81295  1.0000
  C   C205      1.0  0.28849  0.71466  0.92845  1.0000
  H   H373      1.0  0.25991  0.91564  0.92223  1.0000
  Fe  Fe25      1.0  0.33131  0.57554  0.97234  1.0000
  H   H374      1.0  0.06288  0.70335  0.90199  1.0000
  C   C206      1.0  0.19641  0.68709  0.93503  1.0000
  H   H375      1.0  0.26322  0.79263  0.94948  1.0000
  S   S47       1.0  0.14911  0.61327  0.98020  1.0000
  H   H376      1.0  0.25828  0.75946  0.96654  1.0000
  H   H377      1.0  0.07318  0.94814  0.55266  1.0000
  C   C207      1.0  0.08494  0.73712  0.89964  1.0000
  H   H378      1.0  0.05131  0.89563  0.62595  1.0000
  H   H379      1.0  0.07522  0.85983  0.60672  1.0000
  H   H380      1.0  0.08857  0.86022  0.55652  1.0000
  H   H381      1.0  0.18237  0.94478  0.87003  1.0000
  C   C208      1.0  0.07410  0.86678  0.57351  1.0000
  C   C209      1.0  0.00512  0.94449  0.68220  1.0000
  H   H382      1.0  0.25623  0.97612  0.95756  1.0000
  H   H383      1.0  0.17014  0.51544  0.94956  1.0000
  C   C210      1.0  0.29116  0.91561  0.89658  1.0000
  H   H384      1.0  0.28144  0.80837  0.87941  1.0000
  C   C211      1.0  0.29636  0.74274  0.91365  1.0000
  H   H385      1.0  0.18740  0.48248  0.97912  1.0000
  H   H386      1.0  0.08745  0.90564  0.65367  1.0000
  H   H387      1.0  0.03872  0.90403  0.57849  1.0000
  H   H388      1.0  0.27838  0.69959  0.86722  1.0000
  H   H389      1.0  0.30559  0.92839  0.89555  1.0000
  H   H390      1.0  0.23425  0.80003  0.89739  1.0000
  H   H391      1.0  0.17870  0.54826  0.89386  1.0000
  H   H392      1.0  0.22352  0.77275  0.92848  1.0000
  H   H393      1.0  0.29544  0.89535  0.90877  1.0000
  H   H394      1.0  0.25510  0.67782  0.97610  1.0000
  C   C212      1.0  0.17071  0.55506  0.92314  1.0000
  H   H395      1.0  0.31930  0.78731  0.93121  1.0000
  H   H396      1.0  0.20802  0.53416  0.94084  1.0000
  N   N14       1.0  0.05442  0.93775  0.60777  1.0000
  C   C213      1.0  0.23225  0.85172  0.94800  1.0000
  C   C214      1.0  0.00976  0.92173  0.82711  1.0000
  C   C215      1.0  0.24553  0.52033  0.97764  1.0000
  C   C216      1.0  0.17353  0.96331  0.87813  1.0000
  H   H397      1.0  0.26269  0.77141  0.87128  1.0000
  H   H398      1.0  0.05641  0.73082  0.93726  1.0000
  H   H399      1.0  0.32924  0.81959  0.87575  1.0000
  H   H400      1.0  0.27941  0.52470  0.96736  1.0000
  H   H401      1.0  0.10822  0.94201  0.68873  1.0000
  C   C217      1.0  0.12760  0.71525  0.96410  1.0000
  S   S48       1.0  0.11271  0.55031  0.96854  1.0000
  H   H402      1.0  0.22336  0.77098  0.87169  1.0000
  H   H403      1.0  0.17620  0.57568  0.93078  1.0000
  C   C218      1.0  0.09372  0.93340  0.70339  1.0000
  C   C219      1.0  0.29797  0.80117  0.88237  1.0000
  H   H404      1.0  0.05615  0.51317  0.62680  1.0000
  H   H405      1.0  0.31394  0.74156  0.91157  1.0000
  H   H406      1.0  0.24228  0.53625  0.95390  1.0000
  C   C220      1.0  0.07894  0.92221  0.66969  1.0000
  H   H407      1.0  0.28509  0.91340  0.86397  1.0000
  H   H408      1.0  0.04550  0.94618  0.54308  1.0000
  C   C221      1.0  0.11904  0.49713  0.95037  1.0000
  H   H409      1.0  0.15340  0.55567  0.91727  1.0000
  H   H410      1.0  0.04158  0.77202  0.74621  1.0000
  C   C222      1.0  0.26637  0.77122  0.94122  1.0000
  H   H411      1.0  0.02680  0.73660  0.50282  1.0000
  H   H412      1.0  0.32621  0.51291  0.89763  1.0000
  C   C223      1.0  0.23249  0.77786  0.89951  1.0000
  H   H413      1.0  0.30974  0.83155  0.83881  1.0000
  H   H414      1.0  0.07194  0.73541  0.83690  1.0000
  C   C224      1.0  0.19920  0.53633  0.97102  1.0000
  C   C225      1.0  0.05324  0.90820  0.59721  1.0000
  S   S49       1.0  0.12757  0.68113  0.94950  1.0000
  C   C226      1.0  0.02659  0.93354  0.66815  1.0000
  H   H415      1.0  0.25184  0.74257  0.89725  1.0000
  H   H416      1.0  0.29811  0.80803  0.94831  1.0000
  C   C227      1.0  0.31167  0.50145  0.88961  1.0000
  C   C228      1.0  0.03354  0.94669  0.62613  1.0000
  C   C229      1.0  0.01042  0.73100  0.49832  1.0000
  C   C230      1.0  0.25395  0.85275  0.93856  1.0000
  C   C231      1.0  0.25423  0.76462  0.89996  1.0000
  H   H417      1.0  0.07795  0.70845  0.94941  1.0000
  C   C232      1.0  0.30200  0.79077  0.92767  1.0000
  C   C233      1.0  0.28163  0.93010  0.97066  1.0000
  H   H418      1.0  0.29802  0.51546  0.89062  1.0000
  H   H419      1.0  0.28568  0.85331  0.96266  1.0000
  H   H420      1.0  0.30112  0.78546  0.85853  1.0000
  H   H421      1.0  0.09818  0.72427  0.88856  1.0000
  H   H422      1.0  0.16741  0.68297  0.89875  1.0000
  N   N15       1.0  0.08637  0.77474  0.84295  1.0000
  C   C234      1.0  0.07434  0.75115  0.86138  1.0000
  C   C235      1.0  0.07637  0.78275  0.80157  1.0000
  C   C236      1.0  0.10855  0.76519  0.83323  1.0000
  C   C237      1.0  0.08770  0.79841  0.87266  1.0000
  C   C238      1.0  0.06843  0.80320  0.90215  1.0000
  C   C239      1.0  0.12311  0.78547  0.80967  1.0000
  C   C240      1.0  0.05301  0.79205  0.80285  1.0000
  C   C241      1.0  0.04355  0.79275  0.75855  1.0000
  H   H423      1.0  0.09850  0.91694  0.72519  1.0000
  C   C242      1.0  0.14601  0.77567  0.80879  1.0000
  H   H424      1.0  0.05818  0.75700  0.87120  1.0000
  H   H425      1.0  0.08505  0.79994  0.78697  1.0000
  H   H426      1.0  0.07764  0.76580  0.77878  1.0000
  H   H427      1.0  0.10808  0.74637  0.81425  1.0000
  H   H428      1.0  0.11692  0.75992  0.86286  1.0000
  H   H429      1.0  0.10164  0.79645  0.89397  1.0000
  H   H430      1.0  0.09064  0.81733  0.85452  1.0000
  H   H431      1.0  0.06718  0.78690  0.92603  1.0000
  H   H432      1.0  0.05337  0.80391  0.88465  1.0000
  C   C243      1.0  0.13512  0.76193  0.94538  1.0000
  H   H433      1.0  0.12285  0.80537  0.82517  1.0000
  H   H434      1.0  0.11804  0.78800  0.77641  1.0000
  H   H435      1.0  0.04277  0.77870  0.82200  1.0000
  H   H436      1.0  0.05220  0.81275  0.81572  1.0000
  H   H437      1.0  0.05383  0.80428  0.73655  1.0000
  C   C244      1.0  0.06949  0.71885  0.92338  1.0000
  H   H438      1.0  0.02779  0.80257  0.75942  1.0000
  H   H439      1.0  0.05664  0.83257  0.94678  1.0000
  H   H440      1.0  0.09133  0.75204  0.92215  1.0000
  H   H441      1.0  0.27199  0.71558  0.94022  1.0000
  H   H442      1.0  0.14716  0.75614  0.79211  1.0000
  H   H443      1.0  0.15602  0.79068  0.79196  1.0000
  H   H444      1.0  0.15222  0.77331  0.84132  1.0000
  H   H445      1.0  0.08744  0.90615  0.58192  1.0000
  H   H446      1.0  0.06751  0.49059  0.58816  1.0000
  C   C245      1.0  0.27424  0.92851  0.92436  1.0000
  H   H447      1.0  0.18973  0.66498  0.87768  1.0000
  H   H448      1.0  0.08494  0.82901  0.94654  1.0000
  H   H449      1.0  0.17609  0.65225  0.92358  1.0000
  H   H450      1.0  0.21079  0.48807  0.94976  1.0000
  S   S50       1.0  0.00135  0.91845  0.52910  1.0000
  H   H451      1.0  0.28354  0.90885  0.98097  1.0000
  H   H452      1.0  0.04237  0.50634  0.57828  1.0000
  H   H453      1.0  0.27080  0.94870  0.91118  1.0000
  H   H454      1.0  0.30577  0.69279  0.88002  1.0000
  H   H455      1.0  0.16973  0.69661  0.97518  1.0000
  H   H456      1.0  0.06523  0.91303  0.68599  1.0000
  C   C246      1.0  0.07067  0.82958  0.92621  1.0000
  H   H457      1.0  0.30744  0.48791  0.95293  1.0000
  C   C247      1.0  0.07247  0.94435  0.63727  1.0000
  H   H458      1.0  0.00645  0.96609  0.69059  1.0000
  S   S51       1.0  0.32915  0.64002  0.90142  1.0000
  H   H459      1.0  0.28486  0.67397  0.90530  1.0000
  H   H460      1.0  0.08714  0.94917  0.61918  1.0000
  H   H461      1.0  0.21257  0.90235  0.96392  1.0000
  H   H462      1.0  0.03379  0.96860  0.63276  1.0000
  C   C248      1.0  0.12486  0.97457  0.95637  1.0000
  H   H463      1.0  0.23330  0.94213  0.94065  1.0000
  H   H464      1.0  0.33118  0.96955  0.90694  1.0000
  H   H465      1.0  0.19201  0.79499  0.96092  1.0000
  H   H466      1.0  0.00464  0.94268  0.82049  1.0000
  H   H467      1.0  0.19375  0.61982  0.96460  1.0000
  S   S52       1.0  0.32811  0.85280  0.97798  1.0000
  C   C249      1.0  0.22807  0.94096  0.97391  1.0000
  H   H468      1.0  0.19596  0.93103  0.95554  1.0000
  H   H469      1.0  0.29793  0.93866  0.97144  1.0000
  S   S53       1.0  0.00179  0.77876  0.54166  1.0000
  C   C250      1.0  0.20866  0.92266  0.97580  1.0000
  H   H470      1.0  0.21146  0.67575  0.93795  1.0000
  H   H471      1.0  0.19711  0.74293  0.95422  1.0000
  C   C251      1.0  0.26921  0.85210  0.97082  1.0000
  C   C252      1.0  0.12157  0.51755  0.98038  1.0000
  H   H472      1.0  0.01022  0.91838  0.86175  1.0000
  H   H473      1.0  0.16314  0.96863  0.85120  1.0000
  H   H474      1.0  0.22702  0.71453  0.97135  1.0000
  H   H475      1.0  0.19927  0.97940  0.91383  1.0000
  S   S54       1.0  0.16304  0.86281  0.97522  1.0000
  H   H476      1.0  0.30862  0.84236  0.89279  1.0000
  C   C253      1.0  0.31232  0.82510  0.87195  1.0000
  H   H477      1.0  0.31353  0.49344  0.85720  1.0000
  C   C254      1.0  0.21006  0.61653  0.97275  1.0000
  H   H478      1.0  0.99948  0.93317  0.71027  1.0000
  C   C255      1.0  0.18677  0.69200  0.97945  1.0000
  C   C256      1.0  0.20441  0.48796  0.98251  1.0000
  C   C257      1.0  0.12536  0.77057  0.98249  1.0000
  H   H479      1.0  0.20306  0.55696  0.98232  1.0000
  Fe  Fe26      1.0  0.35143  0.38784  0.02828  1.0000
  C   C258      1.0  0.57598  0.99968  0.10651  1.0000
  H   H480      1.0  0.56326  0.20549  0.04842  1.0000
  H   H481      1.0  0.60237  0.24102  0.06309  1.0000
  C   C259      1.0  0.62318  0.47658  0.00815  1.0000
  H   H482      1.0  0.55261  0.28990  0.06372  1.0000
  Fe  Fe27      1.0  0.35965  0.34886  0.10179  1.0000
  S   S55       1.0  0.38506  0.33464  0.14902  1.0000
  S   S56       1.0  0.37364  0.35314  0.03671  1.0000
  H   H483      1.0  0.44695  0.31837  0.12637  1.0000
  H   H484      1.0  0.47142  0.29984  0.12488  1.0000
  Fe  Fe28      1.0  0.63713  0.40002  0.01242  1.0000
  H   H485      1.0  0.56511  0.28583  0.33578  1.0000
  H   H486      1.0  0.38789  0.26521  0.02388  1.0000
  Fe  Fe29      1.0  0.62679  0.33934  0.01647  1.0000
  S   S57       1.0  0.63846  0.33529  0.08288  1.0000
  Fe  Fe30      1.0  0.34703  0.32697  0.01465  1.0000
  Fe  Fe31      1.0  0.62056  0.37384  0.09487  1.0000
  S   S58       1.0  0.59511  0.38407  0.14486  1.0000
  H   H487      1.0  0.66036  0.46134  0.05791  1.0000
  S   S59       1.0  0.60777  0.37662  0.02857  1.0000
  H   H488      1.0  0.40496  0.38932  0.12809  1.0000
  H   H489      1.0  0.49704  0.26737  0.35580  1.0000
  S   S60       1.0  0.33403  0.32016  0.07950  1.0000
  H   H490      1.0  0.55879  0.33236  0.10869  1.0000
  Fe  Fe32      1.0  0.46485  0.36419  0.34980  1.0000
  S   S61       1.0  0.48462  0.32642  0.34914  1.0000
  S   S62       1.0  0.43407  0.37465  0.31451  1.0000
  Fe  Fe33      1.0  0.49463  0.39467  0.41011  1.0000
  S   S63       1.0  0.51681  0.35885  0.41230  1.0000
  C   C260      1.0  0.34740  0.25133  0.01187  1.0000
  Fe  Fe34      1.0  0.51262  0.35458  0.34203  1.0000
  S   S64       1.0  0.54039  0.33867  0.30148  1.0000
  Fe  Fe35      1.0  0.48823  0.33164  0.41955  1.0000
  H   H491      1.0  0.58901  0.20156  0.02489  1.0000
  S   S65       1.0  0.49265  0.39209  0.33878  1.0000
  S   S66       1.0  0.46621  0.36785  0.42113  1.0000
  H   H492      1.0  0.59355  0.31918  0.34362  1.0000
  H   H493      1.0  0.34437  0.24748  0.11828  1.0000
  C   C261      1.0  0.58029  0.37098  0.18868  1.0000
  C   C262      1.0  0.56307  0.38593  0.20439  1.0000
  C   C263      1.0  0.55081  0.37658  0.23889  1.0000
  C   C264      1.0  0.55556  0.35200  0.25834  1.0000
  C   C265      1.0  0.57276  0.33702  0.24261  1.0000
  C   C266      1.0  0.58512  0.34648  0.20829  1.0000
  H   H494      1.0  0.55925  0.40502  0.18984  1.0000
  H   H495      1.0  0.53776  0.38847  0.25054  1.0000
  H   H496      1.0  0.57665  0.31802  0.25727  1.0000
  H   H497      1.0  0.59847  0.33491  0.19719  1.0000
  H   H498      1.0  0.52525  0.23452  0.37561  1.0000
  H   H499      1.0  0.41369  0.18020  0.99505  1.0000
  C   C267      1.0  0.64262  0.23930  0.02481  1.0000
  C   C268      1.0  0.63679  0.26614  0.01726  1.0000
  C   C269      1.0  0.45476  0.01491  0.40342  1.0000
  H   H500      1.0  0.64337  0.28208  0.03624  1.0000
  C   C270      1.0  0.54170  0.28352  0.14951  1.0000
  C   C271      1.0  0.54732  0.22235  0.45107  1.0000
  C   C272      1.0  0.57263  0.28692  0.40312  1.0000
  N   N16       1.0  0.40725  0.25868  0.07906  1.0000
  C   C273      1.0  0.58507  0.23885  0.05933  1.0000
  H   H501      1.0  0.62412  0.01284  0.05902  1.0000
  H   H502      1.0  0.61902  0.46223  0.03256  1.0000
  C   C274      1.0  0.39814  0.34614  0.19545  1.0000
  C   C275      1.0  0.39213  0.36947  0.21682  1.0000
  C   C276      1.0  0.40307  0.37751  0.25351  1.0000
  C   C277      1.0  0.42042  0.36271  0.26898  1.0000
  C   C278      1.0  0.42648  0.33943  0.24751  1.0000
  C   C279      1.0  0.41530  0.33114  0.21125  1.0000
  H   H503      1.0  0.37891  0.38117  0.20538  1.0000
  H   H504      1.0  0.39809  0.39544  0.26995  1.0000
  H   H505      1.0  0.43961  0.32767  0.25914  1.0000
  H   H506      1.0  0.41989  0.31287  0.19548  1.0000
  S   S67       1.0  0.64914  0.39992  0.07897  1.0000
  S   S68       1.0  0.49012  0.29785  0.47145  1.0000
  C   C280      1.0  0.54812  0.30983  0.47433  1.0000
  H   H507      1.0  0.60611  0.26729  0.17648  1.0000
  C   C281      1.0  0.42001  0.27494  0.11024  1.0000
  H   H508      1.0  0.61183  0.24469  0.13380  1.0000
  C   C282      1.0  0.63426  0.21841  0.00025  1.0000
  C   C283      1.0  0.56857  0.32707  0.08087  1.0000
  H   H509      1.0  0.46583  0.44915  0.16050  1.0000
  H   H510      1.0  0.39097  0.29396  0.05515  1.0000
  H   H511      1.0  0.56889  0.33815  0.01425  1.0000
  C   C284      1.0  0.35508  0.99001  0.01430  1.0000
  C   C285      1.0  0.44633  0.45380  0.29794  1.0000
  H   H512      1.0  0.45614  0.46360  0.32252  1.0000
  C   C286      1.0  0.33854  0.46126  0.03128  1.0000
  C   C287      1.0  0.53465  0.27430  0.39936  1.0000
  N   N17       1.0  0.57710  0.27910  0.10850  1.0000
  H   H513      1.0  0.60857  0.28434  0.08230  1.0000
  C   C288      1.0  0.39968  0.27617  0.04310  1.0000
  H   H514      1.0  0.41337  0.29561  0.11283  1.0000
  H   H515      1.0  0.42475  0.22224  0.09110  1.0000
  H   H516      1.0  0.45206  0.29227  0.16500  1.0000
  H   H517      1.0  0.39272  0.23168  0.12471  1.0000
  C   C289      1.0  0.49524  0.46343  0.47532  1.0000
  C   C290      1.0  0.45420  0.29827  0.13148  1.0000
  H   H518      1.0  0.47765  0.40892  0.11355  1.0000
  C   C291      1.0  0.41973  0.23475  0.06366  1.0000
  H   H519      1.0  0.46877  0.00750  0.42089  1.0000
  H   H520      1.0  0.54272  0.33589  0.03752  1.0000
  C   C292      1.0  0.62789  0.00551  0.02784  1.0000
  H   H521      1.0  0.44089  0.01515  0.42500  1.0000
  H   H522      1.0  0.40255  0.22709  0.00408  1.0000
  H   H523      1.0  0.59238  0.00031  0.11886  1.0000
  H   H524      1.0  0.43712  0.00605  0.34740  1.0000
  C   C293      1.0  0.52977  0.25452  0.36277  1.0000
  C   C294      1.0  0.63598  0.27370  0.14631  1.0000
  H   H525      1.0  0.47018  0.45935  0.25051  1.0000
  H   H526      1.0  0.38346  0.27642  0.15382  1.0000
  H   H527      1.0  0.58277  0.03211  0.06175  1.0000
  C   C295      1.0  0.38802  0.24769  0.10188  1.0000
  C   C296      1.0  0.51135  0.26444  0.33594  1.0000
  H   H528      1.0  0.36953  0.28521  0.10633  1.0000
  H   H529      1.0  0.45804  0.03586  0.39296  1.0000
  C   C297      1.0  0.48778  0.41903  0.13714  1.0000
  C   C298      1.0  0.58044  0.20895  0.05316  1.0000
  C   C299      1.0  0.62601  0.02281  0.99291  1.0000
  H   H530      1.0  0.55509  0.02864  0.07574  1.0000
  H   H531      1.0  0.54342  0.25152  0.34153  1.0000
  H   H532      1.0  0.63781  0.29455  0.15827  1.0000
  H   H533      1.0  0.54664  0.18873  0.40721  1.0000
  H   H534      1.0  0.53538  0.31494  0.19559  1.0000
  H   H535      1.0  0.58029  0.24955  0.03012  1.0000
  C   C300      1.0  0.59739  0.29738  0.34219  1.0000
  H   H536      1.0  0.53460  0.29604  0.12429  1.0000
  H   H537      1.0  0.57067  0.30595  0.16042  1.0000
  H   H538      1.0  0.60134  0.29237  0.30901  1.0000
  S   S69       1.0  0.33862  0.38552  0.09449  1.0000
  H   H539      1.0  0.41863  0.26608  0.14250  1.0000
  C   C301      1.0  0.35439  0.25522  0.14427  1.0000
  H   H540      1.0  0.56360  0.23252  0.39268  1.0000
  C   C302      1.0  0.53251  0.29304  0.19149  1.0000
  H   H541      1.0  0.57661  0.23689  0.12581  1.0000
  C   C303      1.0  0.55936  0.34211  0.04307  1.0000
  H   H542      1.0  0.64436  0.25985  0.16811  1.0000
  N   N18       1.0  0.45970  0.41272  0.19617  1.0000
  C   C304      1.0  0.44384  0.39986  0.16686  1.0000
  C   C305      1.0  0.47195  0.39133  0.22002  1.0000
  C   C306      1.0  0.44743  0.42907  0.22799  1.0000
  C   C307      1.0  0.47456  0.43149  0.17317  1.0000
  H   H543      1.0  0.33350  0.44511  0.05195  1.0000
  C   C308      1.0  0.42935  0.41921  0.14156  1.0000
  C   C309      1.0  0.46065  0.44244  0.26347  1.0000
  C   C310      1.0  0.47585  0.36407  0.19761  1.0000
  C   C311      1.0  0.49004  0.34586  0.22411  1.0000
  H   H544      1.0  0.56466  0.99643  0.13277  1.0000
  H   H545      1.0  0.43330  0.38617  0.18521  1.0000
  H   H546      1.0  0.45173  0.38681  0.14341  1.0000
  H   H547      1.0  0.48758  0.39931  0.23041  1.0000
  H   H548      1.0  0.46357  0.38576  0.24970  1.0000
  H   H549      1.0  0.43511  0.41625  0.24326  1.0000
  H   H550      1.0  0.43880  0.44582  0.21244  1.0000
  H   H551      1.0  0.48334  0.19909  0.44521  1.0000
  H   H552      1.0  0.51021  0.43111  0.08867  1.0000
  H   H553      1.0  0.34500  0.26468  0.03823  1.0000
  H   H554      1.0  0.49929  0.40445  0.15027  1.0000
  H   H555      1.0  0.41855  0.43033  0.16287  1.0000
  H   H556      1.0  0.43879  0.43383  0.12286  1.0000
  C   C312      1.0  0.48717  0.21444  0.46802  1.0000
  H   H557      1.0  0.47154  0.42804  0.27876  1.0000
  H   H558      1.0  0.46064  0.35324  0.19321  1.0000
  H   H559      1.0  0.48329  0.36666  0.16628  1.0000
  H   H560      1.0  0.49167  0.32608  0.20851  1.0000
  H   H561      1.0  0.50602  0.35490  0.22771  1.0000
  H   H562      1.0  0.48301  0.34253  0.25584  1.0000
  H   H563      1.0  0.52097  0.27258  0.42115  1.0000
  H   H564      1.0  0.37715  0.23795  0.07935  1.0000
  S   S70       1.0  0.64079  0.18496  0.01315  1.0000
  H   H565      1.0  0.45195  0.25779  0.10877  1.0000
  H   H566      1.0  0.57167  0.27178  0.17496  1.0000
  H   H567      1.0  0.34515  0.27045  0.16200  1.0000
  H   H568      1.0  0.58483  0.33476  0.08605  1.0000
  S   S71       1.0  0.50380  0.43463  0.44486  1.0000
  C   C313      1.0  0.56618  0.28554  0.14956  1.0000
  H   H569      1.0  0.60285  0.30560  0.12524  1.0000
  H   H570      1.0  0.57860  0.29334  0.04400  1.0000
  H   H571      1.0  0.55595  0.24670  0.09165  1.0000
  H   H572      1.0  0.35839  0.23845  0.16605  1.0000
  C   C314      1.0  0.61260  0.26595  0.14407  1.0000
  H   H573      1.0  0.53969  0.28201  0.21841  1.0000
  C   C315      1.0  0.57304  0.24997  0.09817  1.0000
  C   C316      1.0  0.56883  0.29630  0.07288  1.0000
  H   H574      1.0  0.53661  0.26236  0.14499  1.0000
  C   C317      1.0  0.34934  0.22350  0.01862  1.0000
  H   H575      1.0  0.40507  0.41791  0.09318  1.0000
  H   H576      1.0  0.42509  0.39244  0.08768  1.0000
  H   H577      1.0  0.55966  0.36408  0.04930  1.0000
  H   H578      1.0  0.44795  0.28324  0.06949  1.0000
  H   H579      1.0  0.51519  0.28939  0.19206  1.0000
  H   H580      1.0  0.64351  0.27221  0.11474  1.0000
  C   C318      1.0  0.41534  0.40368  0.11081  1.0000
  C   C319      1.0  0.60042  0.28477  0.11345  1.0000
  H   H581      1.0  0.56226  0.32216  0.46643  1.0000
  H   H582      1.0  0.39433  0.20595  0.04746  1.0000
  C   C320      1.0  0.57153  0.02751  0.08785  1.0000
  C   C321      1.0  0.44419  0.27742  0.10230  1.0000
  H   H583      1.0  0.36209  0.99571  0.04405  1.0000
  C   C322      1.0  0.48611  0.24197  0.45592  1.0000
  H   H584      1.0  0.46186  0.45521  0.47309  1.0000
  H   H585      1.0  0.43467  0.24100  0.04815  1.0000
  H   H586      1.0  0.56816  0.30855  0.40246  1.0000
  H   H587      1.0  0.57355  0.04306  0.11256  1.0000
  C   C323      1.0  0.37449  0.26828  0.12669  1.0000
  H   H588      1.0  0.58596  0.19713  0.08081  1.0000
  H   H589      1.0  0.43708  0.43738  0.31322  1.0000
  H   H590      1.0  0.34810  0.21533  0.05019  1.0000
  H   H591      1.0  0.48148  0.24736  0.42422  1.0000
  H   H592      1.0  0.65355  0.23464  0.04998  1.0000
  H   H593      1.0  0.48627  0.44012  0.19551  1.0000
  H   H594      1.0  0.53369  0.29528  0.38686  1.0000
  H   H595      1.0  0.50762  0.24940  0.31128  1.0000
  C   C324      1.0  0.40812  0.21590  0.03226  1.0000
  H   H596      1.0  0.43527  0.46893  0.28465  1.0000
  S   S72       1.0  0.65629  0.11354  0.98914  1.0000
  C   C325      1.0  0.57847  0.28052  0.35683  1.0000
  H   H597      1.0  0.51559  0.28371  0.32013  1.0000
  H   H598      1.0  0.46494  0.99801  0.34511  1.0000
  C   C326      1.0  0.45051  0.99716  0.36513  1.0000
  S   S73       1.0  0.61613  0.05565  0.99989  1.0000
  S   S74       1.0  0.35241  0.04404  0.99902  1.0000
  C   C327      1.0  0.50059  0.44060  0.11388  1.0000
  H   H599      1.0  0.65799  0.05567  0.07021  1.0000
  H   H600      1.0  0.51151  0.45101  0.13588  1.0000
  H   H601      1.0  0.58268  0.25909  0.35265  1.0000
  H   H602      1.0  0.42524  0.30444  0.02867  1.0000
  C   C328      1.0  0.35302  0.45616  0.99896  1.0000
  C   C329      1.0  0.55253  0.27951  0.46798  1.0000
  H   H603      1.0  0.42832  0.18113  0.04367  1.0000
  H   H604      1.0  0.48992  0.45563  0.09906  1.0000
  C   C330      1.0  0.50800  0.98470  0.45824  1.0000
  H   H605      1.0  0.52188  0.98538  0.43824  1.0000
  C   C331      1.0  0.41681  0.28763  0.01300  1.0000
  S   S75       1.0  0.65475  0.36274  0.99345  1.0000
  S   S76       1.0  0.36301  0.42358  0.99020  1.0000
  S   S77       1.0  0.36013  0.17250  0.99571  1.0000
  C   C332      1.0  0.62205  0.27217  0.98589  1.0000
  C   C333      1.0  0.42265  0.19350  0.01676  1.0000
  H   H606      1.0  0.53042  0.22713  0.44593  1.0000
  H   H607      1.0  0.42835  0.27222  0.00306  1.0000
  N   N19       1.0  0.55521  0.27024  0.42287  1.0000
  H   H608      1.0  0.54037  0.18011  0.46102  1.0000
  H   H609      1.0  0.61148  0.29325  0.36203  1.0000
  H   H610      1.0  0.43639  0.20204  0.99934  1.0000
  H   H611      1.0  0.53477  0.31614  0.45431  1.0000
  C   C334      1.0  0.34819  0.01003  0.98623  1.0000
  C   C335      1.0  0.56198  0.24115  0.42465  1.0000
  H   H612      1.0  0.58686  0.98284  0.04956  1.0000
  C   C336      1.0  0.55076  0.19273  0.44061  1.0000
  H   H613      1.0  0.58726  0.28549  0.42255  1.0000
  C   C337      1.0  0.35347  0.20615  0.98489  1.0000
  H   H614      1.0  0.57813  0.23953  0.43848  1.0000
  H   H615      1.0  0.56747  0.18694  0.44639  1.0000
  H   H616      1.0  0.42430  0.06020  0.98314  1.0000
  C   C338      1.0  0.63815  0.98670  0.94767  1.0000
  H   H617      1.0  0.51598  0.13743  0.92221  1.0000
  H   H618      1.0  0.65032  0.34077  0.85349  1.0000
  H   H619      1.0  0.34295  0.40191  0.90623  1.0000
  Fe  Fe36      1.0  0.35225  0.10709  0.87006  1.0000
  S   S78       1.0  0.36715  0.09852  0.80494  1.0000
  S   S79       1.0  0.37043  0.10577  0.93086  1.0000
  H   H620      1.0  0.57238  0.99676  0.63556  1.0000
  H   H621      1.0  0.41147  0.26106  0.55356  1.0000
  C   C339      1.0  0.49797  0.22697  0.53791  1.0000
  C   C340      1.0  0.47461  0.20694  0.63770  1.0000
  Fe  Fe37      1.0  0.62778  0.12489  0.88142  1.0000
  S   S80       1.0  0.60804  0.13875  0.82408  1.0000
  S   S81       1.0  0.61100  0.12658  0.94439  1.0000
  Fe  Fe38      1.0  0.47428  0.11266  0.65282  1.0000
  S   S82       1.0  0.50236  0.14038  0.64330  1.0000
  S   S83       1.0  0.45460  0.12585  0.71040  1.0000
  Fe  Fe39      1.0  0.48906  0.07427  0.58006  1.0000
  S   S84       1.0  0.51773  0.10026  0.56711  1.0000
  S   S85       1.0  0.48000  0.03306  0.54902  1.0000
  Fe  Fe40      1.0  0.52174  0.10260  0.63823  1.0000
  S   S86       1.0  0.55167  0.08933  0.67432  1.0000
  Fe  Fe41      1.0  0.49607  0.13669  0.57338  1.0000
  S   S87       1.0  0.49372  0.17115  0.52287  1.0000
  S   S88       1.0  0.49400  0.07517  0.65079  1.0000
  S   S89       1.0  0.46702  0.11040  0.58316  1.0000
  H   H622      1.0  0.33441  0.38609  0.85820  1.0000
  C   C341      1.0  0.56070  0.98434  0.61790  1.0000
  H   H623      1.0  0.43303  0.28407  0.56217  1.0000
  C   C342      1.0  0.48590  0.00638  0.51206  1.0000
  H   H624      1.0  0.40406  0.17675  0.62001  1.0000
  H   H625      1.0  0.55130  0.03229  0.65081  1.0000
  C   C343      1.0  0.34220  0.02708  0.80967  1.0000
  C   C344      1.0  0.49665  0.25448  0.52601  1.0000
  H   H626      1.0  0.50583  0.21695  0.66117  1.0000
  H   H627      1.0  0.57666  0.08405  0.91904  1.0000
  H   H628      1.0  0.39872  0.28281  0.95499  1.0000
  H   H629      1.0  0.35754  0.20321  0.91773  1.0000
  C   C345      1.0  0.49301  0.20655  0.50921  1.0000
  H   H630      1.0  0.54337  0.05696  0.51188  1.0000
  H   H631      1.0  0.58799  0.45036  0.87358  1.0000
  H   H632      1.0  0.42593  0.00268  0.85665  1.0000
  C   C346      1.0  0.53547  0.02696  0.72698  1.0000
  C   C347      1.0  0.45240  0.19879  0.65428  1.0000
  C   C348      1.0  0.59262  0.12445  0.78252  1.0000
  C   C349      1.0  0.57899  0.14124  0.75916  1.0000
  C   C350      1.0  0.56608  0.13088  0.72663  1.0000
  C   C351      1.0  0.56696  0.10357  0.71619  1.0000
  C   C352      1.0  0.58087  0.08688  0.73906  1.0000
  C   C353      1.0  0.59346  0.09714  0.77214  1.0000
  H   H633      1.0  0.57833  0.16246  0.76644  1.0000
  H   H634      1.0  0.55573  0.14413  0.70916  1.0000
  H   H635      1.0  0.58210  0.06587  0.73089  1.0000
  H   H636      1.0  0.60406  0.08399  0.78918  1.0000
  H   H637      1.0  0.56384  0.17341  0.93243  1.0000
  C   C354      1.0  0.47227  0.98388  0.50964  1.0000
  H   H638      1.0  0.60260  0.25594  0.93640  1.0000
  H   H639      1.0  0.57157  0.03427  0.58285  1.0000
  C   C355      1.0  0.43722  0.24503  0.59179  1.0000
  C   C356      1.0  0.39592  0.98329  0.89951  1.0000
  H   H640      1.0  0.63017  0.02660  0.92582  1.0000
  C   C357      1.0  0.39219  0.10519  0.78067  1.0000
  C   C358      1.0  0.39729  0.09221  0.74255  1.0000
  C   C359      1.0  0.41651  0.09760  0.72113  1.0000
  C   C360      1.0  0.43082  0.11640  0.73731  1.0000
  C   C361      1.0  0.42585  0.12908  0.77574  1.0000
  C   C362      1.0  0.40678  0.12340  0.79744  1.0000
  H   H641      1.0  0.38615  0.07810  0.72918  1.0000
  H   H642      1.0  0.41998  0.08769  0.69164  1.0000
  H   H643      1.0  0.43673  0.14370  0.78860  1.0000
  H   H644      1.0  0.40313  0.13364  0.82657  1.0000
  Fe  Fe42      1.0  0.34456  0.07846  0.95463  1.0000
  H   H645      1.0  0.41409  0.07661  0.93669  1.0000
  H   H646      1.0  0.42553  0.02913  0.92281  1.0000
  H   H647      1.0  0.41172  0.98300  0.91489  1.0000
  C   C363      1.0  0.41118  0.06025  0.95997  1.0000
  H   H648      1.0  0.59034  0.03768  0.92028  1.0000
  H   H649      1.0  0.34218  0.01010  0.78704  1.0000
  H   H650      1.0  0.41529  0.16273  0.55741  1.0000
  H   H651      1.0  0.40960  0.48038  0.57484  1.0000
  C   C364      1.0  0.56755  0.06819  0.90261  1.0000
  H   H652      1.0  0.37672  0.03048  0.92373  1.0000
  C   C365      1.0  0.50375  0.00661  0.48563  1.0000
  C   C366      1.0  0.58311  0.04591  0.89109  1.0000
  H   H653      1.0  0.51774  0.99705  0.69437  1.0000
  H   H654      1.0  0.42580  0.05132  0.85785  1.0000
  H   H655      1.0  0.55971  0.44583  0.87551  1.0000
  C   C367      1.0  0.54239  0.31602  0.52011  1.0000
  C   C368      1.0  0.41775  0.04125  0.83115  1.0000
  H   H656      1.0  0.65608  0.23387  0.84523  1.0000
  H   H657      1.0  0.44885  0.25375  0.61401  1.0000
  Fe  Fe43      1.0  0.62998  0.08967  0.96049  1.0000
  Fe  Fe44      1.0  0.34926  0.13957  0.95171  1.0000
  C   C369      1.0  0.55589  0.03995  0.57010  1.0000
  H   H658      1.0  0.40802  0.00074  0.81425  1.0000
  C   C370      1.0  0.54003  0.01607  0.57160  1.0000
  C   C371      1.0  0.53730  0.01880  0.64797  1.0000
  H   H659      1.0  0.39621  0.06424  0.97724  1.0000
  H   H660      1.0  0.40917  0.21989  0.59658  1.0000
  H   H661      1.0  0.45123  0.16469  0.58930  1.0000
  H   H662      1.0  0.42518  0.03351  0.76518  1.0000
  S   S90       1.0  0.33263  0.14312  0.88939  1.0000
  H   H663      1.0  0.58383  0.17086  0.89166  1.0000
  H   H664      1.0  0.61364  0.20856  0.94871  1.0000
  H   H665      1.0  0.47933  0.12594  0.94104  1.0000
  H   H666      1.0  0.54981  0.05680  0.58953  1.0000
  H   H667      1.0  0.66327  0.29583  0.94337  1.0000
  H   H668      1.0  0.44735  0.02939  0.80084  1.0000
  H   H669      1.0  0.56958  0.06824  0.52547  1.0000
  H   H670      1.0  0.40646  0.20378  0.69068  1.0000
  N   N20       1.0  0.39305  0.00897  0.87437  1.0000
  C   C372      1.0  0.35438  0.21650  0.94392  1.0000
  H   H671      1.0  0.40402  0.05380  0.82256  1.0000
  H   H672      1.0  0.43618  0.46844  0.58254  1.0000
  H   H673      1.0  0.41458  0.27717  0.60435  1.0000
  H   H674      1.0  0.65286  0.25763  0.91336  1.0000
  C   C373      1.0  0.42664  0.17851  0.54713  1.0000
  H   H675      1.0  0.64345  0.21307  0.88453  1.0000
  S   S91       1.0  0.61284  0.30526  0.97830  1.0000
  H   H676      1.0  0.54570  0.99000  0.69842  1.0000
  H   H677      1.0  0.59599  0.05402  0.87073  1.0000
  H   H678      1.0  0.57493  0.02928  0.87446  1.0000
  C   C374      1.0  0.47392  0.46879  0.48450  1.0000
  C   C375      1.0  0.36438  0.03165  0.82739  1.0000
  H   H679      1.0  0.56824  0.08282  0.83800  1.0000
  H   H680      1.0  0.64090  0.32675  0.90255  1.0000
  C   C376      1.0  0.41846  0.17697  0.64009  1.0000
  S   S92       1.0  0.64541  0.08643  0.89670  1.0000
  H   H681      1.0  0.37773  0.17147  0.67854  1.0000
  C   C377      1.0  0.37237  0.00647  0.85096  1.0000
  H   H682      1.0  0.39543  0.31503  0.98022  1.0000
  C   C378      1.0  0.42312  0.26819  0.57720  1.0000
  H   H683      1.0  0.57246  0.45278  0.82573  1.0000
  H   H684      1.0  0.35968  0.00017  0.87313  1.0000
  C   C379      1.0  0.42409  0.22290  0.61450  1.0000
  C   C380      1.0  0.41132  0.01207  0.84374  1.0000
  H   H685      1.0  0.55591  0.05957  0.92523  1.0000
  H   H686      1.0  0.48441  0.22957  0.69307  1.0000
  H   H687      1.0  0.39079  0.05162  0.88941  1.0000
  H   H688      1.0  0.45502  0.17909  0.67037  1.0000
  C   C381      1.0  0.33905  0.00256  0.94799  1.0000
  H   H689      1.0  0.49115  0.19417  0.69462  1.0000
  C   C382      1.0  0.56685  0.17505  0.89800  1.0000
  H   H690      1.0  0.52360  0.03227  0.64186  1.0000
  H   H691      1.0  0.42467  0.15595  0.63988  1.0000
  C   C383      1.0  0.63402  0.46795  0.97221  1.0000
  H   H692      1.0  0.41587  0.45948  0.62011  1.0000
  C   C384      1.0  0.39173  0.03182  0.90549  1.0000
  H   H693      1.0  0.66166  0.35195  0.90229  1.0000
  H   H694      1.0  0.43809  0.06254  0.78701  1.0000
  S   S93       1.0  0.34987  0.29677  0.96188  1.0000
  H   H695      1.0  0.49753  0.10362  0.96724  1.0000
  H   H696      1.0  0.45577  0.19670  0.56761  1.0000
  H   H697      1.0  0.44557  0.23753  0.56349  1.0000
  H   H698      1.0  0.50042  0.26981  0.54889  1.0000
  H   H699      1.0  0.41894  0.23198  0.64474  1.0000
  C   C385      1.0  0.63150  0.01343  0.95289  1.0000
  N   N21       1.0  0.54296  0.10417  0.86901  1.0000
  C   C386      1.0  0.53435  0.11230  0.82643  1.0000
  C   C387      1.0  0.55743  0.12589  0.88627  1.0000
  H   H700      1.0  0.50651  0.99252  0.60942  1.0000
  C   C388      1.0  0.52558  0.09763  0.90007  1.0000
  C   C389      1.0  0.50871  0.11968  0.90695  1.0000
  C   C390      1.0  0.51999  0.09150  0.80390  1.0000
  H   H701      1.0  0.52783  0.30503  0.52965  1.0000
  C   C391      1.0  0.55278  0.15550  0.87365  1.0000
  C   C392      1.0  0.40696  0.29895  0.97273  1.0000
  H   H702      1.0  0.37328  0.99041  0.82673  1.0000
  C   C393      1.0  0.50940  0.10385  0.76510  1.0000
  C   C394      1.0  0.61392  0.25135  0.96090  1.0000
  H   H703      1.0  0.54770  0.11677  0.80466  1.0000
  H   H704      1.0  0.52529  0.13132  0.82827  1.0000
  H   H705      1.0  0.55812  0.12479  0.92132  1.0000
  H   H706      1.0  0.57402  0.12253  0.87572  1.0000
  H   H707      1.0  0.45834  0.98324  0.52950  1.0000
  Fe  Fe45      1.0  0.63904  0.15035  0.96687  1.0000
  H   H708      1.0  0.51736  0.07870  0.89109  1.0000
  H   H709      1.0  0.53240  0.09334  0.93170  1.0000
  H   H710      1.0  0.50119  0.12588  0.87693  1.0000
  H   H711      1.0  0.35403  0.25240  0.90553  1.0000
  C   C395      1.0  0.43305  0.04152  0.79378  1.0000
  H   H712      1.0  0.50723  0.08404  0.82492  1.0000
  H   H713      1.0  0.54618  0.06221  0.85112  1.0000
  H   H714      1.0  0.33347  0.01788  0.92645  1.0000
  H   H715      1.0  0.55618  0.15856  0.83956  1.0000
  H   H716      1.0  0.53611  0.16107  0.87951  1.0000
  C   C396      1.0  0.34961  0.26187  0.97120  1.0000
  H   H717      1.0  0.66076  0.02589  0.86500  1.0000
  H   H718      1.0  0.33694  0.04554  0.79286  1.0000
  N   N22       1.0  0.54025  0.99957  0.61164  1.0000
  H   H719      1.0  0.40746  0.01752  0.96290  1.0000
  H   H720      1.0  0.51431  0.02373  0.48615  1.0000
  H   H721      1.0  0.49871  0.12056  0.77427  1.0000
  H   H722      1.0  0.52143  0.11161  0.74254  1.0000
  H   H723      1.0  0.49979  0.08836  0.74880  1.0000
  H   H724      1.0  0.37485  0.03635  0.80025  1.0000
  H   H725      1.0  0.38782  0.16767  0.73135  1.0000
  H   H726      1.0  0.52951  0.07416  0.79282  1.0000
  H   H727      1.0  0.42368  0.17752  0.70877  1.0000
  H   H728      1.0  0.64743  0.48013  0.91264  1.0000
  S   S94       1.0  0.65491  0.15120  0.90367  1.0000
  C   C397      1.0  0.41003  0.03303  0.93802  1.0000
  C   C398      1.0  0.55607  0.07911  0.86279  1.0000
  H   H729      1.0  0.41779  0.19702  0.53894  1.0000
  H   H730      1.0  0.54265  0.00337  0.54345  1.0000
  C   C399      1.0  0.35250  0.24434  0.93714  1.0000
  H   H731      1.0  0.39493  0.14368  0.69148  1.0000
  C   C400      1.0  0.55881  0.05056  0.52519  1.0000
  N   N23       1.0  0.43482  0.19622  0.62225  1.0000
  C   C401      1.0  0.39168  0.16526  0.69738  1.0000
  C   C402      1.0  0.53384  0.00592  0.69212  1.0000
  S   S95       1.0  0.64148  0.43405  0.96496  1.0000
  H   H732      1.0  0.50315  0.22159  0.56922  1.0000
  H   H733      1.0  0.48139  0.19046  0.61846  1.0000
  H   H734      1.0  0.48273  0.09221  0.92180  1.0000
  C   C403      1.0  0.44322  0.18406  0.58203  1.0000
  H   H735      1.0  0.47418  0.22513  0.61778  1.0000
  C   C404      1.0  0.35955  0.47732  0.97245  1.0000
  C   C405      1.0  0.48987  0.21223  0.67401  1.0000
  C   C406      1.0  0.65517  0.33421  0.88554  1.0000
  C   C407      1.0  0.41094  0.18250  0.68599  1.0000
  C   C408      1.0  0.42176  0.47575  0.59899  1.0000
  H   H736      1.0  0.36338  0.04911  0.84872  1.0000
  H   H737      1.0  0.44777  0.21311  0.67957  1.0000
  H   H738      1.0  0.55554  0.31036  0.54150  1.0000
  H   H739      1.0  0.53200  0.01750  0.75800  1.0000
  C   C409      1.0  0.49105  0.10963  0.93608  1.0000
  H   H740      1.0  0.37079  0.47348  0.94743  1.0000
  H   H741      1.0  0.52404  0.02492  0.56675  1.0000
  H   H742      1.0  0.55166  0.03559  0.72796  1.0000
  C   C410      1.0  0.62017  0.22454  0.96775  1.0000
  H   H743      1.0  0.56350  0.19600  0.88779  1.0000
  H   H744      1.0  0.41949  0.30766  0.95219  1.0000
  H   H745      1.0  0.53931  0.33790  0.52343  1.0000
  C   C411      1.0  0.57272  0.45725  0.86001  1.0000
  H   H746      1.0  0.52396  0.04348  0.72153  1.0000
  C   C412      1.0  0.65859  0.22291  0.87538  1.0000
  H   H747      1.0  0.58008  0.99227  0.56132  1.0000
  H   H748      1.0  0.56583  0.03484  0.50472  1.0000
  C   C413      1.0  0.43722  0.16850  0.50680  1.0000
  H   H749      1.0  0.44659  0.15005  0.51316  1.0000
  H   H750      1.0  0.53902  0.26879  0.48322  1.0000
  H   H751      1.0  0.38414  0.98226  0.92578  1.0000
  H   H752      1.0  0.52704  0.47797  0.48430  1.0000
  H   H753      1.0  0.44784  0.18423  0.49351  1.0000
  H   H754      1.0  0.55060  0.22495  0.48523  1.0000
  C   C414      1.0  0.49077  0.26240  0.48487  1.0000
  H   H755      1.0  0.56681  0.27441  0.48692  1.0000
  H   H756      1.0  0.42499  0.16369  0.48293  1.0000
  H   H757      1.0  0.34239  0.79641  0.20813  1.0000
  H   H758      1.0  0.63637  0.59447  0.07955  1.0000
  H   H759      1.0  0.41877  0.97565  0.30391  1.0000
  H   H760      1.0  0.53254  0.69564  0.41972  1.0000
  H   H761      1.0  0.49225  0.65309  0.34387  1.0000
  H   H762      1.0  0.55860  0.83402  0.42917  1.0000
  Fe  Fe46      1.0  0.36360  0.86021  0.07734  1.0000
  S   S96       1.0  0.39194  0.86482  0.12286  1.0000
  S   S97       1.0  0.37596  0.86166  0.01024  1.0000
  C   C415      1.0  0.44191  0.78490  0.14546  1.0000
  C   C416      1.0  0.54470  0.70573  0.43925  1.0000
  Fe  Fe47      1.0  0.64689  0.90120  0.02157  1.0000
  C   C417      1.0  0.51342  0.63542  0.39063  1.0000
  H   H763      1.0  0.38547  0.69983  0.17502  1.0000
  Fe  Fe48      1.0  0.63924  0.83995  0.02143  1.0000
  H   H764      1.0  0.46055  0.95916  0.39184  1.0000
  H   H765      1.0  0.45011  0.54962  0.47049  1.0000
  Fe  Fe49      1.0  0.63518  0.87128  0.10358  1.0000
  S   S98       1.0  0.61762  0.88048  0.16587  1.0000
  H   H766      1.0  0.60236  0.92209  0.10084  1.0000
  S   S99       1.0  0.61914  0.87528  0.04046  1.0000
  C   C418      1.0  0.33700  0.50854  0.01023  1.0000
  H   H767      1.0  0.46897  0.94314  0.32156  1.0000
  H   H768      1.0  0.40342  0.89036  0.43991  1.0000
  H   H769      1.0  0.59211  0.96710  0.16437  1.0000
  Fe  Fe50      1.0  0.46517  0.85687  0.33741  1.0000
  S   S100      1.0  0.48816  0.82246  0.33542  1.0000
  S   S101      1.0  0.43163  0.85432  0.30892  1.0000
  Fe  Fe51      1.0  0.49464  0.89196  0.39227  1.0000
  S   S102      1.0  0.51975  0.85935  0.39283  1.0000
  C   C419      1.0  0.59760  0.94346  0.10549  1.0000
  Fe  Fe52      1.0  0.51335  0.85393  0.32334  1.0000
  S   S103      1.0  0.53581  0.84001  0.27003  1.0000
  Fe  Fe53      1.0  0.49357  0.82889  0.40474  1.0000
  H   H770      1.0  0.55182  0.78676  0.41606  1.0000
  S   S104      1.0  0.48982  0.88807  0.32150  1.0000
  S   S105      1.0  0.46887  0.86195  0.40825  1.0000
  H   H771      1.0  0.48103  0.92573  0.25144  1.0000
  C   C420      1.0  0.42190  0.91940  0.40398  1.0000
  C   C421      1.0  0.59469  0.86887  0.19400  1.0000
  C   C422      1.0  0.58292  0.84642  0.18144  1.0000
  C   C423      1.0  0.56508  0.83797  0.20515  1.0000
  C   C424      1.0  0.55845  0.85201  0.24139  1.0000
  C   C425      1.0  0.57008  0.87463  0.25371  1.0000
  C   C426      1.0  0.58809  0.88285  0.23032  1.0000
  H   H772      1.0  0.58769  0.83537  0.15372  1.0000
  H   H773      1.0  0.55629  0.82044  0.19518  1.0000
  H   H774      1.0  0.56534  0.88563  0.28150  1.0000
  H   H775      1.0  0.59704  0.90018  0.24057  1.0000
  C   C427      1.0  0.40359  0.74677  0.14073  1.0000
  H   H776      1.0  0.46593  0.94485  0.48169  1.0000
  C   C428      1.0  0.64470  0.73612  0.02362  1.0000
  C   C429      1.0  0.64082  0.76382  0.01924  1.0000
  C   C430      1.0  0.38867  0.69924  0.14059  1.0000
  H   H777      1.0  0.64358  0.77722  0.04541  1.0000
  H   H778      1.0  0.65697  0.58871  0.11778  1.0000
  H   H779      1.0  0.46086  0.58240  0.41550  1.0000
  C   C431      1.0  0.49457  0.96198  0.45642  1.0000
  H   H780      1.0  0.45482  0.60997  0.44973  1.0000
  C   C432      1.0  0.58900  0.93602  0.01127  1.0000
  H   H781      1.0  0.60898  0.51037  0.04000  1.0000
  H   H782      1.0  0.63768  0.96611  0.04967  1.0000
  C   C433      1.0  0.40240  0.86248  0.17521  1.0000
  C   C434      1.0  0.42416  0.86715  0.18154  1.0000
  C   C435      1.0  0.43344  0.86454  0.22190  1.0000
  C   C436      1.0  0.42100  0.85749  0.25685  1.0000
  C   C437      1.0  0.39921  0.85302  0.25058  1.0000
  C   C438      1.0  0.38997  0.85537  0.21014  1.0000
  H   H783      1.0  0.43400  0.87262  0.15488  1.0000
  H   H784      1.0  0.45021  0.86798  0.22595  1.0000
  H   H785      1.0  0.38936  0.84763  0.27727  1.0000
  H   H786      1.0  0.37323  0.85183  0.20611  1.0000
  H   H787      1.0  0.35103  0.71997  0.05891  1.0000
  C   C439      1.0  0.35562  0.75205  0.01374  1.0000
  H   H788      1.0  0.53999  0.88661  0.17495  1.0000
  H   H789      1.0  0.58263  0.76355  0.32438  1.0000
  H   H790      1.0  0.51786  0.66894  0.34733  1.0000
  H   H791      1.0  0.53295  0.55703  0.46485  1.0000
  H   H792      1.0  0.60550  0.93324  0.02216  1.0000
  H   H793      1.0  0.36994  0.93804  0.27894  1.0000
  H   H794      1.0  0.65438  0.56661  0.02751  1.0000
  H   H795      1.0  0.44710  0.78636  0.11212  1.0000
  C   C440      1.0  0.46580  0.93253  0.23777  1.0000
  H   H796      1.0  0.48513  0.76521  0.34804  1.0000
  H   H797      1.0  0.43210  0.92366  0.43168  1.0000
  H   H798      1.0  0.50416  0.53828  0.44376  1.0000
  C   C441      1.0  0.56319  0.81410  0.36854  1.0000
  C   C442      1.0  0.52144  0.59864  0.46247  1.0000
  C   C443      1.0  0.56538  0.76502  0.31740  1.0000
  H   H799      1.0  0.54396  0.74801  0.27046  1.0000
  H   H800      1.0  0.38954  0.72531  0.08689  1.0000
  H   H801      1.0  0.53470  0.60433  0.44114  1.0000
  H   H802      1.0  0.52655  0.64297  0.41058  1.0000
  H   H803      1.0  0.57095  0.73109  0.22172  1.0000
  C   C444      1.0  0.41110  0.80401  0.05835  1.0000
  H   H804      1.0  0.54982  0.91766  0.19633  1.0000
  H   H805      1.0  0.39256  0.92827  0.33950  1.0000
  H   H806      1.0  0.51262  0.73296  0.36986  1.0000
  C   C445      1.0  0.43537  0.92163  0.36302  1.0000
  H   H807      1.0  0.46182  0.91912  0.21100  1.0000
  H   H808      1.0  0.51987  0.62070  0.36778  1.0000
  H   H809      1.0  0.57529  0.81534  0.34318  1.0000
  S   S106      1.0  0.66211  0.89959  0.08535  1.0000
  H   H810      1.0  0.40205  0.74599  0.17570  1.0000
  H   H811      1.0  0.60968  0.95529  0.08815  1.0000
  C   C446      1.0  0.49364  0.75315  0.32406  1.0000
  H   H812      1.0  0.45534  0.96978  0.29573  1.0000
  C   C447      1.0  0.57539  0.74593  0.24624  1.0000
  H   H813      1.0  0.55691  0.93346  0.03548  1.0000
  H   H814      1.0  0.55958  0.95394  0.14641  1.0000
  H   H815      1.0  0.54972  0.72030  0.36080  1.0000
  H   H816      1.0  0.44607  0.90998  0.28004  1.0000
  H   H817      1.0  0.54845  0.90080  0.10321  1.0000
  S   S107      1.0  0.65383  0.83417  0.08543  1.0000
  H   H818      1.0  0.40672  0.92443  0.29134  1.0000
  H   H819      1.0  0.55889  0.98061  0.05541  1.0000
  H   H820      1.0  0.52801  0.78426  0.32342  1.0000
  C   C448      1.0  0.49548  0.76064  0.47266  1.0000
  C   C449      1.0  0.38104  0.78725  0.13028  1.0000
  C   C450      1.0  0.41612  0.96035  0.32917  1.0000
  H   H821      1.0  0.37682  0.68577  0.12567  1.0000
  H   H822      1.0  0.52289  0.52623  0.37740  1.0000
  C   C451      1.0  0.37117  0.78533  0.17505  1.0000
  H   H823      1.0  0.57041  0.85474  0.38860  1.0000
  H   H824      1.0  0.50028  0.50511  0.38759  1.0000
  C   C452      1.0  0.44808  0.93130  0.27065  1.0000
  H   H825      1.0  0.38128  0.80899  0.12211  1.0000
  C   C453      1.0  0.41229  0.89136  0.40968  1.0000
  H   H826      1.0  0.52228  0.77984  0.37733  1.0000
  H   H827      1.0  0.66242  0.60798  0.07041  1.0000
  C   C454      1.0  0.62378  0.95231  0.16470  1.0000
  C   C455      1.0  0.41748  0.80164  0.01201  1.0000
  H   H828      1.0  0.58746  0.95643  0.99747  1.0000
  C   C456      1.0  0.45579  0.80408  0.17092  1.0000
  H   H829      1.0  0.57500  0.90963  0.05686  1.0000
  C   C457      1.0  0.44569  0.96769  0.37851  1.0000
  C   C458      1.0  0.50534  0.52594  0.37941  1.0000
  H   H830      1.0  0.41459  0.79023  0.18477  1.0000
  S   S108      1.0  0.49929  0.79512  0.45524  1.0000
  C   C459      1.0  0.52968  0.76956  0.34985  1.0000
  H   H831      1.0  0.48020  0.54309  0.41554  1.0000
  H   H832      1.0  0.45436  0.82492  0.15854  1.0000
  H   H833      1.0  0.45118  0.80382  0.20476  1.0000
  H   H834      1.0  0.47262  0.79792  0.16840  1.0000
  H   H835      1.0  0.57492  0.76636  0.23185  1.0000
  S   S109      1.0  0.34871  0.67113  0.01246  1.0000
  H   H836      1.0  0.36965  0.76416  0.18573  1.0000
  H   H837      1.0  0.48401  0.73498  0.31733  1.0000
  H   H838      1.0  0.49528  0.76507  0.29451  1.0000
  C   C460      1.0  0.48351  0.58834  0.46799  1.0000
  S   S110      1.0  0.50084  0.93473  0.42078  1.0000
  H   H839      1.0  0.44504  0.76422  0.15708  1.0000
  H   H840      1.0  0.41932  0.73780  0.13384  1.0000
  C   C461      1.0  0.55639  0.73707  0.37941  1.0000
  C   C462      1.0  0.38700  0.72737  0.12133  1.0000
  H   H841      1.0  0.49414  0.58051  0.37500  1.0000
  H   H842      1.0  0.57164  0.90282  0.13548  1.0000
  H   H843      1.0  0.48151  0.62102  0.39882  1.0000
  H   H844      1.0  0.63317  0.93488  0.15351  1.0000
  H   H845      1.0  0.65053  0.72832  0.05327  1.0000
  H   H846      1.0  0.40789  0.97149  0.35481  1.0000
  H   H847      1.0  0.47689  0.69905  0.44176  1.0000
  C   C463      1.0  0.35112  0.70476  0.99552  1.0000
  H   H848      1.0  0.39605  0.76544  0.06024  1.0000
  C   C464      1.0  0.50489  0.65953  0.36593  1.0000
  S   S111      1.0  0.33669  0.88910  0.06317  1.0000
  H   H849      1.0  0.57364  0.73263  0.38110  1.0000
  C   C465      1.0  0.65943  0.56464  0.06064  1.0000
  H   H850      1.0  0.37062  0.73448  0.12679  1.0000
  C   C466      1.0  0.49596  0.62247  0.41863  1.0000
  C   C467      1.0  0.55994  0.74397  0.28334  1.0000
  C   C468      1.0  0.57324  0.93124  0.04825  1.0000
  H   H851      1.0  0.54774  0.82036  0.35544  1.0000
  C   C469      1.0  0.51530  0.74479  0.34061  1.0000
  H   H852      1.0  0.49840  0.67484  0.38783  1.0000
  C   C470      1.0  0.54217  0.90841  0.16842  1.0000
  C   C471      1.0  0.60043  0.94895  0.15339  1.0000
  C   C472      1.0  0.61752  0.50384  0.01228  1.0000
  H   H853      1.0  0.47988  0.74642  0.41693  1.0000
  H   H854      1.0  0.59179  0.74155  0.25668  1.0000
  H   H855      1.0  0.43359  0.93851  0.25465  1.0000
  S   S112      1.0  0.34322  0.82333  0.06572  1.0000
  H   H856      1.0  0.52233  0.73105  0.31723  1.0000
  H   H857      1.0  0.40465  0.69068  0.13498  1.0000
  H   H858      1.0  0.53210  0.74521  0.42813  1.0000
  H   H859      1.0  0.40876  0.93414  0.40429  1.0000
  H   H860      1.0  0.52044  0.57506  0.39130  1.0000
  N   N24       1.0  0.43713  0.94952  0.34441  1.0000
  C   C473      1.0  0.65354  0.59055  0.08357  1.0000
  H   H861      1.0  0.56301  0.78472  0.30124  1.0000
  H   H862      1.0  0.35662  0.76759  0.03728  1.0000
  C   C474      1.0  0.63523  0.97901  0.02270  1.0000
  N   N25       1.0  0.50117  0.59539  0.43785  1.0000
  C   C475      1.0  0.54754  0.73492  0.42511  1.0000
  C   C476      1.0  0.34905  0.79767  0.17574  1.0000
  H   H863      1.0  0.63027  0.97097  0.15019  1.0000
  C   C477      1.0  0.50381  0.57492  0.40299  1.0000
  C   C478      1.0  0.49764  0.54526  0.41342  1.0000
  C   C479      1.0  0.45320  0.94926  0.30907  1.0000
  C   C480      1.0  0.35246  0.72513  0.02588  1.0000
  C   C481      1.0  0.55603  0.91211  0.12928  1.0000
  C   C482      1.0  0.55824  0.94225  0.11691  1.0000
  H   H864      1.0  0.38090  0.79643  0.19827  1.0000
  H   H865      1.0  0.36978  0.77809  0.10759  1.0000
  H   H866      1.0  0.52634  0.91755  0.16358  1.0000
  H   H867      1.0  0.42900  0.90726  0.33975  1.0000
  N   N26       1.0  0.55284  0.76387  0.35799  1.0000
  H   H868      1.0  0.41623  0.81379  0.14328  1.0000
  N   N27       1.0  0.40284  0.77544  0.12512  1.0000
  N   N28       1.0  0.57606  0.94876  0.08675  1.0000
  H   H869      1.0  0.59398  0.93183  0.17197  1.0000
  C   C483      1.0  0.48426  0.71385  0.46182  1.0000
  Fe  Fe54      1.0  0.34806  0.88798  0.99617  1.0000
  H   H870      1.0  0.42928  0.57358  0.46085  1.0000
  H   H871      1.0  0.45139  0.91368  0.37060  1.0000
  H   H872      1.0  0.39599  0.81525  0.05957  1.0000
  H   H873      1.0  0.46771  0.95334  0.22545  1.0000
  H   H874      1.0  0.40122  0.88674  0.38354  1.0000
  C   C484      1.0  0.48598  0.74089  0.44748  1.0000
  C   C485      1.0  0.38169  0.95334  0.28911  1.0000
  C   C486      1.0  0.40850  0.77580  0.07886  1.0000
  H   H875      1.0  0.43442  0.96879  0.40543  1.0000
  C   C487      1.0  0.46091  0.58901  0.44884  1.0000
  H   H876      1.0  0.42318  0.76409  0.07296  1.0000
  H   H877      1.0  0.34971  0.81920  0.16624  1.0000
  H   H878      1.0  0.56070  0.72314  0.29574  1.0000
  H   H879      1.0  0.49855  0.53136  0.34828  1.0000
  Fe  Fe55      1.0  0.35458  0.82641  0.99882  1.0000
  H   H880      1.0  0.58597  0.82917  0.41430  1.0000
  C   C488      1.0  0.56166  0.78523  0.38693  1.0000
  H   H881      1.0  0.41855  0.82202  0.99769  1.0000
  H   H882      1.0  0.35923  0.94739  0.02515  1.0000
  C   C489      1.0  0.35346  0.96266  0.00370  1.0000
  C   C490      1.0  0.44553  0.57109  0.47341  1.0000
  C   C491      1.0  0.41817  0.79205  0.15053  1.0000
  H   H883      1.0  0.55988  0.69464  0.43699  1.0000
  H   H884      1.0  0.49204  0.63724  0.44384  1.0000
  H   H885      1.0  0.42481  0.87580  0.41028  1.0000
  H   H886      1.0  0.42344  0.81612  0.07430  1.0000
  C   C492      1.0  0.39970  0.93951  0.31273  1.0000
  H   H887      1.0  0.54282  0.94854  0.10310  1.0000
  H   H888      1.0  0.43312  0.79170  0.00900  1.0000
  H   H889      1.0  0.57786  0.77962  0.39762  1.0000
  H   H890      1.0  0.65014  0.54814  0.07541  1.0000
  C   C493      1.0  0.57414  0.97768  0.07239  1.0000
  C   C494      1.0  0.56995  0.83415  0.40236  1.0000
  H   H891      1.0  0.55865  0.74475  0.44740  1.0000
  H   H892      1.0  0.37358  0.96808  0.30978  1.0000
  H   H893      1.0  0.33833  0.78669  0.15404  1.0000
  S   S113      1.0  0.64598  0.68383  0.99764  1.0000
  H   H894      1.0  0.62550  0.95364  0.19945  1.0000
  H   H895      1.0  0.38782  0.96380  0.26055  1.0000
  H   H896      1.0  0.40549  0.78992  0.99427  1.0000
  H   H897      1.0  0.66362  0.51140  0.04907  1.0000
  H   H898      1.0  0.48605  0.56835  0.48246  1.0000
  S   S114      1.0  0.61532  0.55664  0.98684  1.0000
  C   C495      1.0  0.64080  0.71839  0.99015  1.0000
  H   H899      1.0  0.53921  0.70520  0.47257  1.0000
  C   C496      1.0  0.47656  0.96191  0.48241  1.0000
  H   H900      1.0  0.58546  0.89526  0.98624  1.0000
  H   H901      1.0  0.50005  0.92818  0.55228  1.0000
  C   C497      1.0  0.41023  0.71376  0.92338  1.0000
  S   S115      1.0  0.65740  0.61352  0.97608  1.0000
  H   H902      1.0  0.43720  0.69449  0.89398  1.0000
  Fe  Fe56      1.0  0.34851  0.60222  0.89120  1.0000
  S   S116      1.0  0.37656  0.59317  0.84640  1.0000
  S   S117      1.0  0.36011  0.60060  0.95861  1.0000
  S   S118      1.0  0.64724  0.93559  0.97393  1.0000
  S   S119      1.0  0.64742  0.58366  0.88696  1.0000
  H   H903      1.0  0.43290  0.56690  0.69214  1.0000
  H   H904      1.0  0.40470  0.61683  0.94677  1.0000
  Fe  Fe57      1.0  0.63122  0.62200  0.86659  1.0000
  S   S120      1.0  0.61798  0.62367  0.79901  1.0000
  S   S121      1.0  0.61326  0.62736  0.92762  1.0000
  Fe  Fe58      1.0  0.45790  0.61924  0.64576  1.0000
  S   S122      1.0  0.48438  0.64972  0.64598  1.0000
  S   S123      1.0  0.42500  0.62656  0.67546  1.0000
  Fe  Fe59      1.0  0.48305  0.57935  0.58790  1.0000
  S   S124      1.0  0.51152  0.60722  0.58630  1.0000
  S   S125      1.0  0.47490  0.53866  0.55463  1.0000
  Fe  Fe60      1.0  0.50579  0.61374  0.65647  1.0000
  S   S126      1.0  0.52525  0.61176  0.71804  1.0000
  Fe  Fe61      1.0  0.48849  0.64193  0.57606  1.0000
  S   S127      1.0  0.48962  0.67077  0.51742  1.0000
  S   S128      1.0  0.47880  0.58382  0.65821  1.0000
  S   S129      1.0  0.46045  0.61361  0.57539  1.0000
  H   H905      1.0  0.38547  0.55577  0.62833  1.0000
  H   H906      1.0  0.61561  0.51811  0.78482  1.0000
  C   C498      1.0  0.46405  0.53101  0.72568  1.0000
  C   C499      1.0  0.48340  0.50985  0.52421  1.0000
  H   H907      1.0  0.35121  0.69589  0.92939  1.0000
  C   C500      1.0  0.42557  0.72751  0.95357  1.0000
  H   H908      1.0  0.58889  0.58588  0.88810  1.0000
  H   H909      1.0  0.60586  0.54971  0.76419  1.0000
  C   C501      1.0  0.42170  0.70252  0.88381  1.0000
  C   C502      1.0  0.41992  0.61823  0.92939  1.0000
  S   S130      1.0  0.36267  0.79204  0.95499  1.0000
  H   H910      1.0  0.45678  0.68677  0.76670  1.0000
  C   C503      1.0  0.59014  0.95500  0.58847  1.0000
  C   C504      1.0  0.58494  0.91644  0.97513  1.0000
  H   H911      1.0  0.52063  0.96906  0.64141  1.0000
  S   S131      1.0  0.65903  0.64775  0.88737  1.0000
  C   C505      1.0  0.35941  0.53493  0.74230  1.0000
  C   C506      1.0  0.63778  0.55030  0.78657  1.0000
  C   C507      1.0  0.59203  0.62069  0.77710  1.0000
  C   C508      1.0  0.58972  0.61845  0.73307  1.0000
  C   C509      1.0  0.56952  0.61610  0.71428  1.0000
  C   C510      1.0  0.55126  0.61569  0.73937  1.0000
  C   C511      1.0  0.55360  0.61780  0.78343  1.0000
  C   C512      1.0  0.57377  0.62061  0.80211  1.0000
  H   H912      1.0  0.60367  0.61869  0.71327  1.0000
  H   H913      1.0  0.56809  0.61447  0.68043  1.0000
  H   H914      1.0  0.53965  0.61772  0.80324  1.0000
  H   H915      1.0  0.57519  0.62323  0.83577  1.0000
  C   C513      1.0  0.49148  0.70587  0.50209  1.0000
  H   H916      1.0  0.55787  0.96643  0.63839  1.0000
  H   H917      1.0  0.39959  0.52333  0.73019  1.0000
  H   H918      1.0  0.64788  0.54071  0.81094  1.0000
  H   H919      1.0  0.42571  0.72011  0.86335  1.0000
  H   H920      1.0  0.58025  0.51866  0.75779  1.0000
  H   H921      1.0  0.63782  0.52824  0.92047  1.0000
  C   C514      1.0  0.38972  0.60319  0.79886  1.0000
  C   C515      1.0  0.37959  0.61751  0.76670  1.0000
  C   C516      1.0  0.39070  0.62457  0.72950  1.0000
  C   C517      1.0  0.41211  0.61756  0.72381  1.0000
  C   C518      1.0  0.42231  0.60348  0.75620  1.0000
  C   C519      1.0  0.41113  0.59618  0.79321  1.0000
  H   H922      1.0  0.36311  0.62288  0.77023  1.0000
  H   H923      1.0  0.38259  0.63545  0.70477  1.0000
  H   H924      1.0  0.43880  0.59814  0.75272  1.0000
  H   H925      1.0  0.41920  0.58512  0.81780  1.0000
  H   H926      1.0  0.39114  0.65688  0.90235  1.0000
  H   H927      1.0  0.44552  0.57657  0.50724  1.0000
  C   C520      1.0  0.55026  0.53536  0.74088  1.0000
  H   H928      1.0  0.44314  0.54353  0.65642  1.0000
  C   C521      1.0  0.56732  0.54101  0.81265  1.0000
  S   S132      1.0  0.34500  0.92155  0.94819  1.0000
  C   C522      1.0  0.57257  0.97489  0.57757  1.0000
  H   H929      1.0  0.60316  0.56966  0.83182  1.0000
  H   H930      1.0  0.55144  0.54116  0.82799  1.0000
  H   H931      1.0  0.56975  0.56199  0.80103  1.0000
  H   H932      1.0  0.60229  0.50016  0.86829  1.0000
  H   H933      1.0  0.45343  0.67560  0.84212  1.0000
  H   H934      1.0  0.56289  0.58178  0.86576  1.0000
  H   H935      1.0  0.36396  0.51600  0.75860  1.0000
  C   C523      1.0  0.57379  0.57469  0.89070  1.0000
  H   H936      1.0  0.54797  0.57257  0.93644  1.0000
  C   C524      1.0  0.52099  0.95910  0.57654  1.0000
  C   C525      1.0  0.63370  0.51399  0.94494  1.0000
  C   C526      1.0  0.40766  0.51126  0.64946  1.0000
  C   C527      1.0  0.63971  0.96927  0.98245  1.0000
  H   H937      1.0  0.47240  0.52487  0.69639  1.0000
  H   H938      1.0  0.40169  0.69768  0.94092  1.0000
  H   H939      1.0  0.55424  0.49352  0.85440  1.0000
  C   C528      1.0  0.50471  0.50450  0.51506  1.0000
  H   H940      1.0  0.38916  0.58618  0.56590  1.0000
  H   H941      1.0  0.48656  0.95512  0.57889  1.0000
  C   C529      1.0  0.40114  0.93265  0.90120  1.0000
  C   C530      1.0  0.52940  0.57364  0.48688  1.0000
  H   H942      1.0  0.51683  0.51776  0.52701  1.0000
  H   H943      1.0  0.43410  0.74416  0.93729  1.0000
  H   H944      1.0  0.56201  0.96516  0.55445  1.0000
  C   C531      1.0  0.44307  0.66471  0.81988  1.0000
  H   H945      1.0  0.50068  0.93007  0.60903  1.0000
  C   C532      1.0  0.50082  0.94215  0.57950  1.0000
  H   H946      1.0  0.34212  0.53439  0.73631  1.0000
  Fe  Fe62      1.0  0.33971  0.63691  0.96882  1.0000
  H   H947      1.0  0.61683  0.54336  0.85820  1.0000
  H   H948      1.0  0.41312  0.54726  0.57727  1.0000
  C   C533      1.0  0.42057  0.67688  0.81759  1.0000
  H   H949      1.0  0.63012  0.71512  0.92604  1.0000
  C   C534      1.0  0.50071  0.72568  0.52753  1.0000
  H   H950      1.0  0.44200  0.64323  0.82946  1.0000
  C   C535      1.0  0.62934  0.75637  0.94759  1.0000
  C   C536      1.0  0.50284  0.75262  0.51280  1.0000
  H   H951      1.0  0.34388  0.69087  0.85003  1.0000
  Fe  Fe63      1.0  0.64200  0.65046  0.94954  1.0000
  H   H952      1.0  0.56198  0.60418  0.93504  1.0000
  H   H953      1.0  0.42145  0.69590  0.79888  1.0000
  N   N29       1.0  0.40949  0.53883  0.66915  1.0000
  H   H954      1.0  0.41822  0.93430  0.90878  1.0000
  H   H955      1.0  0.64431  0.54535  0.75502  1.0000
  H   H956      1.0  0.35656  0.51962  0.95731  1.0000
  H   H957      1.0  0.40076  0.57994  0.65596  1.0000
  C   C537      1.0  0.41467  0.56491  0.59827  1.0000
  H   H958      1.0  0.46834  0.55206  0.73359  1.0000
  H   H959      1.0  0.41150  0.66241  0.79800  1.0000
  H   H960      1.0  0.51766  0.56685  0.51071  1.0000
  C   C538      1.0  0.35609  0.73839  0.94066  1.0000
  C   C539      1.0  0.37317  0.67702  0.82077  1.0000
  C   C540      1.0  0.43176  0.54539  0.68288  1.0000
  H   H961      1.0  0.37908  0.69799  0.87815  1.0000
  Fe  Fe64      1.0  0.63070  0.59004  0.94833  1.0000
  H   H962      1.0  0.62330  0.76415  0.91810  1.0000
  H   H963      1.0  0.37717  0.95291  0.86600  1.0000
  C   C541      1.0  0.35115  0.68954  0.81821  1.0000
  C   C542      1.0  0.35153  0.50345  0.97796  1.0000
  C   C543      1.0  0.58813  0.50399  0.84818  1.0000
  C   C544      1.0  0.37135  0.53794  0.70053  1.0000
  C   C545      1.0  0.62285  0.52266  0.98081  1.0000
  C   C546      1.0  0.44013  0.52838  0.72050  1.0000
  H   H964      1.0  0.39018  0.71410  0.83302  1.0000
  H   H965      1.0  0.41959  0.60397  0.90250  1.0000
  C   C547      1.0  0.60500  0.54745  0.83305  1.0000
  H   H966      1.0  0.56258  0.53441  0.89723  1.0000
  H   H967      1.0  0.35756  0.74350  0.90760  1.0000
  H   H968      1.0  0.59208  0.49499  0.81730  1.0000
  C   C548      1.0  0.40178  0.56034  0.63919  1.0000
  C   C549      1.0  0.35251  0.71151  0.95280  1.0000
  C   C550      1.0  0.57768  0.54400  0.88719  1.0000
  H   H969      1.0  0.42392  0.66019  0.94189  1.0000
  H   H970      1.0  0.43356  0.51605  0.60203  1.0000
  H   H971      1.0  0.37137  0.65638  0.83371  1.0000
  H   H972      1.0  0.51022  0.76742  0.53288  1.0000
  C   C551      1.0  0.56498  0.52263  0.77351  1.0000
  H   H973      1.0  0.54815  0.59707  0.53160  1.0000
  H   H974      1.0  0.54820  0.52154  0.71379  1.0000
  H   H975      1.0  0.43948  0.64772  0.89914  1.0000
  C   C552      1.0  0.39554  0.53991  0.70798  1.0000
  C   C553      1.0  0.63916  0.48675  0.94062  1.0000
  H   H976      1.0  0.41509  0.59184  0.54407  1.0000
  H   H977      1.0  0.39838  0.55895  0.72553  1.0000
  H   H978      1.0  0.46942  0.51781  0.75185  1.0000
  H   H979      1.0  0.59734  0.91915  0.95054  1.0000
  N   N30       1.0  0.58432  0.53388  0.84423  1.0000
  H   H980      1.0  0.43284  0.61218  0.95105  1.0000
  N   N31       1.0  0.40938  0.68193  0.85897  1.0000
  H   H981      1.0  0.36284  0.55226  0.76331  1.0000
  H   H982      1.0  0.43720  0.71280  0.96606  1.0000
  H   H983      1.0  0.37929  0.67582  0.78801  1.0000
  C   C554      1.0  0.61502  0.54007  0.79000  1.0000
  H   H984      1.0  0.43279  0.53539  0.75038  1.0000
  C   C555      1.0  0.38810  0.69414  0.84872  1.0000
  H   H985      1.0  0.46953  0.65528  0.77859  1.0000
  H   H986      1.0  0.55706  0.55457  0.72885  1.0000
  C   C556      1.0  0.63318  0.72861  0.95199  1.0000
  H   H987      1.0  0.40317  0.63927  0.86057  1.0000
  H   H988      1.0  0.40782  0.60781  0.59266  1.0000
  C   C557      1.0  0.42717  0.50090  0.62429  1.0000
  H   H989      1.0  0.36542  0.55660  0.68532  1.0000
  H   H990      1.0  0.50651  0.72021  0.55843  1.0000
  H   H991      1.0  0.39849  0.72913  0.91351  1.0000
  H   H992      1.0  0.65677  0.84267  0.90525  1.0000
  C   C558      1.0  0.63311  0.77405  0.98120  1.0000
  H   H993      1.0  0.60161  0.96421  0.61063  1.0000
  C   C559      1.0  0.40610  0.58914  0.57385  1.0000
  H   H994      1.0  0.53446  0.53947  0.75484  1.0000
  H   H995      1.0  0.53437  0.94495  0.58036  1.0000
  C   C560      1.0  0.40590  0.65597  0.88305  1.0000
  C   C561      1.0  0.52149  0.98069  0.61148  1.0000
  H   H996      1.0  0.39189  0.93150  0.93102  1.0000
  H   H997      1.0  0.39849  0.91372  0.88351  1.0000
  C   C562      1.0  0.45400  0.66564  0.77681  1.0000
  H   H998      1.0  0.40449  0.49566  0.67401  1.0000
  H   H999      1.0  0.43160  0.56877  0.60483  1.0000
  H   H1000     1.0  0.52154  0.96827  0.54469  1.0000
  C   C563      1.0  0.56382  0.58201  0.93306  1.0000
  C   C564      1.0  0.46812  0.49171  0.50855  1.0000
  C   C565      1.0  0.34516  0.95527  0.96467  1.0000
  H   H1001     1.0  0.44429  0.65540  0.75259  1.0000
  H   H1002     1.0  0.63841  0.57245  0.79039  1.0000
  C   C566      1.0  0.33774  0.97523  0.93708  1.0000
  H   H1003     1.0  0.48353  0.60246  0.49520  1.0000
  H   H1004     1.0  0.58965  0.53835  0.91145  1.0000
  H   H1005     1.0  0.35203  0.70998  0.80402  1.0000
  H   H1006     1.0  0.59874  0.94925  0.55930  1.0000
  H   H1007     1.0  0.40366  0.95730  0.84539  1.0000
  C   C567      1.0  0.42363  0.64697  0.91381  1.0000
  C   C568      1.0  0.39396  0.95664  0.87458  1.0000
  H   H1008     1.0  0.57403  0.57535  0.95951  1.0000
  H   H1009     1.0  0.55481  0.56193  0.52895  1.0000
  H   H1010     1.0  0.58338  0.93647  0.60292  1.0000
  H   H1011     1.0  0.64189  0.97938  0.91645  1.0000
  H   H1012     1.0  0.41659  0.73605  0.98051  1.0000
  H   H1013     1.0  0.34082  0.67680  0.79822  1.0000
  H   H1014     1.0  0.51976  0.61544  0.48551  1.0000
  H   H1015     1.0  0.56925  0.49028  0.90232  1.0000
  H   H1016     1.0  0.45158  0.49536  0.51509  1.0000
  C   C569      1.0  0.55005  0.57975  0.50999  1.0000
  S   S133      1.0  0.62826  0.80876  0.97429  1.0000
  C   C570      1.0  0.35774  0.75869  0.97112  1.0000
  H   H1017     1.0  0.43621  0.50679  0.71656  1.0000
  C   C571      1.0  0.56972  0.48733  0.86760  1.0000
  H   H1018     1.0  0.36743  0.52047  0.68031  1.0000
  H   H1019     1.0  0.44018  0.49551  0.64616  1.0000
  H   H1020     1.0  0.55807  0.50293  0.78282  1.0000
  H   H1021     1.0  0.56926  0.92034  0.96068  1.0000
  H   H1022     1.0  0.39364  0.51047  0.62830  1.0000
  C   C572      1.0  0.51050  0.48170  0.49078  1.0000
  H   H1023     1.0  0.56290  0.58437  0.48711  1.0000
  H   H1024     1.0  0.87221  0.19655  0.39259  1.0000
  Fe  Fe65      1.0  0.66563  0.36152  0.06011  1.0000
  S   S134      1.0  0.96660  0.10771  0.41208  1.0000
  H   H1025     1.0  0.74057  0.22604  0.99213  1.0000
  H   H1026     1.0  0.70544  0.99199  0.01212  1.0000
  H   H1027     1.0  0.76159  0.27856  0.99646  1.0000
  Fe  Fe66      1.0  0.96311  0.11198  0.34160  1.0000
  S   S135      1.0  0.93031  0.12169  0.31350  1.0000
  H   H1028     1.0  0.89133  0.43175  0.03003  1.0000
  H   H1029     1.0  0.80174  0.41767  0.00227  1.0000
  S   S136      1.0  0.84309  0.40409  0.03967  1.0000
  H   H1030     1.0  0.95709  0.98514  0.38956  1.0000
  S   S137      1.0  0.70061  0.35230  0.07064  1.0000
  Fe  Fe67      1.0  0.85110  0.08529  0.10724  1.0000
  S   S138      1.0  0.86515  0.07949  0.04228  1.0000
  S   S139      1.0  0.87578  0.07504  0.15885  1.0000
  Fe  Fe68      1.0  0.80744  0.10016  0.06721  1.0000
  C   C573      1.0  0.78920  0.18590  0.04483  1.0000
  S   S140      1.0  0.77252  0.11187  0.07287  1.0000
  Fe  Fe69      1.0  0.83502  0.05814  0.02566  1.0000
  H   H1031     1.0  0.99362  0.46516  0.43031  1.0000
  Fe  Fe70      1.0  0.84857  0.11811  0.02611  1.0000
  Fe  Fe71      1.0  0.98867  0.07275  0.39996  1.0000
  S   S141      1.0  0.82156  0.06125  0.09101  1.0000
  S   S142      1.0  0.83526  0.12468  0.09073  1.0000
  C   C574      1.0  0.89222  0.46671  0.07061  1.0000
  H   H1032     1.0  0.92303  0.06852  0.44073  1.0000
  C   C575      1.0  0.73297  0.11667  0.03678  1.0000
  C   C576      1.0  0.75439  0.11039  0.02991  1.0000
  C   C577      1.0  0.90233  0.44127  0.05283  1.0000
  C   C578      1.0  0.97938  0.01540  0.26854  1.0000
  H   H1033     1.0  0.72775  0.12214  0.06809  1.0000
  C   C579      1.0  0.84266  0.43846  0.02592  1.0000
  H   H1034     1.0  0.71581  0.25775  0.04797  1.0000
  C   C580      1.0  0.83665  0.45754  0.05623  1.0000
  H   H1035     1.0  0.84234  0.14950  0.17622  1.0000
  H   H1036     1.0  0.78488  0.39153  0.11048  1.0000
  C   C581      1.0  0.90287  0.23153  0.06316  1.0000
  H   H1037     1.0  0.83128  0.45082  0.08694  1.0000
  H   H1038     1.0  0.90553  0.42653  0.07843  1.0000
  H   H1039     1.0  0.77165  0.23681  0.03358  1.0000
  H   H1040     1.0  0.68326  0.45894  0.09184  1.0000
  H   H1041     1.0  0.91723  0.09398  0.40177  1.0000
  C   C582      1.0  0.84908  0.19345  0.03560  1.0000
  C   C583      1.0  0.84449  0.22069  0.04269  1.0000
  H   H1042     1.0  0.84603  0.17876  0.05995  1.0000
  H   H1043     1.0  0.83798  0.22680  0.07273  1.0000
  C   C584      1.0  0.84065  0.99122  0.98643  1.0000
  H   H1044     1.0  0.83923  0.17727  0.13941  1.0000
  C   C585      1.0  0.72002  0.35190  0.02976  1.0000
  C   C586      1.0  0.74038  0.34224  0.03887  1.0000
  C   C587      1.0  0.70442  0.27469  0.04886  1.0000
  H   H1045     1.0  0.77551  0.18208  0.15155  1.0000
  H   H1046     1.0  0.74398  0.33553  0.07054  1.0000
  H   H1047     1.0  0.79114  0.43282  0.07139  1.0000
  C   C588      1.0  0.91589  0.10895  0.26930  1.0000
  C   C589      1.0  0.92313  0.08747  0.24481  1.0000
  C   C590      1.0  0.91073  0.07760  0.21112  1.0000
  C   C591      1.0  0.89108  0.08925  0.20078  1.0000
  C   C592      1.0  0.88395  0.11087  0.22509  1.0000
  C   C593      1.0  0.89624  0.12057  0.25903  1.0000
  H   H1048     1.0  0.93818  0.07827  0.25208  1.0000
  H   H1049     1.0  0.91642  0.06076  0.19286  1.0000
  H   H1050     1.0  0.86865  0.11958  0.21858  1.0000
  H   H1051     1.0  0.89031  0.13701  0.27786  1.0000
  H   H1052     1.0  0.76406  0.42214  0.06437  1.0000
  H   H1053     1.0  0.83807  0.18310  0.19531  1.0000
  H   H1054     1.0  0.80572  0.19183  0.05241  1.0000
  H   H1055     1.0  0.66641  0.05130  0.99586  1.0000
  C   C594      1.0  0.99797  0.25116  0.46521  1.0000
  H   H1056     1.0  0.89737  0.03529  0.31436  1.0000
  H   H1057     1.0  0.79023  0.15831  0.12051  1.0000
  C   C595      1.0  0.77534  0.19062  0.08437  1.0000
  H   H1058     1.0  0.76015  0.17957  0.08109  1.0000
  H   H1059     1.0  0.85876  0.00027  0.04193  1.0000
  H   H1060     1.0  0.87926  0.13782  0.14780  1.0000
  H   H1061     1.0  0.70381  0.06301  0.99411  1.0000
  H   H1062     1.0  0.94399  0.06261  0.37507  1.0000
  H   H1063     1.0  0.90778  0.46571  0.13025  1.0000
  H   H1064     1.0  0.91223  0.15986  0.19598  1.0000
  S   S143      1.0  0.81727  0.33955  0.00325  1.0000
  C   C596      1.0  0.67788  0.45977  0.05857  1.0000
  H   H1065     1.0  0.99253  0.01997  0.29059  1.0000
  H   H1066     1.0  0.92664  0.24683  0.46611  1.0000
  H   H1067     1.0  0.68869  0.26718  0.05934  1.0000
  H   H1068     1.0  0.74193  0.20946  0.04215  1.0000
  H   H1069     1.0  0.88946  0.12010  0.08368  1.0000
  H   H1070     1.0  0.86550  0.22989  0.41010  1.0000
  C   C597      1.0  0.78627  0.39045  0.07564  1.0000
  H   H1071     1.0  0.97355  0.03447  0.25437  1.0000
  H   H1072     1.0  0.90885  0.13591  0.05024  1.0000
  C   C598      1.0  0.92646  0.02531  0.38568  1.0000
  H   H1073     1.0  0.93514  0.10016  0.07045  1.0000
  C   C599      1.0  0.90657  0.12414  0.07971  1.0000
  H   H1074     1.0  0.92018  0.23458  0.05952  1.0000
  H   H1075     1.0  0.87266  0.16060  0.10723  1.0000
  H   H1076     1.0  0.70535  0.48080  0.03693  1.0000
  H   H1077     1.0  0.89527  0.25142  0.06791  1.0000
  H   H1078     1.0  0.96824  0.19810  0.35000  1.0000
  C   C600      1.0  0.98685  0.00160  0.46391  1.0000
  H   H1079     1.0  0.94386  0.17604  0.23637  1.0000
  C   C601      1.0  0.89808  0.21323  0.10087  1.0000
  H   H1080     1.0  0.77687  0.46752  0.03829  1.0000
  H   H1081     1.0  0.70688  0.20399  0.00859  1.0000
  S   S144      1.0  0.82015  0.09623  0.00201  1.0000
  H   H1082     1.0  0.89965  0.17708  0.06536  1.0000
  C   C602      1.0  0.86970  0.17610  0.17114  1.0000
  S   S145      1.0  0.98989  0.14193  0.33728  1.0000
  H   H1083     1.0  0.92033  0.06106  0.34471  1.0000
  C   C603      1.0  0.95216  0.01817  0.32746  1.0000
  C   C604      1.0  0.93895  0.18095  0.16876  1.0000
  C   C605      1.0  0.85779  0.18538  0.99720  1.0000
  H   H1084     1.0  0.69162  0.30523  0.00879  1.0000
  H   H1085     1.0  0.74248  0.01102  0.00602  1.0000
  C   C606      1.0  0.67704  0.04089  0.01840  1.0000
  C   C607      1.0  0.91572  0.13933  0.11821  1.0000
  H   H1086     1.0  0.71862  0.29617  0.99735  1.0000
  C   C608      1.0  0.91780  0.09720  0.07377  1.0000
  C   C609      1.0  0.90747  0.18488  0.09425  1.0000
  C   C610      1.0  0.75057  0.43798  0.98588  1.0000
  H   H1087     1.0  0.70179  0.12064  0.00950  1.0000
  C   C611      1.0  0.71565  0.36040  0.98851  1.0000
  H   H1088     1.0  0.91457  0.08366  0.10102  1.0000
  H   H1089     1.0  0.87537  0.17059  0.20316  1.0000
  H   H1090     1.0  0.80095  0.19149  0.13023  1.0000
  C   C612      1.0  0.78432  0.41809  0.00768  1.0000
  H   H1091     1.0  0.68419  0.04506  0.08531  1.0000
  H   H1092     1.0  0.87713  0.46061  0.08573  1.0000
  H   H1093     1.0  0.89878  0.06682  0.41035  1.0000
  C   C613      1.0  0.84811  0.24008  0.01115  1.0000
  H   H1094     1.0  0.71034  0.03639  0.02933  1.0000
  H   H1095     1.0  0.77838  0.39850  0.99550  1.0000
  C   C614      1.0  0.88150  0.15907  0.13743  1.0000
  H   H1096     1.0  0.94419  0.21518  0.33439  1.0000
  H   H1097     1.0  0.90730  0.19376  0.18166  1.0000
  H   H1098     1.0  0.96527  0.02293  0.34971  1.0000
  H   H1099     1.0  0.91193  0.08729  0.04476  1.0000
  H   H1100     1.0  0.91729  0.44620  0.03604  1.0000
  C   C615      1.0  0.79971  0.99593  0.08513  1.0000
  C   C616      1.0  0.91486  0.17502  0.17042  1.0000
  S   S146      1.0  0.98364  0.07613  0.32946  1.0000
  H   H1101     1.0  0.90461  0.22298  0.12937  1.0000
  H   H1102     1.0  0.77157  0.33311  0.01499  1.0000
  C   C617      1.0  0.67489  0.05546  0.06049  1.0000
  H   H1103     1.0  0.96407  0.19521  0.20962  1.0000
  H   H1104     1.0  0.77210  0.21220  0.08974  1.0000
  H   H1105     1.0  0.94632  0.16181  0.38331  1.0000
  N   N32       1.0  0.90476  0.16518  0.13019  1.0000
  H   H1106     1.0  0.94264  0.19644  0.14454  1.0000
  C   C618      1.0  0.96149  0.00065  0.29158  1.0000
  H   H1107     1.0  0.90219  0.99062  0.34194  1.0000
  C   C619      1.0  0.78161  0.46704  0.00458  1.0000
  C   C620      1.0  0.76060  0.18989  0.99139  1.0000
  H   H1108     1.0  0.75836  0.16844  0.00093  1.0000
  H   H1109     1.0  0.94815  0.16252  0.16197  1.0000
  C   C621      1.0  0.94678  0.19131  0.21128  1.0000
  C   C622      1.0  0.78624  0.17994  0.12400  1.0000
  H   H1110     1.0  0.92446  0.18699  0.08558  1.0000
  H   H1111     1.0  0.93258  0.14308  0.11014  1.0000
  C   C623      1.0  0.91583  0.07221  0.40932  1.0000
  C   C624      1.0  0.93947  0.18215  0.37900  1.0000
  H   H1112     1.0  0.91567  0.12511  0.14556  1.0000
  C   C625      1.0  0.91575  0.99840  0.32314  1.0000
  S   S147      1.0  0.99663  0.16775  0.46107  1.0000
  C   C626      1.0  0.85489  0.98517  0.01872  1.0000
  H   H1113     1.0  0.93869  0.21034  0.21981  1.0000
  H   H1114     1.0  0.95906  0.19915  0.42771  1.0000
  H   H1115     1.0  0.71008  0.28964  0.07222  1.0000
  H   H1116     1.0  0.89640  0.22274  0.03369  1.0000
  C   C627      1.0  0.78074  0.41768  0.05619  1.0000
  C   C628      1.0  0.89129  0.00961  0.26211  1.0000
  S   S148      1.0  0.84187  0.27389  0.02230  1.0000
  C   C629      1.0  0.92728  0.05588  0.37559  1.0000
  C   C630      1.0  0.99171  0.47011  0.46327  1.0000
  C   C631      1.0  0.75612  0.34091  0.00735  1.0000
  H   H1117     1.0  0.93820  0.22006  0.41123  1.0000
  C   C632      1.0  0.95124  0.19535  0.34218  1.0000
  C   C633      1.0  0.84588  0.17109  0.17031  1.0000
  H   H1118     1.0  0.88062  0.21195  0.10345  1.0000
  H   H1119     1.0  0.93649  0.02311  0.41437  1.0000
  C   C634      1.0  0.90655  0.02097  0.29485  1.0000
  H   H1120     1.0  0.88461  0.02636  0.24302  1.0000
  H   H1121     1.0  0.87229  0.19794  0.16675  1.0000
  C   C635      1.0  0.71817  0.11585  0.00350  1.0000
  H   H1122     1.0  0.77529  0.37473  0.06432  1.0000
  H   H1123     1.0  0.94788  0.03768  0.31283  1.0000
  H   H1124     1.0  0.91008  0.02011  0.39596  1.0000
  H   H1125     1.0  0.81695  0.99389  0.07900  1.0000
  H   H1126     1.0  0.67154  0.01989  0.02284  1.0000
  H   H1127     1.0  0.95012  0.18223  0.31404  1.0000
  H   H1128     1.0  0.78943  0.16369  0.04102  1.0000
  N   N33       1.0  0.93382  0.00616  0.35169  1.0000
  H   H1129     1.0  0.91902  0.03199  0.27733  1.0000
  H   H1130     1.0  0.68045  0.07661  0.05749  1.0000
  H   H1131     1.0  0.80270  0.38459  0.06756  1.0000
  H   H1132     1.0  0.74441  0.44534  0.01663  1.0000
  C   C636      1.0  0.99682  0.20246  0.47821  1.0000
  C   C637      1.0  0.72049  0.19151  0.99835  1.0000
  H   H1133     1.0  0.79752  0.00345  0.11775  1.0000
  H   H1134     1.0  0.94922  0.99575  0.26787  1.0000
  H   H1135     1.0  0.68238  0.44067  0.04296  1.0000
  C   C638      1.0  0.70015  0.04166  0.00199  1.0000
  H   H1136     1.0  0.79310  0.01102  0.06287  1.0000
  H   H1137     1.0  0.79908  0.23531  0.02475  1.0000
  S   S149      1.0  0.98067  0.03355  0.43884  1.0000
  N   N34       1.0  0.78231  0.19960  0.00456  1.0000
  C   C639      1.0  0.74126  0.20607  0.00777  1.0000
  C   C640      1.0  0.70276  0.28813  0.00559  1.0000
  C   C641      1.0  0.78356  0.22969  0.01055  1.0000
  H   H1138     1.0  0.87801  0.99877  0.27772  1.0000
  C   C642      1.0  0.76079  0.10343  0.98912  1.0000
  H   H1139     1.0  0.78983  0.28461  0.99994  1.0000
  Fe  Fe72      1.0  0.99471  0.13567  0.40731  1.0000
  S   S150      1.0  0.86433  0.15137  0.98803  1.0000
  H   H1140     1.0  0.89967  0.99574  0.24042  1.0000
  Fe  Fe73      1.0  0.84104  0.37179  0.98927  1.0000
  H   H1141     1.0  0.92265  0.18006  0.36974  1.0000
  H   H1142     1.0  0.98566  0.00257  0.24285  1.0000
  H   H1143     1.0  0.74340  0.04714  0.00593  1.0000
  H   H1144     1.0  0.86319  0.20193  0.44618  1.0000
  H   H1145     1.0  0.71975  0.17219  0.01592  1.0000
  H   H1146     1.0  0.90410  0.22421  0.40654  1.0000
  H   H1147     1.0  0.95417  0.23995  0.47162  1.0000
  H   H1148     1.0  0.79926  0.46781  0.00428  1.0000
  H   H1149     1.0  0.90216  0.17275  0.42564  1.0000
  H   H1150     1.0  0.81218  0.15406  0.98997  1.0000
  H   H1151     1.0  0.77868  0.02907  0.99272  1.0000
  C   C643      1.0  0.94191  0.19897  0.41974  1.0000
  C   C644      1.0  0.89556  0.21526  0.43373  1.0000
  C   C645      1.0  0.87272  0.21050  0.41985  1.0000
  H   H1152     1.0  0.89705  0.18283  0.47789  1.0000
  N   N35       1.0  0.92930  0.18962  0.45759  1.0000
  C   C646      1.0  0.84948  0.44718  0.98626  1.0000
  C   C647      1.0  0.90586  0.18877  0.44892  1.0000
  H   H1153     1.0  0.89503  0.22988  0.46002  1.0000
  H   H1154     1.0  0.93170  0.14720  0.44213  1.0000
  H   H1155     1.0  0.95382  0.16041  0.46953  1.0000
  C   C648      1.0  0.93628  0.16127  0.46773  1.0000
  H   H1156     1.0  0.74631  0.41618  0.98525  1.0000
  N   N36       1.0  0.77435  0.44133  0.98390  1.0000
  H   H1157     1.0  0.70759  0.44352  0.98441  1.0000
  C   C649      1.0  0.99817  0.22429  0.45012  1.0000
  H   H1158     1.0  0.96822  0.98169  0.30417  1.0000
  H   H1159     1.0  0.67878  0.26151  0.98301  1.0000
  C   C650      1.0  0.90675  0.48027  0.10363  1.0000
  H   H1160     1.0  0.77706  0.09836  0.98302  1.0000
  C   C651      1.0  0.74452  0.02902  0.98563  1.0000
  H   H1161     1.0  0.88867  0.48024  0.04371  1.0000
  H   H1162     1.0  0.93974  0.45697  0.45849  1.0000
  S   S151      1.0  0.82781  0.02261  0.98321  1.0000
  H   H1163     1.0  0.90447  0.47431  0.45096  1.0000
  H   H1164     1.0  0.95087  0.38804  0.81495  1.0000
  C   C652      1.0  0.71425  0.44168  0.95225  1.0000
  S   S152      1.0  0.96269  0.34928  0.58199  1.0000
  C   C653      1.0  0.94816  0.33609  0.84588  1.0000
  H   H1165     1.0  0.73252  0.01714  0.92450  1.0000
  C   C654      1.0  0.67808  0.30141  0.92628  1.0000
  Fe  Fe74      1.0  0.96094  0.34081  0.65235  1.0000
  S   S153      1.0  0.93285  0.32500  0.69235  1.0000
  H   H1166     1.0  0.95467  0.31811  0.90752  1.0000
  Fe  Fe75      1.0  0.85315  0.34693  0.90388  1.0000
  C   C655      1.0  0.98778  0.45472  0.53661  1.0000
  S   S154      1.0  0.87599  0.36126  0.85105  1.0000
  Fe  Fe76      1.0  0.80663  0.34426  0.93697  1.0000
  S   S155      1.0  0.77089  0.34680  0.92504  1.0000
  H   H1167     1.0  0.67928  0.01611  0.82460  1.0000
  H   H1168     1.0  0.68578  0.32120  0.86629  1.0000
  S   S156      1.0  0.82929  0.37843  0.92365  1.0000
  S   S157      1.0  0.82913  0.31297  0.91110  1.0000
  C   C656      1.0  0.93704  0.12094  0.51694  1.0000
  S   S158      1.0  0.70654  0.10625  0.91991  1.0000
  H   H1169     1.0  0.99118  0.42828  0.48357  1.0000
  H   H1170     1.0  0.75132  0.09734  0.92453  1.0000
  C   C657      1.0  0.99482  0.23517  0.53670  1.0000
  C   C658      1.0  0.92734  0.45233  0.52103  1.0000
  H   H1171     1.0  0.95455  0.12234  0.51969  1.0000
  C   C659      1.0  0.77699  0.27632  0.97992  1.0000
  H   H1172     1.0  0.85957  0.24685  0.94805  1.0000
  H   H1173     1.0  0.86850  0.19870  0.93598  1.0000
  C   C660      1.0  0.96962  0.35482  0.78867  1.0000
  H   H1174     1.0  0.72779  0.36551  0.92518  1.0000
  C   C661      1.0  0.91660  0.33589  0.73545  1.0000
  C   C662      1.0  0.90403  0.31679  0.75701  1.0000
  C   C663      1.0  0.89135  0.32410  0.79195  1.0000
  C   C664      1.0  0.89098  0.35077  0.80599  1.0000
  C   C665      1.0  0.90340  0.36993  0.78419  1.0000
  C   C666      1.0  0.91605  0.36262  0.74919  1.0000
  H   H1175     1.0  0.90415  0.29609  0.74666  1.0000
  H   H1176     1.0  0.88189  0.30909  0.80808  1.0000
  H   H1177     1.0  0.90322  0.39064  0.79448  1.0000
  H   H1178     1.0  0.92533  0.37769  0.73280  1.0000
  H   H1179     1.0  0.92305  0.25352  0.54313  1.0000
  H   H1180     1.0  0.77435  0.43261  0.85297  1.0000
  C   C667      1.0  0.97338  0.40462  0.77183  1.0000
  H   H1181     1.0  0.68135  0.04897  0.84804  1.0000
  H   H1182     1.0  0.77690  0.45758  0.92024  1.0000
  H   H1183     1.0  0.99352  0.23898  0.57014  1.0000
  H   H1184     1.0  0.98449  0.34913  0.87530  1.0000
  C   C668      1.0  0.68711  0.25540  0.89957  1.0000
  N   N37       1.0  0.70510  0.02379  0.96481  1.0000
  C   C669      1.0  0.69470  0.26799  0.97202  1.0000
  H   H1185     1.0  0.78196  0.39767  0.85249  1.0000
  H   H1186     1.0  0.70865  0.01743  0.87510  1.0000
  H   H1187     1.0  0.93448  0.33623  0.82388  1.0000
  C   C670      1.0  0.81384  0.15654  0.92279  1.0000
  S   S159      1.0  0.86608  0.34212  0.97010  1.0000
  H   H1188     1.0  0.94080  0.43931  0.53046  1.0000
  H   H1189     1.0  0.72500  0.26428  0.86028  1.0000
  H   H1190     1.0  0.67338  0.02747  0.93984  1.0000
  H   H1191     1.0  0.67069  0.20704  0.87068  1.0000
  H   H1192     1.0  0.94878  0.19988  0.51146  1.0000
  C   C671      1.0  0.72738  0.03027  0.95067  1.0000
  H   H1193     1.0  0.97876  0.46653  0.70910  1.0000
  H   H1194     1.0  0.70489  0.24975  0.97347  1.0000
  H   H1195     1.0  0.95616  0.99792  0.49320  1.0000
  H   H1196     1.0  0.97212  0.42521  0.78498  1.0000
  C   C672      1.0  0.72237  0.28578  0.86817  1.0000
  C   C673      1.0  0.85664  0.23205  0.97250  1.0000
  H   H1197     1.0  0.70018  0.36813  0.98089  1.0000
  H   H1198     1.0  0.95734  0.35201  0.76408  1.0000
  H   H1199     1.0  0.93066  0.11233  0.54674  1.0000
  H   H1200     1.0  0.68794  0.99452  0.89227  1.0000
  C   C674      1.0  0.99583  0.30805  0.86960  1.0000
  C   C675      1.0  0.80209  0.16185  0.96408  1.0000
  H   H1201     1.0  0.95057  0.24473  0.55042  1.0000
  H   H1202     1.0  0.98322  0.29672  0.88614  1.0000
  C   C676      1.0  0.99621  0.25701  0.50864  1.0000
  C   C677      1.0  0.78298  0.44073  0.93952  1.0000
  C   C678      1.0  0.76683  0.02865  0.96695  1.0000
  H   H1203     1.0  0.98495  0.35402  0.77135  1.0000
  H   H1204     1.0  0.97066  0.26659  0.73597  1.0000
  H   H1205     1.0  0.71342  0.42020  0.94279  1.0000
  H   H1206     1.0  0.97794  0.38715  0.83320  1.0000
  H   H1207     1.0  0.93142  0.16131  0.53698  1.0000
  C   C679      1.0  0.98506  0.30182  0.76473  1.0000
  H   H1208     1.0  0.90907  0.31475  0.87479  1.0000
  Fe  Fe77      1.0  0.98548  0.38339  0.59693  1.0000
  H   H1209     1.0  0.80404  0.16262  0.89538  1.0000
  C   C680      1.0  0.73715  0.45167  0.95075  1.0000
  H   H1210     1.0  0.91891  0.34006  0.91043  1.0000
  C   C681      1.0  0.86169  0.20480  0.96577  1.0000
  H   H1211     1.0  0.97969  0.43388  0.68489  1.0000
  H   H1212     1.0  0.96718  0.28879  0.81952  1.0000
  H   H1213     1.0  0.71797  0.30962  0.92477  1.0000
  C   C682      1.0  0.85143  0.47483  0.97778  1.0000
  H   H1214     1.0  0.69102  0.05315  0.92313  1.0000
  Fe  Fe78      1.0  0.67086  0.11308  0.92513  1.0000
  H   H1215     1.0  0.73690  0.47375  0.95443  1.0000
  C   C683      1.0  0.73141  0.35901  0.95694  1.0000
  C   C684      1.0  0.70211  0.99472  0.97789  1.0000
  H   H1216     1.0  0.76838  0.23920  0.94946  1.0000
  H   H1217     1.0  0.94370  0.27456  0.52141  1.0000
  C   C685      1.0  0.71572  0.28830  0.91518  1.0000
  H   H1218     1.0  0.79630  0.24613  0.95141  1.0000
  H   H1219     1.0  0.95197  0.30475  0.78032  1.0000
  H   H1220     1.0  0.82906  0.16774  0.92197  1.0000
  H   H1221     1.0  0.78705  0.15032  0.96364  1.0000
  H   H1222     1.0  0.77647  0.28822  0.95026  1.0000
  C   C686      1.0  0.98759  0.33455  0.84945  1.0000
  H   H1223     1.0  0.74795  0.29756  0.82606  1.0000
  H   H1224     1.0  0.94438  0.29433  0.86959  1.0000
  H   H1225     1.0  0.70434  0.45360  0.93018  1.0000
  H   H1226     1.0  0.99417  0.19183  0.54396  1.0000
  H   H1227     1.0  0.98181  0.31448  0.73672  1.0000
  C   C687      1.0  0.67749  0.02750  0.85442  1.0000
  H   H1228     1.0  0.91857  0.30515  0.92601  1.0000
  C   C688      1.0  0.77867  0.41443  0.91505  1.0000
  C   C689      1.0  0.79808  0.19230  0.97056  1.0000
  H   H1229     1.0  0.75583  0.29358  0.88027  1.0000
  C   C690      1.0  0.74607  0.10284  0.95581  1.0000
  C   C691      1.0  0.68996  0.03120  0.92993  1.0000
  C   C692      1.0  0.93893  0.25343  0.52808  1.0000
  N   N38       1.0  0.96843  0.33251  0.82119  1.0000
  H   H1230     1.0  0.79296  0.20051  0.93954  1.0000
  S   S160      1.0  0.98848  0.31200  0.65072  1.0000
  H   H1231     1.0  0.81372  0.20180  0.97698  1.0000
  H   H1232     1.0  0.74079  0.32276  0.86402  1.0000
  H   H1233     1.0  0.71027  0.29377  0.84642  1.0000
  H   H1234     1.0  0.92128  0.20549  0.51924  1.0000
  C   C693      1.0  0.75176  0.34925  0.96614  1.0000
  H   H1235     1.0  0.91010  0.14631  0.50767  1.0000
  H   H1236     1.0  0.74298  0.44725  0.91861  1.0000
  H   H1237     1.0  0.80049  0.44375  0.93985  1.0000
  H   H1238     1.0  0.92278  0.46471  0.54865  1.0000
  C   C694      1.0  0.96750  0.38392  0.80561  1.0000
  H   H1239     1.0  0.80137  0.42300  0.86485  1.0000
  C   C695      1.0  0.72464  0.10886  0.96273  1.0000
  S   S161      1.0  0.98126  0.37639  0.66714  1.0000
  Fe  Fe79      1.0  0.99144  0.32188  0.58156  1.0000
  H   H1240     1.0  0.94792  0.35584  0.86211  1.0000
  C   C696      1.0  0.92117  0.31914  0.89911  1.0000
  H   H1241     1.0  0.68437  0.31903  0.94385  1.0000
  H   H1242     1.0  0.76939  0.01019  0.94807  1.0000
  C   C697      1.0  0.78446  0.41727  0.86847  1.0000
  H   H1243     1.0  0.68518  0.98878  0.97442  1.0000
  H   H1244     1.0  0.81736  0.13474  0.92016  1.0000
  C   C698      1.0  0.69235  0.01596  0.88782  1.0000
  N   N39       1.0  0.69376  0.27852  0.92733  1.0000
  C   C699      1.0  0.98599  0.27260  0.75023  1.0000
  H   H1245     1.0  0.96239  0.40304  0.74467  1.0000
  H   H1246     1.0  0.68656  0.26155  0.86596  1.0000
  H   H1247     1.0  0.98968  0.25904  0.77710  1.0000
  C   C700      1.0  0.96727  0.30623  0.79768  1.0000
  C   C701      1.0  0.99032  0.44901  0.49359  1.0000
  Fe  Fe80      1.0  0.84096  0.31011  0.97808  1.0000
  H   H1248     1.0  0.76951  0.04660  0.94664  1.0000
  H   H1249     1.0  0.91387  0.43921  0.51196  1.0000
  S   S162      1.0  0.98554  0.42889  0.57685  1.0000
  H   H1250     1.0  0.98987  0.40144  0.76072  1.0000
  H   H1251     1.0  0.69919  0.23910  0.90109  1.0000
  H   H1252     1.0  0.98784  0.46330  0.65550  1.0000
  C   C702      1.0  0.92752  0.14877  0.50923  1.0000
  C   C703      1.0  0.67187  0.31214  0.88220  1.0000
  C   C704      1.0  0.94343  0.31528  0.88110  1.0000
  H   H1253     1.0  0.72810  0.27694  0.93278  1.0000
  H   H1254     1.0  0.78851  0.39819  0.92827  1.0000
  H   H1255     1.0  0.76191  0.40798  0.91744  1.0000
  C   C705      1.0  0.74300  0.30083  0.85925  1.0000
  C   C706      1.0  0.97141  0.98850  0.48902  1.0000
  H   H1256     1.0  0.66650  0.23047  0.93968  1.0000
  H   H1257     1.0  0.71893  0.18744  0.96408  1.0000
  C   C707      1.0  0.99518  0.20829  0.52164  1.0000
  C   C708      1.0  0.98782  0.45360  0.68709  1.0000
  S   S163      1.0  0.99555  0.29175  0.52556  1.0000
  H   H1258     1.0  0.75912  0.18974  0.95640  1.0000
  H   H1259     1.0  0.85416  0.43263  0.96275  1.0000
  C   C709      1.0  0.78130  0.24683  0.96979  1.0000
  H   H1260     1.0  0.72802  0.05095  0.93701  1.0000
  H   H1261     1.0  0.85754  0.48143  0.94755  1.0000
  C   C710      1.0  0.93417  0.20714  0.49533  1.0000
  H   H1262     1.0  0.66508  0.29603  0.86231  1.0000
  H   H1263     1.0  0.93304  0.10712  0.49073  1.0000
  C   C711      1.0  0.93403  0.47030  0.48413  1.0000
  C   C712      1.0  0.93850  0.23748  0.48700  1.0000
  C   C713      1.0  0.66544  0.24230  0.91002  1.0000
  C   C714      1.0  0.71538  0.53478  0.04337  1.0000
  S   S164      1.0  0.82854  0.84941  0.98979  1.0000
  S   S165      1.0  0.96289  0.59483  0.39722  1.0000
  H   H1264     1.0  0.80236  0.69681  0.04254  1.0000
  C   C715      1.0  0.94140  0.52052  0.36921  1.0000
  H   H1265     1.0  0.71828  0.91306  0.05129  1.0000
  Fe  Fe81      1.0  0.97071  0.59635  0.32749  1.0000
  S   S166      1.0  0.95204  0.58924  0.26588  1.0000
  S   S167      1.0  0.99736  0.56664  0.33500  1.0000
  H   H1266     1.0  0.84980  0.50741  0.20869  1.0000
  H   H1267     1.0  0.78549  0.66990  0.05672  1.0000
  C   C716      1.0  0.82719  0.89005  0.08698  1.0000
  S   S168      1.0  0.71455  0.85464  0.06751  1.0000
  Fe  Fe82      1.0  0.84666  0.59812  0.11607  1.0000
  S   S169      1.0  0.86566  0.59416  0.05651  1.0000
  S   S170      1.0  0.86035  0.60391  0.18244  1.0000
  Fe  Fe83      1.0  0.80427  0.59749  0.06734  1.0000
  N   N40       1.0  0.78321  0.93013  0.02647  1.0000
  S   S171      1.0  0.76863  0.60319  0.07207  1.0000
  Fe  Fe84      1.0  0.84129  0.56338  0.03778  1.0000
  H   H1268     1.0  0.77162  0.97204  0.08778  1.0000
  Fe  Fe85      1.0  0.84311  0.62442  0.02911  1.0000
  H   H1269     1.0  0.85394  0.55233  0.44974  1.0000
  S   S172      1.0  0.82349  0.56502  0.09923  1.0000
  S   S173      1.0  0.82560  0.63078  0.08960  1.0000
  H   H1270     1.0  0.84435  0.68435  0.06120  1.0000
  C   C717      1.0  0.78646  0.51765  0.00151  1.0000
  C   C718      1.0  0.73090  0.60988  0.03065  1.0000
  C   C719      1.0  0.75201  0.60142  0.02724  1.0000
  C   C720      1.0  0.84686  0.74597  0.01327  1.0000
  C   C721      1.0  0.76812  0.84431  0.99780  1.0000
  H   H1271     1.0  0.72503  0.61718  0.06055  1.0000
  H   H1272     1.0  0.68256  0.50905  0.08968  1.0000
  C   C722      1.0  0.99337  0.70675  0.34308  1.0000
  C   C723      1.0  0.86405  0.95943  0.02108  1.0000
  N   N41       1.0  0.89955  0.50735  0.11929  1.0000
  H   H1273     1.0  0.95209  0.71011  0.48243  1.0000
  H   H1274     1.0  0.81193  0.70345  0.11815  1.0000
  H   H1275     1.0  0.87502  0.95480  0.04619  1.0000
  C   C724      1.0  0.73423  0.68597  0.98457  1.0000
  H   H1276     1.0  0.86609  0.49853  0.11749  1.0000
  C   C725      1.0  0.74763  0.52775  0.08961  1.0000
  H   H1277     1.0  0.82272  0.89608  0.11947  1.0000
  C   C726      1.0  0.68800  0.48353  0.03533  1.0000
  H   H1278     1.0  0.79507  0.67529  0.13234  1.0000
  H   H1279     1.0  0.72233  0.94665  0.07181  1.0000
  H   H1280     1.0  0.84168  0.73310  0.07742  1.0000
  H   H1281     1.0  0.68670  0.55617  0.09771  1.0000
  S   S174      1.0  0.97708  0.66797  0.44346  1.0000
  C   C727      1.0  0.73265  0.85449  0.02451  1.0000
  C   C728      1.0  0.75325  0.84476  0.03096  1.0000
  C   C729      1.0  0.94624  0.66439  0.20659  1.0000
  N   N42       1.0  0.77142  0.69852  0.01362  1.0000
  H   H1282     1.0  0.75772  0.83743  0.06184  1.0000
  C   C730      1.0  0.84952  0.69077  0.99487  1.0000
  C   C731      1.0  0.92645  0.59431  0.24342  1.0000
  C   C732      1.0  0.92363  0.58956  0.19999  1.0000
  C   C733      1.0  0.90363  0.59252  0.18071  1.0000
  C   C734      1.0  0.88606  0.60007  0.20474  1.0000
  C   C735      1.0  0.88889  0.60507  0.24804  1.0000
  C   C736      1.0  0.90892  0.60228  0.26728  1.0000
  H   H1283     1.0  0.93709  0.58355  0.18113  1.0000
  H   H1284     1.0  0.90182  0.58894  0.14732  1.0000
  H   H1285     1.0  0.87546  0.61107  0.26696  1.0000
  H   H1286     1.0  0.91076  0.60608  0.30062  1.0000
  H   H1287     1.0  0.72250  0.55321  0.02907  1.0000
  H   H1288     1.0  0.89437  0.54775  0.09594  1.0000
  Fe  Fe86      1.0  0.99101  0.56676  0.40511  1.0000
  C   C737      1.0  0.84619  0.49392  0.00851  1.0000
  H   H1289     1.0  0.75314  0.89911  0.08123  1.0000
  C   C738      1.0  0.93439  0.51647  0.22031  1.0000
  Fe  Fe87      1.0  0.67908  0.86279  0.06147  1.0000
  H   H1290     1.0  0.92524  0.55181  0.99629  1.0000
  C   C739      1.0  0.93419  0.53270  0.46329  1.0000
  C   C740      1.0  0.68352  0.55909  0.06356  1.0000
  C   C741      1.0  0.91602  0.51815  0.14915  1.0000
  H   H1291     1.0  0.69205  0.57781  0.05405  1.0000
  H   H1292     1.0  0.91784  0.51002  0.03460  1.0000
  C   C742      1.0  0.78855  0.96884  0.08019  1.0000
  H   H1293     1.0  0.80762  0.96067  0.02477  1.0000
  C   C743      1.0  0.91187  0.55119  0.01907  1.0000
  C   C744      1.0  0.79382  0.90984  0.05499  1.0000
  H   H1294     1.0  0.90106  0.74023  0.17588  1.0000
  H   H1295     1.0  0.92578  0.93289  0.44777  1.0000
  H   H1296     1.0  0.98873  0.69100  0.32021  1.0000
  H   H1297     1.0  0.97250  0.50351  0.35580  1.0000
  H   H1298     1.0  0.75295  0.91255  0.00900  1.0000
  H   H1299     1.0  0.84260  0.54209  0.20013  1.0000
  H   H1300     1.0  0.86793  0.54633  0.14209  1.0000
  C   C745      1.0  0.75935  0.59201  0.98839  1.0000
  H   H1301     1.0  0.72110  0.55200  0.10608  1.0000
  C   C746      1.0  0.88286  0.76248  0.13097  1.0000
  S   S175      1.0  0.84611  0.78031  0.02617  1.0000
  H   H1302     1.0  0.77752  0.78227  0.02993  1.0000
  H   H1303     1.0  0.91251  0.53935  0.15753  1.0000
  N   N43       1.0  0.89417  0.68570  0.14848  1.0000
  C   C747      1.0  0.89325  0.66374  0.11582  1.0000
  C   C748      1.0  0.87798  0.67965  0.18227  1.0000
  C   C749      1.0  0.88977  0.71225  0.12700  1.0000
  C   C750      1.0  0.91569  0.68719  0.16885  1.0000
  C   C751      1.0  0.92425  0.66047  0.18764  1.0000
  C   C752      1.0  0.91069  0.66483  0.08128  1.0000
  C   C753      1.0  0.88677  0.73680  0.15646  1.0000
  C   C754      1.0  0.85453  0.68014  0.16809  1.0000
  C   C755      1.0  0.83972  0.67535  0.20554  1.0000
  C   C756      1.0  0.89697  0.52715  0.08343  1.0000
  C   C757      1.0  0.90846  0.64145  0.05057  1.0000
  H   H1304     1.0  0.78210  0.97309  0.01464  1.0000
  H   H1305     1.0  0.87789  0.66436  0.09880  1.0000
  H   H1306     1.0  0.89358  0.64353  0.13110  1.0000
  H   H1307     1.0  0.88062  0.65922  0.19564  1.0000
  H   H1308     1.0  0.87986  0.69354  0.20944  1.0000
  H   H1309     1.0  0.87563  0.71072  0.10640  1.0000
  H   H1310     1.0  0.90296  0.71761  0.10522  1.0000
  H   H1311     1.0  0.92768  0.69524  0.14630  1.0000
  H   H1312     1.0  0.91548  0.70179  0.19530  1.0000
  H   H1313     1.0  0.92557  0.64467  0.16328  1.0000
  H   H1314     1.0  0.91378  0.65297  0.21322  1.0000
  H   H1315     1.0  0.90954  0.68367  0.06258  1.0000
  H   H1316     1.0  0.92674  0.66364  0.09511  1.0000
  C   C758      1.0  0.69802  0.78041  0.06621  1.0000
  H   H1317     1.0  0.87304  0.73395  0.17785  1.0000
  H   H1318     1.0  0.85016  0.69964  0.15351  1.0000
  H   H1319     1.0  0.85153  0.66397  0.14498  1.0000
  H   H1320     1.0  0.82309  0.67464  0.19450  1.0000
  H   H1321     1.0  0.84333  0.65583  0.22112  1.0000
  H   H1322     1.0  0.84128  0.69181  0.22889  1.0000
  C   C759      1.0  0.92686  0.96768  0.40610  1.0000
  H   H1323     1.0  0.94572  0.67927  0.23259  1.0000
  C   C760      1.0  0.71146  0.68131  0.99946  1.0000
  C   C761      1.0  0.90210  0.52324  0.42058  1.0000
  H   H1324     1.0  0.89304  0.64259  0.03391  1.0000
  S   S176      1.0  0.99158  0.52352  0.43502  1.0000
  C   C762      1.0  0.78563  0.69196  0.05034  1.0000
  H   H1325     1.0  0.79559  0.95484  0.10348  1.0000
  H   H1326     1.0  0.86815  0.76071  0.11212  1.0000
  H   H1327     1.0  0.92126  0.64247  0.02657  1.0000
  C   C763      1.0  0.91573  0.52917  0.05191  1.0000
  C   C764      1.0  0.79559  0.69740  0.12710  1.0000
  C   C765      1.0  0.84846  0.52356  0.18455  1.0000
  H   H1328     1.0  0.78382  0.83656  0.00335  1.0000
  H   H1329     1.0  0.68229  0.77046  0.06774  1.0000
  H   H1330     1.0  0.96133  0.52307  0.31355  1.0000
  H   H1331     1.0  0.78766  0.51777  0.03643  1.0000
  H   H1332     1.0  0.71607  0.51620  0.10684  1.0000
  H   H1333     1.0  0.93755  0.50364  0.24830  1.0000
  S   S177      1.0  0.85130  0.52811  0.99772  1.0000
  C   C766      1.0  0.68096  0.51046  0.05483  1.0000
  C   C767      1.0  0.83822  0.48526  0.04744  1.0000
  C   C768      1.0  0.75935  0.92825  0.03057  1.0000
  C   C769      1.0  0.72622  0.92505  0.07611  1.0000
  H   H1334     1.0  0.72244  0.51789  0.02568  1.0000
  C   C770      1.0  0.95759  0.50834  0.33898  1.0000
  H   H1335     1.0  0.98049  0.70877  0.36678  1.0000
  C   C771      1.0  0.78998  0.74490  0.00389  1.0000
  N   N44       1.0  0.69162  0.53556  0.03824  1.0000
  C   C772      1.0  0.68599  0.54025  0.99235  1.0000
  H   H1336     1.0  0.74190  0.69806  0.04817  1.0000
  H   H1337     1.0  0.95765  0.67126  0.18212  1.0000
  H   H1338     1.0  0.94970  0.52092  0.20441  1.0000
  C   C773      1.0  0.72380  0.53280  0.08915  1.0000
  H   H1339     1.0  0.95196  0.64498  0.21974  1.0000
  C   C774      1.0  0.71735  0.60931  0.99547  1.0000
  S   S178      1.0  0.87016  0.90724  0.99600  1.0000
  H   H1340     1.0  0.95211  0.94479  0.43642  1.0000
  C   C775      1.0  0.77994  0.70557  0.09275  1.0000
  H   H1341     1.0  0.92725  0.48292  0.38961  1.0000
  H   H1342     1.0  0.75107  0.66575  0.03479  1.0000
  H   H1343     1.0  0.88105  0.77982  0.15262  1.0000
  H   H1344     1.0  0.78909  0.91257  0.08833  1.0000
  H   H1345     1.0  0.92729  0.53556  0.23146  1.0000
  C   C776      1.0  0.98444  0.69869  0.47071  1.0000
  H   H1346     1.0  0.82480  0.93010  0.06272  1.0000
  C   C777      1.0  0.79081  0.95842  0.03459  1.0000
  H   H1347     1.0  0.84473  0.88976  0.08462  1.0000
  H   H1348     1.0  0.70127  0.61627  0.99847  1.0000
  H   H1349     1.0  0.91064  0.57116  0.03440  1.0000
  H   H1350     1.0  0.78847  0.88915  0.04667  1.0000
  H   H1351     1.0  0.71997  0.91827  0.10716  1.0000
  H   H1352     1.0  0.69611  0.80203  0.07370  1.0000
  H   H1353     1.0  0.75191  0.94743  0.02023  1.0000
  H   H1354     1.0  0.88245  0.52264  0.06495  1.0000
  H   H1355     1.0  0.79138  0.70750  0.15712  1.0000
  H   H1356     1.0  0.92741  0.52598  0.34995  1.0000
  C   C778      1.0  0.84452  0.72666  0.04540  1.0000
  S   S179      1.0  0.82051  0.59339  0.00519  1.0000
  C   C779      1.0  0.86996  0.52923  0.16427  1.0000
  S   S180      1.0  0.99237  0.63232  0.33402  1.0000
  H   H1357     1.0  0.80059  0.78626  0.99714  1.0000
  H   H1358     1.0  0.78042  0.72780  0.09016  1.0000
  C   C780      1.0  0.84590  0.69909  0.03626  1.0000
  H   H1359     1.0  0.82120  0.86943  0.08079  1.0000
  C   C781      1.0  0.81838  0.90999  0.05475  1.0000
  H   H1360     1.0  0.91120  0.96296  0.39237  1.0000
  H   H1361     1.0  0.89633  0.76672  0.10936  1.0000
  H   H1362     1.0  0.75349  0.52811  0.12258  1.0000
  H   H1363     1.0  0.76391  0.69943  0.10340  1.0000
  H   H1364     1.0  0.93176  0.51897  0.13348  1.0000
  C   C782      1.0  0.75013  0.92074  0.07452  1.0000
  H   H1365     1.0  0.95130  0.52812  0.46226  1.0000
  H   H1366     1.0  0.75725  0.93262  0.10022  1.0000
  H   H1367     1.0  0.99516  0.72626  0.32627  1.0000
  H   H1368     1.0  0.82462  0.90408  0.02355  1.0000
  H   H1369     1.0  0.95047  0.49251  0.41741  1.0000
  H   H1370     1.0  0.92041  0.98131  0.30260  1.0000
  C   C783      1.0  0.93619  0.94134  0.42273  1.0000
  C   C784      1.0  0.72720  0.86417  0.98449  1.0000
  H   H1371     1.0  0.77908  0.53678  0.99112  1.0000
  H   H1372     1.0  0.90966  0.62192  0.06751  1.0000
  C   C785      1.0  0.91922  0.50195  0.19060  1.0000
  H   H1373     1.0  0.88082  0.53562  0.18976  1.0000
  H   H1374     1.0  0.75130  0.50778  0.07593  1.0000
  H   H1375     1.0  0.83393  0.49986  0.07111  1.0000
  H   H1376     1.0  0.89710  0.54710  0.00128  1.0000
  H   H1377     1.0  0.75955  0.73734  0.03379  1.0000
  H   H1378     1.0  0.89415  0.50787  0.40056  1.0000
  Fe  Fe88      1.0  0.98633  0.62968  0.40449  1.0000
  C   C786      1.0  0.99064  0.49744  0.47506  1.0000
  H   H1379     1.0  0.68573  0.56220  0.98492  1.0000
  H   H1380     1.0  0.80265  0.51670  0.98788  1.0000
  H   H1381     1.0  0.87867  0.48683  0.16346  1.0000
  H   H1382     1.0  0.75610  0.54367  0.07149  1.0000
  H   H1383     1.0  0.70837  0.77118  0.09047  1.0000
  H   H1384     1.0  0.93752  0.92635  0.39700  1.0000
  H   H1385     1.0  0.80033  0.74180  0.03159  1.0000
  H   H1386     1.0  0.90417  0.49897  0.20797  1.0000
  H   H1387     1.0  0.75676  0.49716  0.99764  1.0000
  H   H1388     1.0  0.93070  0.53403  0.06830  1.0000
  C   C787      1.0  0.85894  0.93959  0.99140  1.0000
  H   H1389     1.0  0.94543  0.96512  0.34936  1.0000
  H   H1390     1.0  0.94836  0.53908  0.38256  1.0000
  H   H1391     1.0  0.83675  0.51744  0.16034  1.0000
  H   H1392     1.0  0.90630  0.54026  0.39925  1.0000
  C   C788      1.0  0.87841  0.50404  0.14091  1.0000
  H   H1393     1.0  0.93273  0.55246  0.44685  1.0000
  N   N45       1.0  0.92173  0.51137  0.44019  1.0000
  C   C789      1.0  0.78547  0.77505  0.00084  1.0000
  C   C790      1.0  0.93525  0.50037  0.40477  1.0000
  H   H1394     1.0  0.95124  0.48975  0.32442  1.0000
  C   C791      1.0  0.70787  0.77689  0.02257  1.0000
  H   H1395     1.0  0.86926  0.55864  0.40275  1.0000
  C   C792      1.0  0.69487  0.79180  0.98809  1.0000
  H   H1396     1.0  0.70900  0.75499  0.01688  1.0000
  H   H1397     1.0  0.92613  0.48193  0.18376  1.0000
  C   C793      1.0  0.76910  0.72854  0.00773  1.0000
  H   H1398     1.0  0.72419  0.78525  0.02350  1.0000
  H   H1399     1.0  0.70465  0.94117  0.99641  1.0000
  H   H1400     1.0  0.67774  0.78988  0.99594  1.0000
  H   H1401     1.0  0.85794  0.52565  0.41233  1.0000
  C   C794      1.0  0.86546  0.54338  0.42736  1.0000
  H   H1402     1.0  0.69854  0.81346  0.99229  1.0000
  S   S181      1.0  0.66537  0.86616  0.99725  1.0000
  C   C795      1.0  0.74980  0.68671  0.02240  1.0000
  H   H1403     1.0  0.79534  0.64943  0.99819  1.0000
  H   H1404     1.0  0.71051  0.66393  0.02144  1.0000
  H   H1405     1.0  0.70527  0.69941  0.01572  1.0000
  H   H1406     1.0  0.66962  0.53310  0.98597  1.0000
  C   C796      1.0  0.88544  0.53507  0.45110  1.0000
  C   C797      1.0  0.77316  0.49388  0.98630  1.0000
  H   H1407     1.0  0.77555  0.58550  0.98519  1.0000
  H   H1408     1.0  0.89181  0.55350  0.46609  1.0000
  C   C798      1.0  0.94185  0.98091  0.37304  1.0000
  H   H1409     1.0  0.68263  0.48246  0.00209  1.0000
  H   H1410     1.0  0.92447  0.98107  0.43360  1.0000
  H   H1411     1.0  0.88060  0.52046  0.47577  1.0000
  C   C799      1.0  0.91547  0.48796  0.46810  1.0000
  H   H1412     1.0  0.92310  0.48156  0.09062  1.0000
  H   H1413     1.0  0.92091  0.88654  0.80275  1.0000
  H   H1414     1.0  0.77322  0.49462  0.95149  1.0000
  S   S182      1.0  0.96700  0.84873  0.56199  1.0000
  H   H1415     1.0  0.90523  0.75758  0.92584  1.0000
  H   H1416     1.0  0.71581  0.53997  0.95685  1.0000
  C   C800      1.0  0.68409  0.79901  0.91523  1.0000
  Fe  Fe89      1.0  0.96105  0.85084  0.63283  1.0000
  S   S183      1.0  0.92846  0.85798  0.66394  1.0000
  C   C801      1.0  0.97336  0.74003  0.50819  1.0000
  Fe  Fe90      1.0  0.86039  0.83350  0.88703  1.0000
  S   S184      1.0  0.87503  0.83498  0.95173  1.0000
  S   S185      1.0  0.88407  0.81915  0.83642  1.0000
  Fe  Fe91      1.0  0.81620  0.84652  0.92421  1.0000
  S   S186      1.0  0.78077  0.85286  0.91472  1.0000
  H   H1417     1.0  0.90638  0.49477  0.49598  1.0000
  H   H1418     1.0  0.76120  0.94033  0.94897  1.0000
  S   S187      1.0  0.84225  0.87229  0.89536  1.0000
  S   S188      1.0  0.83293  0.80757  0.90973  1.0000
  H   H1419     1.0  0.80767  0.65515  0.92435  1.0000
  S   S189      1.0  0.70829  0.59931  0.91130  1.0000
  H   H1420     1.0  0.93493  0.58022  0.51122  1.0000
  H   H1421     1.0  0.75170  0.58435  0.92322  1.0000
  C   C802      1.0  0.98672  0.48206  0.54838  1.0000
  H   H1422     1.0  0.94420  0.84748  0.80071  1.0000
  H   H1423     1.0  0.84101  0.93070  0.93566  1.0000
  H   H1424     1.0  0.73848  0.66933  0.96291  1.0000
  C   C803      1.0  0.78463  0.93035  0.90279  1.0000
  H   H1425     1.0  0.90689  0.90932  0.88765  1.0000
  C   C804      1.0  0.74204  0.86351  0.95118  1.0000
  H   H1426     1.0  0.73761  0.87094  0.92034  1.0000
  C   C805      1.0  0.91597  0.84628  0.71133  1.0000
  C   C806      1.0  0.89911  0.86122  0.72851  1.0000
  C   C807      1.0  0.88919  0.85341  0.76669  1.0000
  C   C808      1.0  0.89583  0.83028  0.78808  1.0000
  C   C809      1.0  0.91242  0.81505  0.77050  1.0000
  C   C810      1.0  0.92245  0.82299  0.73253  1.0000
  H   H1427     1.0  0.89382  0.87919  0.71235  1.0000
  H   H1428     1.0  0.87640  0.86530  0.77948  1.0000
  H   H1429     1.0  0.91778  0.79713  0.78661  1.0000
  H   H1430     1.0  0.93519  0.81108  0.71959  1.0000
  C   C811      1.0  0.95295  0.89835  0.75566  1.0000
  H   H1431     1.0  0.70752  0.74088  0.94988  1.0000
  N   N46       1.0  0.95513  0.88880  0.80071  1.0000
  C   C812      1.0  0.78108  0.68690  0.97420  1.0000
  H   H1432     1.0  0.93017  0.92359  0.69113  1.0000
  H   H1433     1.0  0.67752  0.51389  0.91371  1.0000
  C   C813      1.0  0.94428  0.93481  0.70242  1.0000
  H   H1434     1.0  0.69218  0.94223  0.94542  1.0000
  H   H1435     1.0  0.75553  0.78544  0.84546  1.0000
  H   H1436     1.0  0.97299  0.89725  0.85716  1.0000
  N   N47       1.0  0.86265  0.73925  0.80629  1.0000
  C   C814      1.0  0.88366  0.74605  0.82602  1.0000
  C   C815      1.0  0.86599  0.73538  0.75959  1.0000
  C   C816      1.0  0.84737  0.76188  0.81480  1.0000
  C   C817      1.0  0.85350  0.71372  0.82480  1.0000
  C   C818      1.0  0.86848  0.68902  0.82619  1.0000
  C   C819      1.0  0.88363  0.74909  0.87464  1.0000
  C   C820      1.0  0.82610  0.76081  0.79055  1.0000
  C   C821      1.0  0.74580  0.59145  0.95322  1.0000
  H   H1437     1.0  0.91194  0.77418  0.87703  1.0000
  C   C822      1.0  0.81150  0.78369  0.80410  1.0000
  H   H1438     1.0  0.88968  0.76542  0.81332  1.0000
  H   H1439     1.0  0.89591  0.73107  0.81702  1.0000
  H   H1440     1.0  0.87799  0.71949  0.75387  1.0000
  H   H1441     1.0  0.85128  0.72778  0.74451  1.0000
  H   H1442     1.0  0.85482  0.78169  0.80802  1.0000
  H   H1443     1.0  0.84330  0.76255  0.84891  1.0000
  H   H1444     1.0  0.84762  0.71722  0.85743  1.0000
  H   H1445     1.0  0.83932  0.70738  0.80668  1.0000
  H   H1446     1.0  0.88247  0.69292  0.84626  1.0000
  H   H1447     1.0  0.87406  0.68369  0.79415  1.0000
  H   H1448     1.0  0.87332  0.76599  0.88440  1.0000
  C   C823      1.0  0.69349  0.75308  0.94092  1.0000
  H   H1449     1.0  0.81765  0.74162  0.79655  1.0000
  H   H1450     1.0  0.82874  0.76295  0.75610  1.0000
  H   H1451     1.0  0.73207  0.77617  0.95417  1.0000
  H   H1452     1.0  0.93754  0.56391  0.56182  1.0000
  H   H1453     1.0  0.94009  0.88689  0.74011  1.0000
  C   C824      1.0  0.98815  0.50314  0.51811  1.0000
  H   H1454     1.0  0.71163  0.87244  0.97931  1.0000
  H   H1455     1.0  0.78496  0.90156  0.97524  1.0000
  H   H1456     1.0  0.79678  0.78325  0.78509  1.0000
  H   H1457     1.0  0.80709  0.78151  0.83787  1.0000
  H   H1458     1.0  0.81933  0.80351  0.79921  1.0000
  H   H1459     1.0  0.98892  0.81625  0.80339  1.0000
  C   C825      1.0  0.84484  0.94574  0.95895  1.0000
  C   C826      1.0  0.99509  0.95052  0.50443  1.0000
  C   C827      1.0  0.85716  0.66437  0.84453  1.0000
  C   C828      1.0  0.72165  0.78792  0.93279  1.0000
  H   H1460     1.0  0.85179  0.66823  0.87733  1.0000
  H   H1461     1.0  0.66927  0.83570  0.85506  1.0000
  C   C829      1.0  0.97548  0.96340  0.50919  1.0000
  H   H1462     1.0  0.71755  0.78869  0.86354  1.0000
  C   C830      1.0  0.85134  0.71005  0.96269  1.0000
  C   C831      1.0  0.90582  0.75516  0.89106  1.0000
  S   S190      1.0  0.98492  0.81886  0.64894  1.0000
  H   H1463     1.0  0.85404  0.70356  0.93074  1.0000
  S   S191      1.0  0.85240  0.65661  0.98212  1.0000
  H   H1464     1.0  0.75018  0.81426  0.87782  1.0000
  C   C832      1.0  0.84994  0.73760  0.97177  1.0000
  H   H1465     1.0  0.70289  0.52191  0.89103  1.0000
  H   H1466     1.0  0.85779  0.75119  0.67580  1.0000
  H   H1467     1.0  0.73447  0.70490  0.96612  1.0000
  C   C833      1.0  0.97284  0.84670  0.76573  1.0000
  H   H1468     1.0  0.69502  0.74849  0.87133  1.0000
  H   H1469     1.0  0.96075  0.75258  0.52005  1.0000
  C   C834      1.0  0.83572  0.97145  0.95651  1.0000
  H   H1470     1.0  0.99551  0.90537  0.77182  1.0000
  H   H1471     1.0  0.68536  0.54857  0.90651  1.0000
  H   H1472     1.0  0.76239  0.78473  0.90057  1.0000
  S   S192      1.0  0.98416  0.88492  0.64080  1.0000
  H   H1473     1.0  0.77798  0.90996  0.89762  1.0000
  H   H1474     1.0  0.67471  0.70367  0.92495  1.0000
  H   H1475     1.0  0.94138  0.95666  0.69805  1.0000
  H   H1476     1.0  0.95810  0.92902  0.68290  1.0000
  Fe  Fe92      1.0  0.84662  0.81200  0.97447  1.0000
  H   H1477     1.0  0.77808  0.94405  0.87840  1.0000
  C   C835      1.0  0.94831  0.92868  0.74898  1.0000
  H   H1478     1.0  0.96730  0.89402  0.73672  1.0000
  H   H1479     1.0  0.98472  0.48703  0.58129  1.0000
  H   H1480     1.0  0.96335  0.95397  0.52830  1.0000
  C   C836      1.0  0.69100  0.52814  0.91487  1.0000
  H   H1481     1.0  0.96377  0.84702  0.73579  1.0000
  H   H1482     1.0  0.70082  0.70295  0.90131  1.0000
  H   H1483     1.0  0.89030  0.76568  0.74390  1.0000
  C   C837      1.0  0.72859  0.78061  0.88749  1.0000
  H   H1484     1.0  0.78064  0.65133  0.90591  1.0000
  N   N48       1.0  0.69871  0.78286  0.94319  1.0000
  C   C838      1.0  0.93422  0.89389  0.82265  1.0000
  C   C839      1.0  0.68952  0.82926  0.90979  1.0000
  H   H1485     1.0  0.96677  0.85313  0.83255  1.0000
  H   H1486     1.0  0.79724  0.69523  0.96901  1.0000
  C   C840      1.0  0.93128  0.88104  0.86712  1.0000
  H   H1487     1.0  0.79371  0.62391  0.93228  1.0000
  H   H1488     1.0  0.77538  0.77967  0.97319  1.0000
  H   H1489     1.0  0.87807  0.73049  0.89043  1.0000
  C   C841      1.0  0.90931  0.88727  0.88491  1.0000
  Fe  Fe93      1.0  0.99220  0.81789  0.57858  1.0000
  H   H1490     1.0  0.93486  0.51945  0.52958  1.0000
  C   C842      1.0  0.97207  0.90413  0.82385  1.0000
  C   C843      1.0  0.95936  0.85884  0.80198  1.0000
  H   H1491     1.0  0.68364  0.79121  0.88263  1.0000
  C   C844      1.0  0.92925  0.53690  0.51080  1.0000
  H   H1492     1.0  0.93401  0.93519  0.76637  1.0000
  C   C845      1.0  0.75053  0.79193  0.87741  1.0000
  Fe  Fe94      1.0  0.85557  0.87224  0.96101  1.0000
  Fe  Fe95      1.0  0.99175  0.88138  0.57162  1.0000
  H   H1493     1.0  0.98761  0.85799  0.76021  1.0000
  H   H1494     1.0  0.70538  0.50693  0.96590  1.0000
  H   H1495     1.0  0.93156  0.91580  0.82696  1.0000
  H   H1496     1.0  0.93275  0.85882  0.86621  1.0000
  H   H1497     1.0  0.73231  0.97422  0.96691  1.0000
  H   H1498     1.0  0.70421  0.83178  0.89088  1.0000
  H   H1499     1.0  0.82479  0.97607  0.93134  1.0000
  H   H1500     1.0  0.69203  0.83924  0.94025  1.0000
  H   H1501     1.0  0.80625  0.92465  0.97649  1.0000
  H   H1502     1.0  0.66873  0.74915  0.89308  1.0000
  H   H1503     1.0  0.85155  0.75240  0.94693  1.0000
  H   H1504     1.0  0.96788  0.92581  0.82575  1.0000
  H   H1505     1.0  0.89680  0.87865  0.86444  1.0000
  H   H1506     1.0  0.90764  0.87825  0.91685  1.0000
  C   C846      1.0  0.79194  0.64613  0.93140  1.0000
  H   H1507     1.0  0.88021  0.77341  0.67054  1.0000
  C   C847      1.0  0.87386  0.76053  0.73474  1.0000
  H   H1508     1.0  0.68097  0.74765  0.96436  1.0000
  H   H1509     1.0  0.86379  0.77838  0.74033  1.0000
  C   C848      1.0  0.72474  0.60017  0.95650  1.0000
  H   H1510     1.0  0.94308  0.88899  0.88966  1.0000
  H   H1511     1.0  0.80210  0.92963  0.89890  1.0000
  H   H1512     1.0  0.96200  0.94102  0.75926  1.0000
  H   H1513     1.0  0.88446  0.73805  0.67966  1.0000
  C   C849      1.0  0.68517  0.74199  0.89840  1.0000
  C   C850      1.0  0.87404  0.75533  0.68731  1.0000
  H   H1514     1.0  0.72937  0.75841  0.88431  1.0000
  C   C851      1.0  0.70738  0.94498  0.96236  1.0000
  C   C852      1.0  0.99483  0.90164  0.80620  1.0000
  H   H1515     1.0  0.72585  0.80930  0.93905  1.0000
  C   C853      1.0  0.68461  0.71130  0.89848  1.0000
  C   C854      1.0  0.97872  0.81750  0.77502  1.0000
  H   H1516     1.0  0.91680  0.73846  0.88345  1.0000
  H   H1517     1.0  0.86819  0.64701  0.84525  1.0000
  H   H1518     1.0  0.67598  0.86579  0.88378  1.0000
  C   C855      1.0  0.78897  0.92299  0.98162  1.0000
  H   H1519     1.0  0.77179  0.69289  0.94592  1.0000
  H   H1520     1.0  0.75999  0.73303  0.97865  1.0000
  H   H1521     1.0  0.91217  0.53923  0.51717  1.0000
  H   H1522     1.0  0.94750  0.48286  0.49443  1.0000
  H   H1523     1.0  0.71663  0.97669  0.92046  1.0000
  C   C856      1.0  0.77870  0.94053  0.94660  1.0000
  H   H1524     1.0  0.78435  0.96162  0.94851  1.0000
  H   H1525     1.0  0.70111  0.67697  0.97207  1.0000
  Fe  Fe96      1.0  0.67321  0.60982  0.91375  1.0000
  H   H1526     1.0  0.98726  0.52385  0.52814  1.0000
  C   C857      1.0  0.96847  0.71574  0.48669  1.0000
  C   C858      1.0  0.78375  0.65592  0.97399  1.0000
  C   C859      1.0  0.94064  0.56181  0.52752  1.0000
  H   H1527     1.0  0.98762  0.80917  0.74782  1.0000
  H   H1528     1.0  0.76855  0.64568  0.98031  1.0000
  C   C860      1.0  0.67177  0.84418  0.88700  1.0000
  H   H1529     1.0  0.67763  0.70409  0.86848  1.0000
  H   H1530     1.0  0.79893  0.73917  0.97520  1.0000
  C   C861      1.0  0.76259  0.85354  0.95760  1.0000
  H   H1531     1.0  0.96427  0.80511  0.77998  1.0000
  C   C862      1.0  0.70099  0.52793  0.95863  1.0000
  H   H1532     1.0  0.84329  0.65884  0.82494  1.0000
  C   C863      1.0  0.99445  0.74804  0.51437  1.0000
  H   H1533     1.0  0.66750  0.79711  0.92694  1.0000
  H   H1534     1.0  0.99325  0.94235  0.65670  1.0000
  H   H1535     1.0  0.95800  0.56002  0.52264  1.0000
  C   C864      1.0  0.71587  0.97343  0.95491  1.0000
  H   H1536     1.0  0.71884  0.92993  0.95030  1.0000
