data_image0
_chemical_formula_structural       FeS2FeS2FeSFeS3HCHFeHSH6FeS2FeS2FeSFeS3FeHC2SHFeS2FeS2FeSFeS3CHSH2CH3C6H4C3HC2H4C6H4C6H5C2HCHCH5C2SNCHFeHC6H6CH4C6H6SC2HC2HCH2CH3C3H5C2HCH2CH2CH4CH4CHCH2CH3CHCH2CH2SH4CH2NH3CHC2H5CHC3H5CHCHNC10HCH21CH7CHNCH2C3H3CHSH3CH2C2H2CH2CH2CSH2NC6H3C2H3CH10C3HS2H13CHC2H5NC9H11CH2C2H8CH2CFeCHCHSHCH2NHC6H2CH5CH10C2HCH3C3HCH2SHC2HNHSHC2H3CH5C2H13C3H4C2H5C2HCH3CH4FeHC2H3C3FeS2FeS2FeSFeS3H4C2HFeS2FeS2FeSFeS3H2SH2CFeS2FeS2FeSFeS3FeS2FeS2FeSFeS3H7SHC2FeS2HC9H4C6H4C3H2CH2SHC3HCHC3H2SCHC2HC6H5CH2CHC2H3C3H9CH5C6H4C6H4C4HCH3CHC4HFeCH3FeCHNHC2H3CH4CH4C2HCHC2H4CH2CH4CH5CH3C2H8CH2CHCHCH2C3H6C2SH2C2HCHCH3C2H8SCH3NH2NSHCH5CH2CH15CH2CNCH2CH6CH2CHNCH2C2HC3HC2H7CHC2H3C3H4CH8C3H2CHC2H2C2NSH2CHCH4C2HCH2NC8HC2H16CH8NHC2HCHC3HNH5NH13SHNC4H5CHCFeHC3HSH6C2H6C2HNC6HC2H2CHCH4C2HC2HC4H2CH7CHCH4SH2CHCHCH2CH3CH2CH2CSH2C2FeHCHCH10CH10CH3NHCHC3HC2H2CHCHCH2CH3C2NC3H2SC2HSH3CFeHFeS2FeSFeS2HSHCSFeSFeSH2CH2C2H2SH2SFeSCHFeHSFeSHFeS2FeS2FeSFeS3CSHCFeS2FeS2FeSFeS3C7H4C2H2CSHC6H4C6H5C4H3CH4CH9C6H4C6H3C6HCH2CHCH6SC3H2CH7CSCHS2NH9SH5CH5C3SNC2H4CHC2H5CH2CH3CHCH2FeCH6NC12H28C2HCHCH4FeHCH3NC9HC2H20CH9C4H2FeH3FeH2C2H2NH2CHC2HNCHCH3C2HC4H10SC2H4CNC11H23C3H3CH2CHCH7CH2CH4C2H3SHC2H2SH2CH3CFeSCHC3H9CHCH4SH5CHC2H3C2HNH6CFeNC8H2C2H4CH8CH2CH8SH2NH2C2H2FeCNHCH5CHCH2C2SC2H3CH4C3HCFeCH4CH2C3H3CH7CHC2H2CHC2H3FeS2FeS2FeHFeHS2FeSHFeS2FeS2FeSHFeS2FeHFeS3FeS4HFeS2FeS2FeSCSHC7H6SH2CHC6H4C7H2CHC6H4C6H5CH2FeHC2HCHCSHC2H2CH2CHC3H3CHC2H5CH4C2NC7HCH6C2H13CH5NFeHCH2C2HFeH2C2H4SC3HCSFeCHSH2SH7C2H2C2HSHCH2C3H2SCH2CH3CHCH6CHCH2CH3CH2SH2CH5CH4CHCHCH2CH3CHCHC3HSCH2SHCHCHC2H3CH5CHC2H3C2HC2H2CHC4HC2H4CHCSCHFeH2CHNC2H4SH4C2H2NC2H9NH3CH3FeNC8H19CHCHCHC2SCH3CH2C2HC3H2CH3CH2CHCH7SC3H5CHCH2SH2NC12H28CHCHCHC3SH4CNHCH8SCH5CH3FeH2C2H2CHNC8HC2H9SH5CHCH7CFeHCHCHCH2NHCHNH2C2H9CH3CH2CH4CSHCH4NSC2H2FeHFeS2Fe2S3HC3SH2FeS2H11C2HCH2SC2SFeHSFeS2FeSH2S2FeS2FeS2FeSFeS3FeHSFeCH2CH2SFeS2FeS2Fe2S3C6H4C6H4C6H7CFeH2SHC4H4CH2C2HSH7C4H3C6H4CHCHC2H2C6H5CH5CH2C5H3C2H3C5H4C9H4C6H4C4H2C2H3NC12H28CHNC2H3CSC2HCH4C4H5C2HC3HSCH4CFeHFeCHCHNH3SCHCHCHNHCH4NH3CSHCSH5C4H2CH3CH2SHNC10HCH10CH12C2H3NC12H28NC12H33CSH3CHCH5C2HCH3CH3CH2CSH2CHCHC3H2CHSH2C3HC4H10CH4NC7H11C3SH5SNCH5FeHCH2C2HFeH5FeNH5SHCH5SHCHSCFeCH4CH7C2H7SCHSH10C2H3CNH5FeSHC2H4CHC2H7CH2C2HSH2SFeS2FeS2FeSFeS3FeS2FeS2FeSFeS3FeS2FeSCFeSFeS3FeS2FeS2FeH2FeSCHS2CH3NSCHFeCHFeS2FeSFeHS2HCSHC2H4CH3C6H4C3SC2H3C6H4C6H4C6H4C6H2CHC6H4C6H4C6H4C2H8CH3C2H2NH2C2H2CHSHCH2CSH2CHCH3FeNC12H30CH5C2H2CH4NH3NHC3H12C2HCHCHC2FeC3H2CH2CH3CHNC6HC2HCH13CH5C3H3C2HNC9HC2H13SH3SH10CSH3CHCHCH5CH4C2HSFeH6CHCNC2HC4H3CH5CH6C2SNFeCHCH3CH4CSCH2CH4CH2FeHCH4CFeNC12H16CH11CH4CSHFeC2HCSH4CH3C2SH2CHCHCHCFeSH7FeH2SH6CH3CH3CH4CHC2NC4H2CH3C2HCH6FeH6SHNCHCH6CHCH4CH2C3HC2HCHC2H2CH4C2H7C3SNH2C2H3C2S2H5CH2C2HCHC3FeHCH7CH5SC2H2C2HCNCHCH3SCH4CHCH2CH2C3H3C2H7CH2NHNH5C2H2CH2C3HCHCH8C2FeS2FeS2FeSFeS3FeCSFeS2FeSFeSFeS3HSFe2S2FeSHFeSFeCS2FeS2FeS2FeSFeS3NCHCH3FeS2HC2HC3HFeCHC3HC2H3C2H2CSCHC6H4C6H6CH2C6H4CSCHC7H4C6H4C6H10C3H6CH2CH3CHCH2SHC3H6CHNH2C2HCH3CHCHCH2SHC2H3C2HCHCH3C2H3CHCHCHC2H3CH2C3HC2H8CNH15NC12H10CH13CH3NC12H23CH6SCH2C2HCH2CHCH4SHCH3CH4CH2CHSHCHC2HSH3C3H7CHCH2CHCH2CH2CHCHNC2HC2H2C2HCH6C2H12CH6CH3CH2CH6CHCH8C3HFeC2HC2HCHC2HCH7CH2C2H2CH7CH5CHSH2C2HN2C10H18CHC3H2SCH2CNH2NC2H4CH3C2H5C2H3CHCH4C2H7CHC2H3CH2CH5SFeH6SHCH6CH3FeH2CFeS2FeS2FeSFeS4FeSHFeS2FeSFeS3HFeSH2SHSCHFeSH2FeSHFeS2FeSFeS3C5H5C2HC3HNH2C3HC2H3C6H4SH3CH2NC6H4C6H7C6H4C5H4C3H6C3SC3NH2CH4C2H4CHCHCHCH2C2H7CHCH7FeHSHSH7CHCH2C3HSC3HNH3CHFeHC3SHCH2CH2CH8CH2C2H3C3H2CHC2H4CHCH2CH3CNHC4H2C3H5C2H5C2H11SCHCHCHCH5CNHSH3CH2CSHC2HNC4SHC3HCH5CH3C3H7C3HCHCNC2HC5HC3H26CH2CHCSHCHC2H2CFeH3SHCH4FeC4FeH3C2SH2CH3CHNH2C2HCNC12H18CH11C2H5CH3CH2SCHCHC2HSH2CNHFeSH7C2HC2H3FeCHSH5CH2CH2SH2CH2FeH2CHCH3CHCH3SH3CHC2H2SH2CH7CH2SH7CH2CSH2FeH3CH2CH2C2NCSH2SH3CHC3H10SCFe2H2SC2HCFeS2FeS2FeSFeHS2H6C3H4CS2H3SH2CH2SHCH4FeS2FeSHFeSFeS3FeS2FeSCFeHFeS3FeS2FeS2FeSHS2FeS2FeHFeSFeS3HSH4CH2C6H4C6H5C6H4C2HSHCH5NHCH2CNHC9H2SH2C2HC6H3FeC4H4CHCH4C5H3CHCH2C2H2C2H2CH4C7H4C2H3CHCH2C2H4CH6CHCHNCHCH2C5SC2H6C2NHC2HCHCH4C4HC3H7NC3H2CHCH3CH8C2H4CH4CSHC2HC2H8CH3NC4HC3HCH7FeH2C2HCH3CHC4H7CNC12H28CHC2HC2HC2H2CH6CH9NC4H2C3H8CHCHFeCH7CH3CH2NC2HC2H2C2HCH5CHCH4CH12CH3CH2CHCHCH2C2H3CHCFeCH2CH2CHCHCHC2NSH2CHCHCHC2H6SH2CH2CH12C2H3SHCH6CNH3NC2H4CH5CHC2H6SHCH4CH3C3H2SCFeCFeSFeSHFeS2FeSFeS3FeS2FeS2FeSFeS4H2C3H2CFeH3C2H3CS2CH2SCHC2H6S2HFeCHNSHFeS2FeSHFeS4H6CH5C2H4C2SC2HCH3C3H3C6H4C6HCH2C6H7C2H2C6H4C6HCH2CH2C6H4CH7CH3C2HSH3NCH2NHCHCH4CH4CH4SCH7FeCH9C4HCH3C2H4CH3NHC5HC2H2FeCH2CH10CHCH2CHNC3FeHC2H3CH2CH12CH10CHS2C2HSFeC2HCNCHC2SCNHC2H2CHC2H10SHC2HCH6C2H2CH14C2SCH2NHC3HC4H2C2SHNCH3CHFeH2CHSHCH3CHCH3CH2CH3CH3CH3CHCHC2NC7H3C2H18CH10C3H8SCHC2FeCH2C5H3CH2NC7H2C3H14CH2CH6CH5CHC2HCFeHCH5C2H9CH3C2HFeHC2HCHCHSHCH3CSH2CH4CH3CH6FeS2FeS2FeSFeS3FeSHFeS2FeSFeS3FeSFeSH2SFeS2FeS2FeSFeS3H3SH2FeS2FeSFeCFeS2FeS2CHFeH3SFeS2FeS2FeSCS2HNHC2FeS2CH2CHC6H4CH5CHC3H5C6H4C6H4C6H4C6H4C3H4C6H4C6H4C6H2C6H4C4HCH10C2NC3H2SH5NH4CHC2H5C2H4CH3C2SH3CH4CNH9CHC3FeC3SH2SC4H2C2H5NC12H29NC11H21CH3NHCSH2C4H2NH7CH4CHSH4CHNHCH4C2H10C5HCH5CHC3HSH3CHCH3C2H3NC11H13CH15NC7H2CH13CH7CHSHCHCH2C2H3C2HCHCHCH4CH4CHCH2C2H3C3H2CH6CHFeHNC4H2C3H2CH11CSH3CHCH8CSH2FeH2CNCHCH2NH2SCSH2CH3FeHCHFeHCSH2C3H4CH5CH2C3H2CHC4H4C2H2CH2CHCHCH9CH2CH2CHFe2H9CHSHCHCHCH2CH2CSH2C3H4CH2SH2SFeSCHC2HCHCH5CH2C2NH2FeHSCH2CH8C3H8S2FeH10CHCH3CHC3H2FeSHFeHFeSHCFeSHFeS2FeSFeS3FeS2FeS2FeSFeS3C2NC3H3SFeS2FeS2FeSFeS3CH2CSHCH2CH2C2H2C3H3C5H2C6H6C2S2H2FeHC2H2C6H3C3H2CH4C6H4C6H5SCH4C2HC7H4C5H5CHCHSC5H4FeH2CHCHCHC2HC2H6FeHCH2CH2C3NC8HC3H27NHC5S2CSFeH11C2FeH3CNC3H4C2H2CHNH2SHCFeH4C2SHC2HCH2CHSHC2HSH3CHCH6SH2NC2HC2HCH2CNC12H28CHSH2C2HFeC3HCHC3HC2H3CH3CHCH6CSHCH3CHCH4C2H2C2H6CFeH5CSH3CH10CHFeHC3HCHC2HSC3H2NHCH4CH8NH7NHCHCHCH3SH2CHNH9CH4C3HCH4NC11NH26SHSH2CH3CH2CHC3HCHC2H3CSC3H2NH6CH2CH3SHC2H2CH4CH2C3SHCH2CH3CHCSHCHFeC2H11CHCH7CH2CH2CH4SH6FeHSFeS2H2FeSH8CH3FeS2FeS2FeSFeS3FeSCHSFeSFeHSCFeHSH4SHCSHFeS2FeS2FeSFeS3NSFeC2H4C8H6C2H3C6H4C6H4C4H2CFeC3HC6H4C6H3C6H4C4H6SCHCH2C6H2CHC3HCH5C2HCFeH2CFeS2CHCH3SCHC2SH2CH2CHCH3C2H6C2H3CH2SH2C2HN2HCH13CH2CH3CH3C2HCHCH3C3HCHCH2CH3C2H3CH2CHCH8CH7C2H3CHC2H6CH2C2H6CHCH2SC2H3C3H6CHCH3C2H3SH7CHNH4CHCHSH4C2HCHC2H2CHNH2CH6C2H3SCSH2C2HNHCHCH4CHC2HFeHC3HCH6CHCHCH9CH3NC12H3CH13CSH3SH2CHCHCHCHC3NH3NHFeHCN2C8HCH9CH4CSH2CH6NC4H5CH5FeH2CH2FeHSHCH2CH3C2HCHSH3CH3SCH2CH2CH2CH6C2H2S2FeSFeSFeS2FeS2FeSFeHS2FeS2HCFeSFeS3CHCHSH3CHC2S2CHCSFeS2FeSFeSFeS3H3CHC2H2C4H3C3H5SH3C4H3SCH2C2NSHCFeH3CHC3H2C7H4C6H4CH3C6H4C5H5C6H4CH3CH3CH2C3HSCH2SHCHCH4CH5SCSH3CHCSCH6CNC11H16CH6C2NC12H28NC12H39C2H2C2FeH5CH4CHCFeH4CH3CH2CH2CSC2SHNC8HCH4CH17C3HSH7CHCH2CH3C2H2CH2C2HCH8CHC4N2C12H25C2HNCHCHCH3CSH4CH3CH2CFeH3CH8CHSC3HCH2CNSHCFeCH3CH6CSHCH2CHCHSHCH2SC2HCH3SC4NHCH2C3H6CHFeH2FeCHFeC2H2NC3HCH5CH2CHC2HCSFeSCH2C2H4CHSHCHCHCH6CH4FeH4CHCH5CHSC3H6C2HCH3CH3SH2CH5SFeCH4CHCHC3H3FeSFeS2NH3SHFeS2FeSFeSHSH2SFe2S2FeCSFeS2FeCHCSH3FeC2H3SCHFeS2FeS2Fe2S2C2HSH2SCH3SHC6HCH2C2HSHNH4SFeHC6H4C6H6C6H4CNCH2C6H5CHSHC2HC2H2C2HC4H3C4H3C2HC3H4C2H7C3NC2H2CH2C2H7CH3CHCH2SH5CH2C2SHC2HCHSCH3CHCHNCH7NCH5C2H2CH4NC12H31FeHCHCHC3HCH5CHC3NH6CH2CH3SHCHC2H2CHC4H3CHCH7FeH6CHCH3CHCH5CSH2CHC2NC3H2C4H2CH5CH2CH2CH8NHC2NCH2NCHC2HCH2CSC2H7FeHCH2SHCH4CH5CH2CH5CH2SCHCHCH2NHCH4CHC2H3C4H2CH2CH3CH3CH2CH2CH5CH3CH4CHC2SH2CH4CH5SNH2CHCH2C2H5CH2CH3CH2C3H2CH4FeH5FeCHCSH4C2SH2CSHFeSH2NFeSCSFeS2FeS2FeSFeS2FeS2FeS2FeSFeS3HFeS2FeS2FeCFeS4FeS2FeSFeS3CHC2HCH3C6H4C5SH4C5H6C6H4CH2C2H2C4H3C6H4CHCH8C6H4CHCH5CSHC2H2CH3CHNHCH2C2H3CH5SC2H3CSH4CHCHCHSH4NCH3CHNH5CH5C2H3CH3CHCHCH6CHCH2NSH4C2NC12H27CH2CH6C4H5C3H2CH11C2H4CFeH3CH2CHC3H3C2H2CH7CH2NC6HC4H22CH6CH4CFeCSCH2C2FeC2HCH7C2H4SH3CH5NHC2HCHCH2C2HCH5CHC2H3CH2CHNHCHCH2C3H2CH4SC4SH2CHCHCH3N2C8HC3H16C3H9SCH4CHC2H5C2HC2H3C2HCH14CHCH3C5H3CHCHCHC3H2CH2C2H4NCH4FeH2CH2CH2CFeH6SCNHSFeS2FeSFeS2C2HS2FeS2FeS2FeSFeS3FeS2FeSHC2SH5S3FeS2FeS2FeSFeS3H3FeS2FeSHFeSFeS2HC2FeS2FeSHCSH4CH6CHC6H4C6H4C4H2CHCHCH3CHC2HCH3C3HC2H2CHC6H4C6H4NHC4H4C2HC2H2C7H4C6H4C2H2C2H2CHC3HCH2NC9HC2H29SHC2H4CHC2H2CH2CH2C2H3C2FeHC2H5SC3SH12NH4C2HC2SCHCHFe2CHCH2CH2CH3CHNHSCH4FeNC12H29CHC3NHCH3SCH4C2H3CH2C3HNC5HCH8FeH4CH2CH2CH2CH2CH3CNC2HCH4CH2CHCHFeCH4C2NHCHCH2CH5CH3CHCSH6CH2CNH14C2H2CSH4CHC2H3CH3CFeHCNC5HC4HCH10CH8CH2CHC2HC4HCSH4C2HC2SH2C2HFeCH7CH2CH4C2HCH2CHCNCH4CHCHCH2SH4CHCH3FeHCH4CH3CH4CH5CH3CH9CHC3HCHCHCH4SH8S2HCH2CH2CH3CH2CH4SHC2HCH3FeSHFeSH3FeS2FeS2FeSFeS3CHSHFeHC2H2SCHFeS2H3FeH3SFeS3CSHCH4FeSHSFeS2FeS2FeSFeS3HSC2HCNH3C6H3C6H5NH2C6H3C2H2CHCH3CHCHC2H4FeC3H2CHC2NCHCHCHC6H5C6H5C5HCHCH3C4H2NC4H12CHCH2CH5CSH4CH4CHCH2CNC12H28SH6C2H2CH2CH5CH3CH8C2HCSCSH3CHCH4CHNC2HC3SH7CH2NC9H20CH5FeSC4HNHCSCH3CHSCSHC2H2C3HCHFeCH3CH3CH2CHCHCH2CH2CH3CH2CH3CHC2H3CH5NCH3CH2C2HC5H3FeHC2HCH2C2HCH2CH4CH4CH3SH4C2HC3HCHCH2CFeHCHCHNHC2H2CH6CFeCH3CSH2CNCH4C3H4S3H2C2HCH4CHSCH6FeH2C2H9CH3CH3CH3CSHCFeCNCH3C3H2C2FeS2FeS2FeSFeHS2HSHFeCSHSHNC4H3FeS2FeS2FeSH2S2CFeS2CFeSHSH3C2H2CHCH4C4H2SFeH3C7H4SHCH3C5H2C6H4C3HCH3CHC6H10CHCH2C2H4CH2CH3FeHC2H3CH4C6H6CH2CH2NH2CH2CH6SHSH2CH9C2HCHC4HCHCHNH2C2H3CH2CH2CHCH4CH2NC11H26CHCH2CH2NHNCHC4H3C2H8CH8CHCH11SH7NC2H2CH3CH4CH2CH4CHC2H6FeH3CHCH5FeH3CH2CH4SFeH5CH5CHC2SHNH2CH6CNH4SHCH2CNHC3HC3H6FeH6C2H5C3SC3HCH3FeCH3CH4C2H6CHCHFeC2H4CSHCH3SFeS2FeS2FeSFeS3FeSFeS2FeSFeS3CHSH6FeS2FeSCFeSFeS3CHCH2SFeHSH5SCSHCHC3HSFeS2CHFeSHSC2H4C4H2C5H5C3H4C8H4CHC6H4S3H2CH2SH2C2H4C6H4C6H4C5H3C7H3C3H3CH2CH2C2H2C3HNH6C2H9CNC3HCH2CH6NC12H34CHC3H5CH3C2H2CH8SHC2NCHCHCHC2H9FeC2SH3NC9HC2H17CSH9CHCHCH2NH2C4H2FeC2H2C3H2CH5CH3CHCH4CH6NHFeCHCH3CFeC2H3SCHFeH5CFeH3C2HC2SHC2HCHCH4C2H5C2HC2H2CH6C2HCH2C2HC2H6C4H3FeH3CH2FeH4SCHCNC2H5C3SC2H5FeH5CHCH3CH3C4HCHSCH12C2H3C2H6CHC2H2CH5C2S2C2H2C2H2FeH3NCHC2HCHCHSCH3CHC3HCHSH2CH3SCH5CH3C2H
_chemical_formula_sum              "Fe480 S960 H7680 C4320 N240"
_cell_length_a       78.9957
_cell_length_b       79.2319
_cell_length_c       79.2707
_cell_angle_alpha    75.0856
_cell_angle_beta     75.0565
_cell_angle_gamma    75.0319

_space_group_name_H-M_alt    "P 1"
_space_group_IT_number       1

loop_
  _space_group_symop_operation_xyz
  'x, y, z'

loop_
  _atom_site_type_symbol
  _atom_site_label
  _atom_site_symmetry_multiplicity
  _atom_site_fract_x
  _atom_site_fract_y
  _atom_site_fract_z
  _atom_site_occupancy
  Fe  Fe1       1.0  0.44008  0.13459  0.11336  1.0000
  S   S1        1.0  0.44838  0.13669  0.08389  1.0000
  S   S2        1.0  0.45699  0.13803  0.13066  1.0000
  Fe  Fe2       1.0  0.40626  0.12154  0.11579  1.0000
  S   S3        1.0  0.41164  0.12310  0.08614  1.0000
  S   S4        1.0  0.38229  0.11069  0.13327  1.0000
  Fe  Fe3       1.0  0.43989  0.11064  0.08889  1.0000
  S   S5        1.0  0.45838  0.08699  0.07871  1.0000
  Fe  Fe4       1.0  0.41939  0.14917  0.08385  1.0000
  S   S6        1.0  0.41459  0.17310  0.06157  1.0000
  S   S7        1.0  0.43408  0.10737  0.11849  1.0000
  S   S8        1.0  0.41150  0.14880  0.11326  1.0000
  H   H1        1.0  0.13942  0.44770  0.05640  1.0000
  C   C1        1.0  0.26515  0.29471  0.11975  1.0000
  H   H2        1.0  0.42961  0.01035  0.08906  1.0000
  Fe  Fe5       1.0  0.45457  0.00518  0.04812  1.0000
  H   H3        1.0  0.29580  0.40021  0.16622  1.0000
  S   S9        1.0  0.43588  0.03247  0.04709  1.0000
  H   H4        1.0  0.48095  0.20393  0.03152  1.0000
  H   H5        1.0  0.16286  0.40627  0.12512  1.0000
  H   H6        1.0  0.10877  0.44308  0.05741  1.0000
  H   H7        1.0  0.37225  0.34827  0.99463  1.0000
  H   H8        1.0  0.48460  0.29794  0.05109  1.0000
  H   H9        1.0  0.15296  0.35106  0.17425  1.0000
  Fe  Fe6       1.0  0.32647  0.29733  0.04017  1.0000
  S   S10       1.0  0.32614  0.26808  0.04840  1.0000
  S   S11       1.0  0.30391  0.31994  0.04780  1.0000
  Fe  Fe7       1.0  0.36442  0.29137  0.01811  1.0000
  S   S12       1.0  0.36707  0.26174  0.02453  1.0000
  S   S13       1.0  0.38678  0.30267  0.99784  1.0000
  Fe  Fe8       1.0  0.33921  0.26742  0.01982  1.0000
  S   S14       1.0  0.33487  0.24867  0.00510  1.0000
  Fe  Fe9       1.0  0.35404  0.26481  0.05245  1.0000
  S   S15       1.0  0.36275  0.24567  0.07679  1.0000
  S   S16       1.0  0.33744  0.29688  0.01112  1.0000
  S   S17       1.0  0.35343  0.29428  0.04655  1.0000
  Fe  Fe10      1.0  0.13001  0.36335  0.99543  1.0000
  H   H10       1.0  0.27594  0.33343  0.14065  1.0000
  C   C2        1.0  0.17751  0.47608  0.05654  1.0000
  C   C3        1.0  0.47077  0.15378  0.12466  1.0000
  S   S18       1.0  0.44846  0.31746  0.02651  1.0000
  H   H11       1.0  0.06694  0.45776  0.98989  1.0000
  Fe  Fe11      1.0  0.20801  0.32776  0.10336  1.0000
  S   S19       1.0  0.17984  0.32859  0.10162  1.0000
  S   S20       1.0  0.22934  0.30488  0.09425  1.0000
  Fe  Fe12      1.0  0.19737  0.36109  0.11877  1.0000
  S   S21       1.0  0.16863  0.36459  0.11812  1.0000
  S   S22       1.0  0.20620  0.38298  0.12553  1.0000
  Fe  Fe13      1.0  0.17214  0.33511  0.12884  1.0000
  S   S23       1.0  0.14769  0.32678  0.14813  1.0000
  Fe  Fe14      1.0  0.17848  0.35779  0.09118  1.0000
  S   S24       1.0  0.16432  0.37572  0.06990  1.0000
  S   S25       1.0  0.20051  0.33191  0.13173  1.0000
  S   S26       1.0  0.20715  0.35668  0.09071  1.0000
  C   C4        1.0  0.23689  0.38783  0.15774  1.0000
  H   H12       1.0  0.48550  0.24214  0.07289  1.0000
  S   S27       1.0  0.13999  0.34230  0.01800  1.0000
  H   H13       1.0  0.26457  0.27341  0.14392  1.0000
  H   H14       1.0  0.40758  0.01144  0.10303  1.0000
  C   C5        1.0  0.20914  0.32732  0.02634  1.0000
  H   H15       1.0  0.42109  0.31044  0.98020  1.0000
  H   H16       1.0  0.40167  0.34572  0.98540  1.0000
  H   H17       1.0  0.18908  0.38852  0.99012  1.0000
  C   C6        1.0  0.15751  0.36607  0.05584  1.0000
  C   C7        1.0  0.14621  0.37692  0.04453  1.0000
  C   C8        1.0  0.14059  0.36962  0.03308  1.0000
  C   C9        1.0  0.14628  0.35143  0.03286  1.0000
  C   C10       1.0  0.15736  0.34049  0.04440  1.0000
  C   C11       1.0  0.16313  0.34785  0.05575  1.0000
  H   H18       1.0  0.14181  0.39103  0.04453  1.0000
  H   H19       1.0  0.13176  0.37808  0.02449  1.0000
  H   H20       1.0  0.16182  0.32641  0.04423  1.0000
  H   H21       1.0  0.17222  0.33954  0.06413  1.0000
  C   C12       1.0  0.19354  0.39100  0.14464  1.0000
  C   C13       1.0  0.19226  0.40880  0.14531  1.0000
  C   C14       1.0  0.18360  0.41514  0.16098  1.0000
  H   H22       1.0  0.47035  0.23312  0.04088  1.0000
  C   C15       1.0  0.02446  0.45261  0.03669  1.0000
  C   C16       1.0  0.18588  0.37959  0.15965  1.0000
  H   H23       1.0  0.19809  0.41768  0.13369  1.0000
  H   H24       1.0  0.18256  0.42891  0.16130  1.0000
  H   H25       1.0  0.24645  0.35905  0.16513  1.0000
  H   H26       1.0  0.13327  0.42679  0.99299  1.0000
  C   C17       1.0  0.28243  0.31577  0.05836  1.0000
  C   C18       1.0  0.27903  0.29852  0.06309  1.0000
  C   C19       1.0  0.26221  0.29548  0.07312  1.0000
  C   C20       1.0  0.24883  0.30961  0.07872  1.0000
  C   C21       1.0  0.25197  0.32695  0.07322  1.0000
  C   C22       1.0  0.26870  0.33003  0.06303  1.0000
  H   H27       1.0  0.28945  0.28747  0.05939  1.0000
  H   H28       1.0  0.25983  0.28203  0.07718  1.0000
  H   H29       1.0  0.24177  0.33795  0.07729  1.0000
  H   H30       1.0  0.27121  0.34343  0.05924  1.0000
  C   C23       1.0  0.40381  0.30666  0.00605  1.0000
  C   C24       1.0  0.40182  0.30654  0.02411  1.0000
  C   C25       1.0  0.41558  0.30997  0.03020  1.0000
  C   C26       1.0  0.43138  0.31356  0.01829  1.0000
  C   C27       1.0  0.43331  0.31376  0.00021  1.0000
  C   C28       1.0  0.41956  0.31030  0.99414  1.0000
  H   H31       1.0  0.38964  0.30395  0.03337  1.0000
  H   H32       1.0  0.41393  0.30996  0.04418  1.0000
  H   H33       1.0  0.02372  0.47263  0.00467  1.0000
  H   H34       1.0  0.38813  0.27537  0.07172  1.0000
  H   H35       1.0  0.22960  0.33222  0.98172  1.0000
  C   C29       1.0  0.36645  0.35337  0.98247  1.0000
  C   C30       1.0  0.14757  0.42582  0.10673  1.0000
  H   H36       1.0  0.13205  0.44831  0.07918  1.0000
  C   C31       1.0  0.13683  0.46537  0.13266  1.0000
  H   H37       1.0  0.15731  0.45567  0.08216  1.0000
  C   C32       1.0  0.23397  0.44169  0.16525  1.0000
  H   H38       1.0  0.12826  0.41552  0.08484  1.0000
  H   H39       1.0  0.32690  0.22960  0.98360  1.0000
  H   H40       1.0  0.15796  0.46650  0.04909  1.0000
  H   H41       1.0  0.32520  0.27048  0.10574  1.0000
  H   H42       1.0  0.48812  0.06531  0.05956  1.0000
  C   C33       1.0  0.32295  0.28331  0.09600  1.0000
  C   C34       1.0  0.27236  0.30623  0.14228  1.0000
  S   S28       1.0  0.47710  0.99845  0.06257  1.0000
  N   N1        1.0  0.27695  0.30538  0.12279  1.0000
  C   C35       1.0  0.25376  0.35435  0.10438  1.0000
  H   H43       1.0  0.03997  0.43396  0.02050  1.0000
  Fe  Fe15      1.0  0.11252  0.40204  0.98482  1.0000
  H   H44       1.0  0.25077  0.30067  0.12417  1.0000
  C   C36       1.0  0.40083  0.19323  0.06664  1.0000
  C   C37       1.0  0.39014  0.19421  0.08358  1.0000
  C   C38       1.0  0.37877  0.21047  0.08677  1.0000
  C   C39       1.0  0.37772  0.22564  0.07293  1.0000
  C   C40       1.0  0.38865  0.22462  0.05614  1.0000
  C   C41       1.0  0.40027  0.20856  0.05307  1.0000
  H   H45       1.0  0.39046  0.18245  0.09415  1.0000
  H   H46       1.0  0.37046  0.21118  0.09987  1.0000
  H   H47       1.0  0.38845  0.23630  0.04558  1.0000
  H   H48       1.0  0.40881  0.20800  0.04008  1.0000
  H   H49       1.0  0.24133  0.27191  0.12836  1.0000
  H   H50       1.0  0.31190  0.28313  0.99265  1.0000
  C   C42       1.0  0.47101  0.21463  0.02509  1.0000
  H   H51       1.0  0.24491  0.32960  0.11137  1.0000
  H   H52       1.0  0.25751  0.25121  0.13151  1.0000
  H   H53       1.0  0.34049  0.34893  0.99829  1.0000
  H   H54       1.0  0.41837  0.06515  0.10522  1.0000
  C   C43       1.0  0.44930  0.07202  0.07244  1.0000
  C   C44       1.0  0.45661  0.05379  0.07671  1.0000
  C   C45       1.0  0.45189  0.04161  0.06961  1.0000
  C   C46       1.0  0.44014  0.04749  0.05784  1.0000
  C   C47       1.0  0.43210  0.06570  0.05423  1.0000
  C   C48       1.0  0.43662  0.07797  0.06157  1.0000
  H   H55       1.0  0.46626  0.04905  0.08526  1.0000
  H   H56       1.0  0.45736  0.02767  0.07336  1.0000
  H   H57       1.0  0.42281  0.07038  0.04529  1.0000
  H   H58       1.0  0.43095  0.09207  0.05814  1.0000
  H   H59       1.0  0.11665  0.47849  0.16685  1.0000
  H   H60       1.0  0.46362  0.28100  0.04795  1.0000
  S   S29       1.0  0.09600  0.42681  0.99490  1.0000
  C   C49       1.0  0.12863  0.42489  0.07177  1.0000
  C   C50       1.0  0.10319  0.46081  0.02157  1.0000
  H   H61       1.0  0.09475  0.47022  0.02956  1.0000
  C   C51       1.0  0.27531  0.31888  0.16748  1.0000
  C   C52       1.0  0.24525  0.32768  0.00148  1.0000
  H   H62       1.0  0.14317  0.40003  0.12277  1.0000
  C   C53       1.0  0.19581  0.32921  0.00095  1.0000
  H   H63       1.0  0.25880  0.26583  0.10984  1.0000
  H   H64       1.0  0.09589  0.46765  0.15443  1.0000
  C   C54       1.0  0.18923  0.38491  0.00457  1.0000
  H   H65       1.0  0.32731  0.28039  0.08239  1.0000
  H   H66       1.0  0.21924  0.35759  0.00742  1.0000
  H   H67       1.0  0.39790  0.03065  0.12641  1.0000
  C   C55       1.0  0.40313  0.03274  0.16426  1.0000
  C   C56       1.0  0.31024  0.20209  0.02307  1.0000
  C   C57       1.0  0.39936  0.26870  0.06239  1.0000
  H   H68       1.0  0.33719  0.21385  0.02649  1.0000
  H   H69       1.0  0.18743  0.35295  0.98089  1.0000
  H   H70       1.0  0.17920  0.44264  0.07758  1.0000
  H   H71       1.0  0.21825  0.33267  0.03130  1.0000
  H   H72       1.0  0.24083  0.45139  0.13645  1.0000
  C   C58       1.0  0.32091  0.25583  0.98944  1.0000
  C   C59       1.0  0.16900  0.42289  0.05735  1.0000
  H   H73       1.0  0.20274  0.30110  0.02950  1.0000
  C   C60       1.0  0.13855  0.37356  0.15827  1.0000
  H   H74       1.0  0.48081  0.28426  0.02826  1.0000
  H   H75       1.0  0.44538  0.31657  0.99092  1.0000
  C   C61       1.0  0.15939  0.41897  0.08991  1.0000
  H   H76       1.0  0.40756  0.27855  0.05435  1.0000
  H   H77       1.0  0.11147  0.43948  0.16110  1.0000
  C   C62       1.0  0.26710  0.40214  0.17093  1.0000
  H   H78       1.0  0.26234  0.30380  0.99258  1.0000
  H   H79       1.0  0.15103  0.37829  0.15101  1.0000
  H   H80       1.0  0.38742  0.09566  0.10095  1.0000
  H   H81       1.0  0.21136  0.35937  0.98809  1.0000
  C   C63       1.0  0.38594  0.26024  0.97888  1.0000
  H   H82       1.0  0.39787  0.02162  0.16267  1.0000
  H   H83       1.0  0.07652  0.32130  0.14694  1.0000
  H   H84       1.0  0.05634  0.43176  0.99407  1.0000
  H   H85       1.0  0.22906  0.31162  0.99675  1.0000
  C   C64       1.0  0.16650  0.44756  0.07257  1.0000
  H   H86       1.0  0.42720  0.99982  0.11231  1.0000
  C   C65       1.0  0.48603  0.03687  0.02225  1.0000
  H   H87       1.0  0.29770  0.19687  0.02724  1.0000
  H   H88       1.0  0.42434  0.35291  0.99961  1.0000
  C   C66       1.0  0.03725  0.44862  0.01942  1.0000
  H   H89       1.0  0.17902  0.36138  0.00869  1.0000
  H   H90       1.0  0.10201  0.42294  0.07087  1.0000
  H   H91       1.0  0.27682  0.29285  0.15046  1.0000
  C   C67       1.0  0.02892  0.45863  0.00292  1.0000
  H   H92       1.0  0.30174  0.30481  0.08860  1.0000
  C   C68       1.0  0.20875  0.35410  0.00269  1.0000
  H   H93       1.0  0.13326  0.43011  0.10581  1.0000
  H   H94       1.0  0.19622  0.42559  0.05729  1.0000
  C   C69       1.0  0.14135  0.36227  0.17645  1.0000
  H   H95       1.0  0.27631  0.32275  0.09692  1.0000
  H   H96       1.0  0.12756  0.38541  0.15979  1.0000
  S   S30       1.0  0.13184  0.47224  0.02534  1.0000
  H   H97       1.0  0.41072  0.10260  0.15312  1.0000
  H   H98       1.0  0.26685  0.29539  0.10531  1.0000
  H   H99       1.0  0.29567  0.28335  0.09695  1.0000
  H   H100      1.0  0.39954  0.06151  0.15305  1.0000
  C   C70       1.0  0.23135  0.45574  0.14831  1.0000
  H   H101      1.0  0.45553  0.11517  0.04377  1.0000
  H   H102      1.0  0.25063  0.39006  0.15202  1.0000
  N   N2        1.0  0.04123  0.45818  0.98486  1.0000
  H   H103      1.0  0.33133  0.29211  0.09714  1.0000
  H   H104      1.0  0.29546  0.31618  0.14377  1.0000
  H   H105      1.0  0.13436  0.41712  0.06108  1.0000
  C   C71       1.0  0.29651  0.29680  0.11798  1.0000
  H   H106      1.0  0.47532  0.21499  0.07408  1.0000
  C   C72       1.0  0.27377  0.32375  0.11111  1.0000
  C   C73       1.0  0.30316  0.29245  0.09903  1.0000
  H   H107      1.0  0.13549  0.45160  0.13601  1.0000
  H   H108      1.0  0.21271  0.40160  0.04103  1.0000
  H   H109      1.0  0.24996  0.33598  0.12938  1.0000
  H   H110      1.0  0.25757  0.30948  0.14710  1.0000
  H   H111      1.0  0.41637  0.25854  0.08132  1.0000
  C   C74       1.0  0.25561  0.26540  0.12443  1.0000
  H   H112      1.0  0.22326  0.36574  0.16293  1.0000
  C   C75       1.0  0.26785  0.27477  0.12922  1.0000
  C   C76       1.0  0.28063  0.31949  0.14741  1.0000
  C   C77       1.0  0.38384  0.09965  0.15540  1.0000
  H   H113      1.0  0.48269  0.09324  0.01690  1.0000
  H   H114      1.0  0.28363  0.33142  0.11145  1.0000
  H   H115      1.0  0.42921  0.05513  0.15784  1.0000
  H   H116      1.0  0.48415  0.27737  0.06725  1.0000
  H   H117      1.0  0.46458  0.12418  0.02070  1.0000
  C   C78       1.0  0.14997  0.30851  0.16617  1.0000
  H   H118      1.0  0.36595  0.21535  0.01032  1.0000
  C   C79       1.0  0.25458  0.33524  0.11511  1.0000
  H   H119      1.0  0.13845  0.41932  0.17058  1.0000
  N   N3        1.0  0.11777  0.33060  0.10086  1.0000
  C   C80       1.0  0.10100  0.32941  0.11514  1.0000
  C   C81       1.0  0.11341  0.33263  0.08286  1.0000
  C   C82       1.0  0.13077  0.31297  0.10447  1.0000
  C   C83       1.0  0.12639  0.34559  0.10087  1.0000
  C   C84       1.0  0.11357  0.36267  0.10653  1.0000
  C   C85       1.0  0.10393  0.32431  0.13463  1.0000
  C   C86       1.0  0.14780  0.30975  0.08977  1.0000
  C   C87       1.0  0.10014  0.34980  0.07637  1.0000
  C   C88       1.0  0.09566  0.34920  0.05891  1.0000
  C   C89       1.0  0.12266  0.37864  0.10068  1.0000
  H   H120      1.0  0.31977  0.32751  0.98356  1.0000
  C   C90       1.0  0.16142  0.29332  0.09632  1.0000
  H   H121      1.0  0.09435  0.31924  0.11358  1.0000
  H   H122      1.0  0.09084  0.34198  0.11372  1.0000
  H   H123      1.0  0.12569  0.33287  0.07216  1.0000
  H   H124      1.0  0.10823  0.32088  0.08263  1.0000
  H   H125      1.0  0.12399  0.30161  0.10676  1.0000
  H   H126      1.0  0.13549  0.31156  0.11696  1.0000
  H   H127      1.0  0.13606  0.34101  0.10998  1.0000
  H   H128      1.0  0.13475  0.34963  0.08746  1.0000
  H   H129      1.0  0.10922  0.36033  0.12127  1.0000
  H   H130      1.0  0.10137  0.36668  0.10091  1.0000
  H   H131      1.0  0.10945  0.30975  0.13818  1.0000
  H   H132      1.0  0.11356  0.33141  0.13634  1.0000
  H   H133      1.0  0.15418  0.32144  0.08560  1.0000
  H   H134      1.0  0.14444  0.30734  0.07793  1.0000
  H   H135      1.0  0.08736  0.35168  0.08621  1.0000
  H   H136      1.0  0.10634  0.36158  0.07360  1.0000
  H   H137      1.0  0.08898  0.33793  0.06079  1.0000
  H   H138      1.0  0.08652  0.36184  0.05426  1.0000
  H   H139      1.0  0.10799  0.34771  0.04835  1.0000
  H   H140      1.0  0.12573  0.38255  0.08589  1.0000
  H   H141      1.0  0.03074  0.44535  0.04825  1.0000
  C   C91       1.0  0.13961  0.43921  0.06990  1.0000
  H   H142      1.0  0.47495  0.02971  0.02890  1.0000
  H   H143      1.0  0.16545  0.29485  0.10819  1.0000
  H   H144      1.0  0.15570  0.28114  0.09984  1.0000
  H   H145      1.0  0.17358  0.29159  0.08561  1.0000
  H   H146      1.0  0.16751  0.43184  0.04421  1.0000
  H   H147      1.0  0.38846  0.05551  0.10778  1.0000
  H   H148      1.0  0.08900  0.32417  0.16175  1.0000
  C   C92       1.0  0.39949  0.09722  0.16165  1.0000
  H   H149      1.0  0.22816  0.39685  0.14874  1.0000
  N   N4        1.0  0.15865  0.43214  0.07244  1.0000
  C   C93       1.0  0.17766  0.38581  0.17549  1.0000
  H   H150      1.0  0.04992  0.45263  0.01863  1.0000
  H   H151      1.0  0.15600  0.40630  0.08951  1.0000
  C   C94       1.0  0.37588  0.20971  0.01901  1.0000
  C   C95       1.0  0.12486  0.43620  0.00099  1.0000
  C   C96       1.0  0.18917  0.41519  0.05725  1.0000
  H   H152      1.0  0.36203  0.36804  0.98084  1.0000
  H   H153      1.0  0.18048  0.45402  0.04443  1.0000
  H   H154      1.0  0.18941  0.36221  0.02607  1.0000
  C   C97       1.0  0.10927  0.43342  0.07029  1.0000
  H   H155      1.0  0.08104  0.45260  0.01710  1.0000
  S   S31       1.0  0.14115  0.38834  0.98573  1.0000
  H   H156      1.0  0.44231  0.36250  0.98444  1.0000
  H   H157      1.0  0.22629  0.30038  0.02649  1.0000
  H   H158      1.0  0.38254  0.24947  0.99045  1.0000
  C   C98       1.0  0.22828  0.32599  0.99612  1.0000
  H   H159      1.0  0.19769  0.30740  0.06000  1.0000
  H   H160      1.0  0.35707  0.09475  0.16212  1.0000
  C   C99       1.0  0.21269  0.30676  0.03275  1.0000
  C   C100      1.0  0.38956  0.06723  0.11230  1.0000
  H   H161      1.0  0.16324  0.41148  0.05761  1.0000
  H   H162      1.0  0.13522  0.37541  0.10569  1.0000
  C   C101      1.0  0.09544  0.45083  0.01449  1.0000
  H   H163      1.0  0.39449  0.19716  0.99803  1.0000
  H   H164      1.0  0.39512  0.36936  0.98088  1.0000
  C   C102      1.0  0.34983  0.34549  0.98597  1.0000
  H   H165      1.0  0.47618  0.16392  0.04834  1.0000
  H   H166      1.0  0.10242  0.44035  0.08150  1.0000
  C   C103      1.0  0.42777  0.36277  0.98714  1.0000
  S   S32       1.0  0.09370  0.47999  0.06844  1.0000
  H   H167      1.0  0.19206  0.39623  0.04054  1.0000
  H   H168      1.0  0.39785  0.08136  0.08499  1.0000
  N   N5        1.0  0.35308  0.19319  0.04322  1.0000
  C   C104      1.0  0.35197  0.17462  0.05406  1.0000
  C   C105      1.0  0.34056  0.19902  0.03021  1.0000
  C   C106      1.0  0.37200  0.19235  0.03247  1.0000
  C   C107      1.0  0.34934  0.20661  0.05487  1.0000
  C   C108      1.0  0.33086  0.20863  0.06777  1.0000
  C   C109      1.0  0.36418  0.16696  0.06799  1.0000
  H   H169      1.0  0.26223  0.36109  0.10857  1.0000
  H   H170      1.0  0.21743  0.45816  0.14635  1.0000
  H   H171      1.0  0.18277  0.33202  0.01039  1.0000
  C   C110      1.0  0.32974  0.22005  0.08101  1.0000
  C   C111      1.0  0.36102  0.14866  0.07882  1.0000
  H   H172      1.0  0.20062  0.38922  0.00687  1.0000
  H   H173      1.0  0.35526  0.16507  0.04495  1.0000
  H   H174      1.0  0.33815  0.17388  0.06152  1.0000
  C   C112      1.0  0.47784  0.15633  0.13804  1.0000
  H   H175      1.0  0.19062  0.47096  0.06066  1.0000
  H   H176      1.0  0.37574  0.18138  0.02493  1.0000
  H   H177      1.0  0.38172  0.18902  0.04134  1.0000
  H   H178      1.0  0.35996  0.20360  0.06268  1.0000
  H   H179      1.0  0.35006  0.22018  0.04656  1.0000
  H   H180      1.0  0.32802  0.19560  0.07572  1.0000
  H   H181      1.0  0.32022  0.21545  0.06007  1.0000
  H   H182      1.0  0.37854  0.16513  0.06142  1.0000
  H   H183      1.0  0.36150  0.17581  0.07759  1.0000
  H   H184      1.0  0.37574  0.22004  0.02623  1.0000
  C   C113      1.0  0.05631  0.46731  0.98338  1.0000
  C   C114      1.0  0.13261  0.44648  0.00774  1.0000
  C   C115      1.0  0.38713  0.08332  0.09696  1.0000
  H   H185      1.0  0.24089  0.36677  0.14335  1.0000
  S   S33       1.0  0.47258  0.35716  0.00066  1.0000
  S   S34       1.0  0.47173  0.99437  0.02413  1.0000
  H   H186      1.0  0.33988  0.21375  0.08943  1.0000
  H   H187      1.0  0.33195  0.23355  0.07385  1.0000
  H   H188      1.0  0.31626  0.22152  0.08986  1.0000
  H   H189      1.0  0.36415  0.13897  0.06995  1.0000
  H   H190      1.0  0.36990  0.14356  0.08866  1.0000
  H   H191      1.0  0.34693  0.14959  0.08626  1.0000
  H   H192      1.0  0.23389  0.46850  0.14947  1.0000
  H   H193      1.0  0.13536  0.36557  0.15029  1.0000
  H   H194      1.0  0.46195  0.04698  0.14483  1.0000
  H   H195      1.0  0.29994  0.28428  0.12784  1.0000
  H   H196      1.0  0.15268  0.46174  0.15225  1.0000
  H   H197      1.0  0.47278  0.08529  0.03917  1.0000
  H   H198      1.0  0.11361  0.39016  0.10605  1.0000
  C   C116      1.0  0.26224  0.31824  0.99044  1.0000
  H   H199      1.0  0.05163  0.47827  0.99101  1.0000
  C   C117      1.0  0.39433  0.20611  0.00682  1.0000
  C   C118      1.0  0.46681  0.12090  0.03455  1.0000
  H   H200      1.0  0.47246  0.05964  0.03364  1.0000
  H   H201      1.0  0.30504  0.30563  0.11880  1.0000
  H   H202      1.0  0.28182  0.26758  0.12524  1.0000
  H   H203      1.0  0.07991  0.45395  0.16156  1.0000
  H   H204      1.0  0.19737  0.41757  0.02838  1.0000
  N   N6        1.0  0.43939  0.22790  0.06873  1.0000
  C   C119      1.0  0.44997  0.21700  0.05494  1.0000
  C   C120      1.0  0.42924  0.21644  0.08441  1.0000
  C   C121      1.0  0.42589  0.24266  0.06011  1.0000
  C   C122      1.0  0.45105  0.23660  0.07475  1.0000
  C   C123      1.0  0.46681  0.22412  0.08287  1.0000
  C   C124      1.0  0.46055  0.22718  0.03772  1.0000
  C   C125      1.0  0.41083  0.25304  0.07289  1.0000
  C   C126      1.0  0.43843  0.19660  0.09000  1.0000
  C   C127      1.0  0.42905  0.18818  0.10848  1.0000
  H   H205      1.0  0.34727  0.19453  0.01744  1.0000
  H   H206      1.0  0.24534  0.32162  0.01572  1.0000
  H   H207      1.0  0.47883  0.08868  0.10416  1.0000
  H   H208      1.0  0.44080  0.21081  0.05094  1.0000
  H   H209      1.0  0.45986  0.20559  0.06048  1.0000
  H   H210      1.0  0.42534  0.22272  0.09630  1.0000
  H   H211      1.0  0.41643  0.21570  0.08148  1.0000
  H   H212      1.0  0.41917  0.23724  0.05256  1.0000
  H   H213      1.0  0.43269  0.25281  0.05008  1.0000
  H   H214      1.0  0.45652  0.24680  0.06358  1.0000
  H   H215      1.0  0.44294  0.24421  0.08512  1.0000
  C   C128      1.0  0.48664  0.17555  0.10323  1.0000
  H   H216      1.0  0.46163  0.21625  0.09611  1.0000
  H   H217      1.0  0.45144  0.23795  0.03035  1.0000
  C   C129      1.0  0.32271  0.19231  0.03600  1.0000
  C   C130      1.0  0.17030  0.46073  0.05447  1.0000
  H   H218      1.0  0.40178  0.24432  0.08182  1.0000
  H   H219      1.0  0.43777  0.18888  0.08036  1.0000
  H   H220      1.0  0.45266  0.19493  0.09030  1.0000
  H   H221      1.0  0.43535  0.17383  0.11179  1.0000
  H   H222      1.0  0.43034  0.19473  0.11878  1.0000
  H   H223      1.0  0.41465  0.18932  0.10887  1.0000
  H   H224      1.0  0.35945  0.27623  0.98335  1.0000
  H   H225      1.0  0.40487  0.19978  0.01477  1.0000
  C   C131      1.0  0.21123  0.30164  0.05296  1.0000
  H   H226      1.0  0.08077  0.34309  0.14559  1.0000
  H   H227      1.0  0.19551  0.33243  0.03364  1.0000
  C   C132      1.0  0.47820  0.27734  0.04248  1.0000
  Fe  Fe16      1.0  0.47163  0.32814  0.00703  1.0000
  C   C133      1.0  0.17661  0.40356  0.17620  1.0000
  H   H228      1.0  0.01175  0.44824  0.03836  1.0000
  C   C134      1.0  0.36925  0.09286  0.16684  1.0000
  H   H229      1.0  0.46690  0.13343  0.03835  1.0000
  S   S35       1.0  0.10123  0.37724  0.99621  1.0000
  H   H230      1.0  0.32545  0.17783  0.03598  1.0000
  C   C135      1.0  0.12880  0.47740  0.11921  1.0000
  H   H231      1.0  0.03691  0.43189  0.98652  1.0000
  H   H232      1.0  0.18693  0.36580  0.15924  1.0000
  N   N7        1.0  0.41282  0.04782  0.13124  1.0000
  H   H233      1.0  0.16627  0.33264  0.98625  1.0000
  C   C136      1.0  0.40780  0.06452  0.11764  1.0000
  C   C137      1.0  0.41201  0.03129  0.12561  1.0000
  C   C138      1.0  0.43179  0.04655  0.13283  1.0000
  C   C139      1.0  0.43420  0.05955  0.14331  1.0000
  C   C140      1.0  0.42170  0.01156  0.10266  1.0000
  C   C141      1.0  0.42301  0.02893  0.10682  1.0000
  H   H234      1.0  0.02141  0.46712  0.03663  1.0000
  H   H235      1.0  0.39754  0.21883  0.99830  1.0000
  C   C142      1.0  0.45387  0.06040  0.14042  1.0000
  H   H236      1.0  0.39362  0.26408  0.05340  1.0000
  H   H237      1.0  0.38595  0.05035  0.14737  1.0000
  H   H238      1.0  0.35360  0.33072  0.98787  1.0000
  H   H239      1.0  0.14084  0.41673  0.13542  1.0000
  H   H240      1.0  0.40722  0.07661  0.12261  1.0000
  C   C143      1.0  0.16676  0.29911  0.16956  1.0000
  H   H241      1.0  0.31546  0.19424  0.04952  1.0000
  H   H242      1.0  0.41709  0.01911  0.13511  1.0000
  H   H243      1.0  0.43780  0.03280  0.13918  1.0000
  H   H244      1.0  0.44052  0.04900  0.11932  1.0000
  H   H245      1.0  0.47840  0.22224  0.01286  1.0000
  H   H246      1.0  0.42667  0.07324  0.13916  1.0000
  H   H247      1.0  0.12147  0.31048  0.17476  1.0000
  H   H248      1.0  0.47451  0.14894  0.15157  1.0000
  H   H249      1.0  0.43736  0.02840  0.10597  1.0000
  H   H250      1.0  0.41814  0.04005  0.09631  1.0000
  C   C144      1.0  0.19834  0.40720  0.04075  1.0000
  C   C145      1.0  0.08642  0.32851  0.14799  1.0000
  H   H251      1.0  0.22141  0.30650  0.05682  1.0000
  C   C146      1.0  0.31962  0.24322  0.98058  1.0000
  H   H252      1.0  0.23937  0.42007  0.15189  1.0000
  H   H253      1.0  0.45922  0.06557  0.12611  1.0000
  H   H254      1.0  0.34605  0.02184  0.16992  1.0000
  C   C147      1.0  0.08302  0.46601  0.16391  1.0000
  C   C148      1.0  0.23030  0.42366  0.16422  1.0000
  C   C149      1.0  0.48482  0.09859  0.10704  1.0000
  H   H255      1.0  0.23975  0.36200  0.10670  1.0000
  C   C150      1.0  0.39988  0.04905  0.14879  1.0000
  H   H256      1.0  0.15205  0.43727  0.10857  1.0000
  H   H257      1.0  0.45511  0.06961  0.14830  1.0000
  S   S36       1.0  0.48095  0.32445  0.97876  1.0000
  H   H258      1.0  0.25835  0.35450  0.08988  1.0000
  C   C151      1.0  0.12179  0.45884  0.01797  1.0000
  C   C152      1.0  0.14874  0.41127  0.12352  1.0000
  H   H259      1.0  0.17331  0.41493  0.09226  1.0000
  N   N8        1.0  0.21049  0.33415  0.00655  1.0000
  H   H260      1.0  0.19861  0.31457  0.00168  1.0000
  S   S37       1.0  0.11562  0.47013  0.10890  1.0000
  H   H261      1.0  0.26628  0.41172  0.15809  1.0000
  C   C153      1.0  0.10624  0.43850  0.00419  1.0000
  C   C154      1.0  0.11470  0.44035  0.17363  1.0000
  H   H262      1.0  0.21363  0.28689  0.05737  1.0000
  H   H263      1.0  0.19094  0.40429  0.06908  1.0000
  H   H264      1.0  0.48198  0.26268  0.04339  1.0000
  C   C155      1.0  0.19278  0.33842  0.98182  1.0000
  H   H265      1.0  0.41752  0.02778  0.16457  1.0000
  H   H266      1.0  0.24612  0.34189  0.99905  1.0000
  H   H267      1.0  0.31672  0.20010  0.00931  1.0000
  H   H268      1.0  0.05490  0.47840  0.16325  1.0000
  H   H269      1.0  0.17879  0.30285  0.16083  1.0000
  C   C156      1.0  0.19063  0.36484  0.01142  1.0000
  C   C157      1.0  0.14656  0.47110  0.14185  1.0000
  H   H270      1.0  0.46180  0.20851  0.02120  1.0000
  H   H271      1.0  0.46967  0.16148  0.09680  1.0000
  H   H272      1.0  0.40635  0.98776  0.05334  1.0000
  H   H273      1.0  0.26051  0.32253  0.17174  1.0000
  H   H274      1.0  0.28025  0.30532  0.17500  1.0000
  H   H275      1.0  0.47097  0.24470  0.09431  1.0000
  H   H276      1.0  0.30669  0.21664  0.02298  1.0000
  H   H277      1.0  0.17654  0.39217  0.01175  1.0000
  H   H278      1.0  0.47392  0.10995  0.11044  1.0000
  H   H279      1.0  0.37399  0.08505  0.09342  1.0000
  H   H280      1.0  0.28130  0.32852  0.17082  1.0000
  H   H281      1.0  0.22489  0.44711  0.17666  1.0000
  H   H282      1.0  0.14701  0.44489  0.00493  1.0000
  C   C158      1.0  0.48462  0.10779  0.03595  1.0000
  C   C159      1.0  0.47882  0.23496  0.08586  1.0000
  C   C160      1.0  0.47514  0.16342  0.10717  1.0000
  H   H283      1.0  0.37833  0.06975  0.12370  1.0000
  H   H284      1.0  0.38297  0.98686  0.06019  1.0000
  H   H285      1.0  0.01693  0.45319  0.00392  1.0000
  H   H286      1.0  0.48704  0.04306  0.04662  1.0000
  C   C161      1.0  0.48495  0.09004  0.03076  1.0000
  C   C162      1.0  0.48574  0.05047  0.03294  1.0000
  H   H287      1.0  0.24794  0.44011  0.16663  1.0000
  H   H288      1.0  0.26925  0.38836  0.16883  1.0000
  H   H289      1.0  0.16661  0.19160  0.16985  1.0000
  H   H290      1.0  0.39197  0.26920  0.98323  1.0000
  H   H291      1.0  0.42041  0.37636  0.98898  1.0000
  C   C163      1.0  0.31131  0.27344  0.98550  1.0000
  C   C164      1.0  0.04831  0.43877  0.98371  1.0000
  H   H292      1.0  0.48628  0.10548  0.04987  1.0000
  C   C165      1.0  0.48862  0.28319  0.05297  1.0000
  H   H293      1.0  0.48410  0.04357  0.00854  1.0000
  H   H294      1.0  0.27418  0.31962  0.99451  1.0000
  H   H295      1.0  0.21656  0.42615  0.16161  1.0000
  C   C166      1.0  0.23687  0.36864  0.15735  1.0000
  H   H296      1.0  0.48452  0.14087  0.07387  1.0000
  H   H297      1.0  0.07152  0.47615  0.13187  1.0000
  H   H298      1.0  0.12318  0.45023  0.17057  1.0000
  H   H299      1.0  0.07167  0.40701  0.97720  1.0000
  Fe  Fe17      1.0  0.16223  0.47800  0.17630  1.0000
  H   H300      1.0  0.48357  0.17329  0.06291  1.0000
  C   C167      1.0  0.48796  0.16401  0.05350  1.0000
  C   C168      1.0  0.48902  0.16851  0.13419  1.0000
  H   H301      1.0  0.48996  0.18311  0.08981  1.0000
  H   H302      1.0  0.49016  0.25588  0.01175  1.0000
  H   H303      1.0  0.48931  0.22585  0.09278  1.0000
  C   C169      1.0  0.06822  0.48210  0.15811  1.0000
  C   C170      1.0  0.22974  0.39157  0.17690  1.0000
  C   C171      1.0  0.28372  0.40339  0.17666  1.0000
  Fe  Fe18      1.0  0.21650  0.11584  0.33914  1.0000
  S   S38       1.0  0.20326  0.09397  0.33930  1.0000
  S   S39       1.0  0.23780  0.11323  0.35419  1.0000
  Fe  Fe19      1.0  0.20211  0.14050  0.30733  1.0000
  S   S40       1.0  0.18841  0.12039  0.30391  1.0000
  S   S41       1.0  0.20213  0.16836  0.29085  1.0000
  Fe  Fe20      1.0  0.17973  0.11596  0.33375  1.0000
  S   S42       1.0  0.15077  0.11784  0.34735  1.0000
  Fe  Fe21      1.0  0.21313  0.10011  0.30960  1.0000
  S   S43       1.0  0.22781  0.07674  0.29677  1.0000
  S   S44       1.0  0.19202  0.13728  0.33675  1.0000
  S   S45       1.0  0.22775  0.12063  0.30980  1.0000
  H   H304      1.0  0.18195  0.45286  0.30483  1.0000
  H   H305      1.0  0.09220  0.16834  0.26179  1.0000
  H   H306      1.0  0.06101  0.45195  0.19160  1.0000
  H   H307      1.0  0.15829  0.14197  0.28516  1.0000
  C   C172      1.0  0.13569  0.28929  0.19231  1.0000
  C   C173      1.0  0.34811  0.01826  0.18385  1.0000
  H   H308      1.0  0.01839  0.35429  0.36767  1.0000
  Fe  Fe22      1.0  0.34363  0.03165  0.24773  1.0000
  S   S46       1.0  0.36732  0.03710  0.25449  1.0000
  S   S47       1.0  0.33892  0.00455  0.24841  1.0000
  Fe  Fe23      1.0  0.32368  0.07043  0.24439  1.0000
  S   S48       1.0  0.34581  0.07936  0.25038  1.0000
  S   S49       1.0  0.29827  0.09025  0.24002  1.0000
  Fe  Fe24      1.0  0.36389  0.06144  0.23225  1.0000
  S   S50       1.0  0.38818  0.06918  0.21233  1.0000
  Fe  Fe25      1.0  0.34725  0.05462  0.27187  1.0000
  S   S51       1.0  0.34342  0.05407  0.30122  1.0000
  S   S52       1.0  0.34155  0.05459  0.22435  1.0000
  S   S53       1.0  0.32385  0.04697  0.26700  1.0000
  H   H309      1.0  0.01111  0.25369  0.34464  1.0000
  H   H310      1.0  0.00915  0.08233  0.36709  1.0000
  S   S54       1.0  0.40912  0.04508  0.33642  1.0000
  H   H311      1.0  0.12036  0.44696  0.22394  1.0000
  H   H312      1.0  0.13657  0.40876  0.24141  1.0000
  C   C174      1.0  0.01410  0.38679  0.33063  1.0000
  Fe  Fe26      1.0  0.09538  0.38224  0.31632  1.0000
  S   S55       1.0  0.08380  0.39247  0.34172  1.0000
  S   S56       1.0  0.11708  0.35762  0.31333  1.0000
  Fe  Fe27      1.0  0.07169  0.41209  0.29509  1.0000
  S   S57       1.0  0.05736  0.42471  0.31864  1.0000
  S   S58       1.0  0.07119  0.42205  0.26593  1.0000
  Fe  Fe28      1.0  0.08476  0.41997  0.32481  1.0000
  S   S59       1.0  0.09589  0.44314  0.32665  1.0000
  Fe  Fe29      1.0  0.05736  0.39631  0.33377  1.0000
  S   S60       1.0  0.03544  0.38438  0.35414  1.0000
  S   S61       1.0  0.09882  0.40913  0.30018  1.0000
  S   S62       1.0  0.06901  0.38434  0.30960  1.0000
  Fe  Fe30      1.0  0.09278  0.25886  0.25512  1.0000
  S   S63       1.0  0.09416  0.26400  0.28112  1.0000
  S   S64       1.0  0.06640  0.25619  0.25120  1.0000
  Fe  Fe31      1.0  0.13141  0.26308  0.23826  1.0000
  S   S65       1.0  0.13576  0.26853  0.26317  1.0000
  S   S66       1.0  0.15429  0.26195  0.21425  1.0000
  Fe  Fe32      1.0  0.12143  0.24599  0.27728  1.0000
  S   S67       1.0  0.12750  0.22290  0.29999  1.0000
  Fe  Fe33      1.0  0.10814  0.28596  0.26460  1.0000
  S   S68       1.0  0.09734  0.31499  0.26615  1.0000
  S   S69       1.0  0.11896  0.23938  0.25229  1.0000
  S   S70       1.0  0.10495  0.28196  0.23867  1.0000
  H   H313      1.0  0.07607  0.08756  0.31966  1.0000
  H   H314      1.0  0.16510  0.40189  0.31925  1.0000
  H   H315      1.0  0.07873  0.11060  0.33417  1.0000
  H   H316      1.0  0.25057  0.41744  0.19074  1.0000
  H   H317      1.0  0.37927  0.04357  0.18257  1.0000
  H   H318      1.0  0.20183  0.14702  0.26539  1.0000
  H   H319      1.0  0.14687  0.46285  0.28941  1.0000
  S   S71       1.0  0.99872  0.16163  0.30557  1.0000
  H   H320      1.0  0.20528  0.14621  0.24227  1.0000
  C   C175      1.0  0.03976  0.38367  0.27920  1.0000
  C   C176      1.0  0.02602  0.21100  0.35016  1.0000
  Fe  Fe34      1.0  0.01085  0.18590  0.29482  1.0000
  S   S72       1.0  0.04089  0.18347  0.28832  1.0000
  S   S73       1.0  0.99589  0.19880  0.31781  1.0000
  H   H321      1.0  0.21933  0.42588  0.19927  1.0000
  C   C177      1.0  0.18038  0.48130  0.34373  1.0000
  C   C178      1.0  0.03064  0.14384  0.35066  1.0000
  C   C179      1.0  0.40060  0.08793  0.17914  1.0000
  C   C180      1.0  0.05969  0.23574  0.26106  1.0000
  C   C181      1.0  0.07192  0.22039  0.26682  1.0000
  C   C182      1.0  0.06612  0.20428  0.27490  1.0000
  C   C183      1.0  0.04802  0.20357  0.27757  1.0000
  C   C184      1.0  0.03583  0.21894  0.27181  1.0000
  C   C185      1.0  0.04172  0.23490  0.26333  1.0000
  H   H322      1.0  0.08578  0.22098  0.26512  1.0000
  H   H323      1.0  0.07557  0.19250  0.27942  1.0000
  H   H324      1.0  0.02187  0.21851  0.27374  1.0000
  H   H325      1.0  0.03229  0.24666  0.25860  1.0000
  C   C186      1.0  0.11281  0.34557  0.29956  1.0000
  C   C187      1.0  0.11994  0.32720  0.30104  1.0000
  C   C188      1.0  0.11560  0.31749  0.29069  1.0000
  C   C189      1.0  0.10412  0.32622  0.27889  1.0000
  C   C190      1.0  0.09734  0.34460  0.27721  1.0000
  C   C191      1.0  0.10182  0.35425  0.28733  1.0000
  H   H326      1.0  0.12852  0.32042  0.31045  1.0000
  H   H327      1.0  0.12090  0.30329  0.29204  1.0000
  H   H328      1.0  0.08858  0.35144  0.26800  1.0000
  H   H329      1.0  0.09687  0.36849  0.28554  1.0000
  C   C192      1.0  0.08400  0.45064  0.26701  1.0000
  C   C193      1.0  0.08535  0.43744  0.25766  1.0000
  C   C194      1.0  0.09836  0.43630  0.24197  1.0000
  H   H330      1.0  0.07409  0.45148  0.27924  1.0000
  H   H331      1.0  0.09972  0.42582  0.23497  1.0000
  C   C195      1.0  0.15245  0.27989  0.19578  1.0000
  H   H332      1.0  0.36745  0.00914  0.33816  1.0000
  H   H333      1.0  0.08063  0.31317  0.21322  1.0000
  S   S74       1.0  0.16797  0.44642  0.22109  1.0000
  H   H334      1.0  0.38675  0.02003  0.31539  1.0000
  C   C196      1.0  0.37966  0.98931  0.20888  1.0000
  C   C197      1.0  0.13872  0.33253  0.20954  1.0000
  C   C198      1.0  0.13315  0.44315  0.28637  1.0000
  H   H335      1.0  0.12367  0.28538  0.20085  1.0000
  C   C199      1.0  0.28041  0.08472  0.20643  1.0000
  H   H336      1.0  0.28910  0.09870  0.32170  1.0000
  C   C200      1.0  0.00430  0.03362  0.36126  1.0000
  C   C201      1.0  0.09984  0.44765  0.34590  1.0000
  C   C202      1.0  0.09833  0.43558  0.36228  1.0000
  H   H337      1.0  0.21377  0.38703  0.21116  1.0000
  H   H338      1.0  0.10877  0.11645  0.30121  1.0000
  S   S75       1.0  0.99083  0.19958  0.27732  1.0000
  C   C203      1.0  0.15159  0.40050  0.31883  1.0000
  H   H339      1.0  0.03895  0.26020  0.30397  1.0000
  C   C204      1.0  0.01326  0.36222  0.35608  1.0000
  C   C205      1.0  0.02024  0.37718  0.34611  1.0000
  H   H340      1.0  0.37974  0.99614  0.29422  1.0000
  C   C206      1.0  0.36143  0.05440  0.31028  1.0000
  C   C207      1.0  0.35910  0.05124  0.32887  1.0000
  C   C208      1.0  0.37366  0.04880  0.33685  1.0000
  C   C209      1.0  0.39058  0.05021  0.32627  1.0000
  C   C210      1.0  0.39272  0.05465  0.30762  1.0000
  C   C211      1.0  0.37819  0.05650  0.29959  1.0000
  H   H341      1.0  0.34615  0.04988  0.33720  1.0000
  H   H342      1.0  0.37183  0.04559  0.35122  1.0000
  H   H343      1.0  0.40580  0.05578  0.29939  1.0000
  H   H344      1.0  0.38006  0.05909  0.28522  1.0000
  H   H345      1.0  0.33796  0.00921  0.30983  1.0000
  C   C212      1.0  0.39090  0.00847  0.30882  1.0000
  H   H346      1.0  0.23792  0.22869  0.30771  1.0000
  H   H347      1.0  0.35434  0.99636  0.28483  1.0000
  C   C213      1.0  0.36828  0.99905  0.22145  1.0000
  H   H348      1.0  0.10170  0.33170  0.19393  1.0000
  C   C214      1.0  0.99838  0.14908  0.35996  1.0000
  C   C215      1.0  0.13448  0.30346  0.17749  1.0000
  H   H349      1.0  0.37194  0.01042  0.22372  1.0000
  H   H350      1.0  0.14283  0.20999  0.24218  1.0000
  H   H351      1.0  0.11433  0.11477  0.35716  1.0000
  C   C216      1.0  0.02922  0.04659  0.34289  1.0000
  C   C217      1.0  0.02478  0.04433  0.32761  1.0000
  C   C218      1.0  0.01016  0.03663  0.32910  1.0000
  H   H352      1.0  0.07337  0.15302  0.30247  1.0000
  H   H353      1.0  0.32212  0.99474  0.29314  1.0000
  H   H354      1.0  0.04061  0.05237  0.34160  1.0000
  H   H355      1.0  0.03281  0.04840  0.31457  1.0000
  H   H356      1.0  0.01226  0.08443  0.33736  1.0000
  H   H357      1.0  0.14473  0.16071  0.29450  1.0000
  H   H358      1.0  0.20048  0.39586  0.24030  1.0000
  H   H359      1.0  0.17410  0.42608  0.25928  1.0000
  H   H360      1.0  0.20378  0.45377  0.33128  1.0000
  C   C219      1.0  0.17278  0.43593  0.26750  1.0000
  H   H361      1.0  0.19163  0.48011  0.28818  1.0000
  H   H362      1.0  0.99125  0.08229  0.31384  1.0000
  H   H363      1.0  0.09539  0.16576  0.33487  1.0000
  H   H364      1.0  0.01261  0.16274  0.33545  1.0000
  H   H365      1.0  0.28887  0.00069  0.21911  1.0000
  C   C220      1.0  0.27868  0.08629  0.25569  1.0000
  C   C221      1.0  0.27711  0.06903  0.26508  1.0000
  C   C222      1.0  0.26137  0.06615  0.27754  1.0000
  C   C223      1.0  0.24729  0.08058  0.28093  1.0000
  C   C224      1.0  0.24882  0.09784  0.27150  1.0000
  C   C225      1.0  0.26438  0.10064  0.25869  1.0000
  H   H366      1.0  0.28787  0.05789  0.26249  1.0000
  H   H367      1.0  0.26015  0.05276  0.28467  1.0000
  H   H368      1.0  0.23789  0.10900  0.27385  1.0000
  H   H369      1.0  0.26546  0.11399  0.25133  1.0000
  C   C226      1.0  0.18151  0.18362  0.29398  1.0000
  C   C227      1.0  0.18007  0.20117  0.28409  1.0000
  C   C228      1.0  0.16348  0.21327  0.28552  1.0000
  C   C229      1.0  0.14842  0.20803  0.29745  1.0000
  C   C230      1.0  0.15002  0.19065  0.30781  1.0000
  C   C231      1.0  0.16646  0.17840  0.30593  1.0000
  H   H370      1.0  0.19181  0.20539  0.27522  1.0000
  H   H371      1.0  0.16242  0.22674  0.27770  1.0000
  H   H372      1.0  0.13843  0.18657  0.31716  1.0000
  H   H373      1.0  0.16746  0.16492  0.31372  1.0000
  C   C232      1.0  0.14079  0.10034  0.34774  1.0000
  C   C233      1.0  0.15095  0.08432  0.34303  1.0000
  C   C234      1.0  0.14253  0.07012  0.34485  1.0000
  C   C235      1.0  0.12398  0.07202  0.35119  1.0000
  H   H374      1.0  0.24631  0.46264  0.21524  1.0000
  C   C236      1.0  0.10151  0.32810  0.20842  1.0000
  H   H375      1.0  0.16531  0.08268  0.33847  1.0000
  H   H376      1.0  0.15044  0.05753  0.34175  1.0000
  H   H377      1.0  0.18480  0.20488  0.24835  1.0000
  C   C237      1.0  0.10495  0.46377  0.34452  1.0000
  H   H378      1.0  0.29108  0.00524  0.19532  1.0000
  C   C238      1.0  0.34569  0.99534  0.31355  1.0000
  C   C239      1.0  0.11003  0.44829  0.23571  1.0000
  C   C240      1.0  0.38597  0.08131  0.19066  1.0000
  C   C241      1.0  0.37025  0.08383  0.18445  1.0000
  H   H379      1.0  0.35889  0.07880  0.19320  1.0000
  Fe  Fe35      1.0  0.18595  0.46446  0.20349  1.0000
  C   C242      1.0  0.02457  0.27839  0.35261  1.0000
  H   H380      1.0  0.28546  0.39376  0.18935  1.0000
  H   H381      1.0  0.02885  0.38638  0.27180  1.0000
  H   H382      1.0  0.09945  0.09042  0.35873  1.0000
  Fe  Fe36      1.0  0.16633  0.43951  0.19598  1.0000
  C   C243      1.0  0.09749  0.44519  0.18764  1.0000
  H   H383      1.0  0.07332  0.12029  0.31260  1.0000
  N   N9        1.0  0.36187  0.99575  0.32010  1.0000
  H   H384      1.0  0.03439  0.38885  0.29171  1.0000
  C   C244      1.0  0.08285  0.16329  0.33299  1.0000
  C   C245      1.0  0.19147  0.43948  0.26514  1.0000
  H   H385      1.0  0.07862  0.17314  0.32131  1.0000
  H   H386      1.0  0.16790  0.31026  0.22256  1.0000
  H   H387      1.0  0.07229  0.14115  0.33197  1.0000
  C   C246      1.0  0.02602  0.25057  0.34155  1.0000
  H   H388      1.0  0.99528  0.27955  0.29006  1.0000
  H   H389      1.0  0.13863  0.32230  0.20226  1.0000
  H   H390      1.0  0.16751  0.22386  0.24294  1.0000
  H   H391      1.0  0.05880  0.36193  0.29026  1.0000
  C   C247      1.0  0.08576  0.14388  0.33039  1.0000
  H   H392      1.0  0.23476  0.07014  0.35109  1.0000
  H   H393      1.0  0.12912  0.39092  0.33809  1.0000
  H   H394      1.0  0.00642  0.10054  0.31861  1.0000
  H   H395      1.0  0.35023  0.98992  0.35980  1.0000
  C   C248      1.0  0.06691  0.46173  0.19497  1.0000
  C   C249      1.0  0.06195  0.21818  0.31503  1.0000
  H   H396      1.0  0.44084  0.08791  0.34991  1.0000
  C   C250      1.0  0.28331  0.09505  0.29811  1.0000
  H   H397      1.0  0.08831  0.20352  0.30471  1.0000
  C   C251      1.0  0.05301  0.23282  0.32615  1.0000
  C   C252      1.0  0.08404  0.11184  0.31958  1.0000
  H   H398      1.0  0.21927  0.18795  0.36977  1.0000
  H   H399      1.0  0.17079  0.47389  0.35398  1.0000
  H   H400      1.0  0.08779  0.22605  0.30569  1.0000
  H   H401      1.0  0.29831  0.00393  0.26272  1.0000
  C   C253      1.0  0.16506  0.42843  0.28725  1.0000
  H   H402      1.0  0.03382  0.24170  0.29937  1.0000
  H   H403      1.0  0.16625  0.43708  0.29571  1.0000
  C   C254      1.0  0.40076  0.08944  0.36172  1.0000
  H   H404      1.0  0.17189  0.16651  0.35800  1.0000
  H   H405      1.0  0.33144  0.99712  0.34875  1.0000
  H   H406      1.0  0.24435  0.07376  0.36798  1.0000
  H   H407      1.0  0.04053  0.44919  0.22309  1.0000
  C   C255      1.0  0.28286  0.00937  0.20783  1.0000
  H   H408      1.0  0.14137  0.42825  0.31882  1.0000
  H   H409      1.0  0.04033  0.20608  0.35081  1.0000
  H   H410      1.0  0.07358  0.46472  0.21939  1.0000
  H   H411      1.0  0.26998  0.09290  0.21512  1.0000
  H   H412      1.0  0.15322  0.39027  0.31094  1.0000
  C   C256      1.0  0.16798  0.28474  0.18426  1.0000
  H   H413      1.0  0.11839  0.41142  0.18276  1.0000
  H   H414      1.0  0.18098  0.27744  0.18681  1.0000
  H   H415      1.0  0.15218  0.29659  0.22414  1.0000
  C   C257      1.0  0.46700  0.10058  0.35826  1.0000
  C   C258      1.0  0.04776  0.45782  0.22641  1.0000
  H   H416      1.0  0.04322  0.11562  0.32846  1.0000
  H   H417      1.0  0.41279  0.08605  0.18385  1.0000
  H   H418      1.0  0.16411  0.44860  0.26226  1.0000
  H   H419      1.0  0.18495  0.14130  0.25768  1.0000
  H   H420      1.0  0.01512  0.98856  0.23778  1.0000
  H   H421      1.0  0.19675  0.17728  0.24727  1.0000
  H   H422      1.0  0.15175  0.33669  0.20344  1.0000
  H   H423      1.0  0.45479  0.05605  0.35104  1.0000
  C   C259      1.0  0.11961  0.37914  0.24005  1.0000
  H   H424      1.0  0.00086  0.04974  0.24867  1.0000
  H   H425      1.0  0.07237  0.33633  0.21465  1.0000
  C   C260      1.0  0.03281  0.26820  0.33748  1.0000
  H   H426      1.0  0.99433  0.34590  0.35906  1.0000
  C   C261      1.0  0.35249  0.99372  0.23140  1.0000
  H   H427      1.0  0.12717  0.31878  0.23638  1.0000
  C   C262      1.0  0.14239  0.39342  0.33792  1.0000
  H   H428      1.0  0.33625  0.98839  0.32427  1.0000
  H   H429      1.0  0.20835  0.20217  0.34355  1.0000
  C   C263      1.0  0.10831  0.46794  0.35944  1.0000
  C   C264      1.0  0.22696  0.22129  0.31411  1.0000
  C   C265      1.0  0.11485  0.36462  0.23378  1.0000
  H   H430      1.0  0.08550  0.13158  0.28353  1.0000
  H   H431      1.0  0.30992  0.05666  0.20647  1.0000
  H   H432      1.0  0.13397  0.39334  0.26269  1.0000
  H   H433      1.0  0.04757  0.26543  0.33595  1.0000
  H   H434      1.0  0.39889  0.02427  0.28227  1.0000
  H   H435      1.0  0.11143  0.31557  0.21135  1.0000
  C   C266      1.0  0.26415  0.00593  0.21011  1.0000
  C   C267      1.0  0.08556  0.15677  0.26538  1.0000
  S   S76       1.0  0.21226  0.46143  0.21112  1.0000
  H   H436      1.0  0.26890  0.06162  0.21641  1.0000
  H   H437      1.0  0.46687  0.10427  0.34378  1.0000
  C   C268      1.0  0.29743  0.02426  0.31260  1.0000
  C   C269      1.0  0.02344  0.22424  0.33233  1.0000
  H   H438      1.0  0.29750  0.05823  0.19010  1.0000
  C   C270      1.0  0.31468  0.02509  0.19651  1.0000
  H   H439      1.0  0.20926  0.48110  0.31251  1.0000
  C   C271      1.0  0.21767  0.41382  0.19568  1.0000
  H   H440      1.0  0.00877  0.22938  0.33368  1.0000
  H   H441      1.0  0.02976  0.24276  0.35436  1.0000
  H   H442      1.0  0.14606  0.20567  0.21336  1.0000
  C   C272      1.0  0.09230  0.14291  0.28084  1.0000
  C   C273      1.0  0.19047  0.45707  0.32763  1.0000
  H   H443      1.0  0.00166  0.33938  0.30087  1.0000
  H   H444      1.0  0.10360  0.33878  0.22976  1.0000
  H   H445      1.0  0.09446  0.42312  0.36349  1.0000
  H   H446      1.0  0.07084  0.16151  0.26897  1.0000
  H   H447      1.0  0.40023  0.04664  0.18537  1.0000
  H   H448      1.0  0.19562  0.23313  0.23943  1.0000
  H   H449      1.0  0.08624  0.20905  0.32596  1.0000
  H   H450      1.0  0.30763  0.08632  0.30857  1.0000
  S   S77       1.0  0.12294  0.47685  0.23742  1.0000
  C   C274      1.0  0.11950  0.47534  0.28899  1.0000
  H   H451      1.0  0.26511  0.99164  0.21032  1.0000
  H   H452      1.0  0.28438  0.06339  0.22879  1.0000
  H   H453      1.0  0.21289  0.15175  0.35856  1.0000
  N   N10       1.0  0.28896  0.07051  0.32621  1.0000
  H   H454      1.0  0.24691  0.15205  0.37164  1.0000
  H   H455      1.0  0.99115  0.99439  0.24402  1.0000
  N   N11       1.0  0.14614  0.42576  0.29115  1.0000
  S   S78       1.0  0.11365  0.05372  0.35531  1.0000
  H   H456      1.0  0.30400  0.10861  0.28031  1.0000
  C   C275      1.0  0.40493  0.01297  0.29199  1.0000
  H   H457      1.0  0.00196  0.30098  0.32256  1.0000
  H   H458      1.0  0.13079  0.18257  0.24439  1.0000
  H   H459      1.0  0.30011  0.05176  0.34798  1.0000
  H   H460      1.0  0.10591  0.47226  0.29404  1.0000
  H   H461      1.0  0.34572  0.02123  0.36406  1.0000
  C   C276      1.0  0.26303  0.05806  0.34948  1.0000
  H   H462      1.0  0.20730  0.21838  0.22429  1.0000
  H   H463      1.0  0.11571  0.20224  0.26565  1.0000
  C   C277      1.0  0.19503  0.14983  0.25402  1.0000
  H   H464      1.0  0.11660  0.39229  0.23098  1.0000
  H   H465      1.0  0.02924  0.27713  0.32510  1.0000
  H   H466      1.0  0.30419  0.05920  0.30321  1.0000
  H   H467      1.0  0.47541  0.03490  0.36986  1.0000
  H   H468      1.0  0.31275  0.03415  0.32532  1.0000
  H   H469      1.0  0.12684  0.14707  0.28268  1.0000
  H   H470      1.0  0.15576  0.30080  0.24404  1.0000
  H   H471      1.0  0.25781  0.01419  0.19886  1.0000
  H   H472      1.0  0.05517  0.16674  0.34765  1.0000
  H   H473      1.0  0.07154  0.15629  0.36148  1.0000
  H   H474      1.0  0.06826  0.17992  0.35212  1.0000
  H   H475      1.0  0.20244  0.41863  0.23030  1.0000
  H   H476      1.0  0.28126  0.05807  0.30874  1.0000
  H   H477      1.0  0.20439  0.41747  0.19178  1.0000
  H   H478      1.0  0.28625  0.08511  0.28961  1.0000
  C   C278      1.0  0.06858  0.16669  0.34959  1.0000
  H   H479      1.0  0.19671  0.44456  0.25078  1.0000
  H   H480      1.0  0.17634  0.17243  0.26244  1.0000
  C   C279      1.0  0.28230  0.02938  0.20665  1.0000
  N   N12       1.0  0.12341  0.34825  0.20693  1.0000
  C   C280      1.0  0.19383  0.44906  0.31093  1.0000
  H   H481      1.0  0.02721  0.21665  0.32140  1.0000
  H   H482      1.0  0.25160  0.39421  0.19677  1.0000
  C   C281      1.0  0.29292  0.08781  0.31411  1.0000
  H   H483      1.0  0.22199  0.21844  0.30343  1.0000
  H   H484      1.0  0.30638  0.02656  0.29930  1.0000
  H   H485      1.0  0.27190  0.05218  0.35919  1.0000
  H   H486      1.0  0.28692  0.12232  0.29411  1.0000
  H   H487      1.0  0.24524  0.19615  0.31795  1.0000
  H   H488      1.0  0.09392  0.47331  0.26762  1.0000
  C   C282      1.0  0.29295  0.05672  0.31478  1.0000
  H   H489      1.0  0.41081  0.00117  0.28573  1.0000
  H   H490      1.0  0.05886  0.22270  0.30160  1.0000
  C   C283      1.0  0.28949  0.11181  0.28630  1.0000
  H   H491      1.0  0.11197  0.48050  0.35829  1.0000
  N   N13       1.0  0.29895  0.03336  0.20944  1.0000
  C   C284      1.0  0.10542  0.34319  0.21506  1.0000
  H   H492      1.0  0.04029  0.47188  0.22412  1.0000
  H   H493      1.0  0.39208  0.99322  0.20146  1.0000
  C   C285      1.0  0.30210  0.02577  0.22822  1.0000
  C   C286      1.0  0.28532  0.02508  0.24362  1.0000
  H   H494      1.0  0.20083  0.42699  0.26971  1.0000
  C   C287      1.0  0.33311  0.02915  0.19564  1.0000
  C   C288      1.0  0.29064  0.01792  0.26178  1.0000
  C   C289      1.0  0.23776  0.47551  0.21657  1.0000
  H   H495      1.0  0.00026  0.07146  0.25219  1.0000
  C   C290      1.0  0.34284  0.00123  0.35113  1.0000
  C   C291      1.0  0.39322  0.98734  0.25605  1.0000
  H   H496      1.0  0.20336  0.16666  0.34108  1.0000
  H   H497      1.0  0.31658  0.01027  0.19993  1.0000
  H   H498      1.0  0.30992  0.01177  0.22933  1.0000
  H   H499      1.0  0.31065  0.03325  0.23138  1.0000
  H   H500      1.0  0.27734  0.01601  0.24235  1.0000
  H   H501      1.0  0.27644  0.03836  0.24385  1.0000
  H   H502      1.0  0.29329  0.08889  0.20449  1.0000
  C   C292      1.0  0.23997  0.16378  0.33720  1.0000
  H   H503      1.0  0.33618  0.02586  0.20913  1.0000
  C   C293      1.0  0.00057  0.38178  0.32556  1.0000
  C   C294      1.0  0.01625  0.11093  0.33591  1.0000
  H   H504      1.0  0.33340  0.04342  0.18977  1.0000
  H   H505      1.0  0.29899  0.02619  0.26387  1.0000
  H   H506      1.0  0.27844  0.01822  0.27256  1.0000
  C   C295      1.0  0.24429  0.06398  0.36016  1.0000
  C   C296      1.0  0.21889  0.19335  0.33558  1.0000
  C   C297      1.0  0.16857  0.19130  0.19675  1.0000
  H   H507      1.0  0.19102  0.44968  0.27264  1.0000
  H   H508      1.0  0.27029  0.03440  0.21627  1.0000
  H   H509      1.0  0.24277  0.15010  0.34546  1.0000
  H   H510      1.0  0.07375  0.44210  0.21879  1.0000
  C   C298      1.0  0.08229  0.21396  0.31279  1.0000
  H   H511      1.0  0.18816  0.17177  0.22229  1.0000
  H   H512      1.0  0.00182  0.25076  0.31066  1.0000
  H   H513      1.0  0.00487  0.26890  0.31859  1.0000
  H   H514      1.0  0.05717  0.20558  0.32142  1.0000
  H   H515      1.0  0.26077  0.07727  0.32526  1.0000
  H   H516      1.0  0.99562  0.38944  0.31376  1.0000
  H   H517      1.0  0.01938  0.39838  0.32288  1.0000
  H   H518      1.0  0.38343  0.07628  0.35436  1.0000
  C   C299      1.0  0.10845  0.46171  0.24491  1.0000
  C   C300      1.0  0.01905  0.04111  0.35978  1.0000
  C   C301      1.0  0.15486  0.30675  0.22991  1.0000
  H   H519      1.0  0.06014  0.24406  0.32008  1.0000
  H   H520      1.0  0.05626  0.22763  0.33964  1.0000
  C   C302      1.0  0.08294  0.32437  0.21779  1.0000
  H   H521      1.0  0.14879  0.18199  0.21890  1.0000
  C   C303      1.0  0.00941  0.27267  0.29028  1.0000
  C   C304      1.0  0.30118  0.06503  0.33941  1.0000
  H   H522      1.0  0.12939  0.42210  0.19324  1.0000
  H   H523      1.0  0.23564  0.37982  0.18634  1.0000
  C   C305      1.0  0.26945  0.07380  0.33523  1.0000
  C   C306      1.0  0.09531  0.46294  0.26047  1.0000
  N   N14       1.0  0.03310  0.23951  0.32736  1.0000
  S   S79       1.0  0.06237  0.07406  0.35914  1.0000
  H   H524      1.0  0.16917  0.16363  0.23575  1.0000
  H   H525      1.0  0.39883  0.08636  0.33570  1.0000
  C   C307      1.0  0.01049  0.26044  0.30850  1.0000
  H   H526      1.0  0.37946  0.10017  0.34679  1.0000
  C   C308      1.0  0.21621  0.39944  0.21326  1.0000
  H   H527      1.0  0.28428  0.07982  0.36008  1.0000
  H   H528      1.0  0.17650  0.20192  0.19166  1.0000
  H   H529      1.0  0.31541  0.06346  0.33212  1.0000
  H   H530      1.0  0.29031  0.03325  0.33717  1.0000
  C   C309      1.0  0.12430  0.18916  0.27000  1.0000
  C   C310      1.0  0.12224  0.10238  0.35359  1.0000
  H   H531      1.0  0.26230  0.04762  0.34281  1.0000
  C   C311      1.0  0.20078  0.40608  0.22772  1.0000
  H   H532      1.0  0.20159  0.42323  0.30334  1.0000
  H   H533      1.0  0.37946  0.99515  0.25974  1.0000
  N   N15       1.0  0.03994  0.33328  0.30088  1.0000
  C   C312      1.0  0.04665  0.32501  0.28462  1.0000
  C   C313      1.0  0.03333  0.35306  0.29492  1.0000
  C   C314      1.0  0.05511  0.32951  0.31051  1.0000
  C   C315      1.0  0.02462  0.32561  0.31352  1.0000
  C   C316      1.0  0.00895  0.32551  0.30510  1.0000
  C   C317      1.0  0.05143  0.30429  0.28828  1.0000
  C   C318      1.0  0.05140  0.33902  0.32634  1.0000
  C   C319      1.0  0.04775  0.36369  0.28335  1.0000
  H   H534      1.0  0.36708  0.01753  0.29765  1.0000
  C   C320      1.0  0.05491  0.29744  0.27111  1.0000
  C   C321      1.0  0.06793  0.33497  0.33446  1.0000
  H   H535      1.0  0.05902  0.32951  0.27640  1.0000
  H   H536      1.0  0.03688  0.32984  0.27564  1.0000
  H   H537      1.0  0.02287  0.35555  0.28699  1.0000
  H   H538      1.0  0.02644  0.35930  0.30660  1.0000
  H   H539      1.0  0.06745  0.33287  0.30108  1.0000
  H   H540      1.0  0.05889  0.31495  0.31593  1.0000
  H   H541      1.0  0.02952  0.31181  0.32057  1.0000
  H   H542      1.0  0.01856  0.33327  0.32436  1.0000
  H   H543      1.0  0.01356  0.31912  0.29337  1.0000
  H   H544      1.0  0.21517  0.39139  0.17977  1.0000
  H   H545      1.0  0.06370  0.29928  0.29398  1.0000
  H   H546      1.0  0.04053  0.29826  0.29766  1.0000
  H   H547      1.0  0.04035  0.33452  0.33703  1.0000
  H   H548      1.0  0.04774  0.35372  0.32207  1.0000
  H   H549      1.0  0.05347  0.35932  0.27047  1.0000
  H   H550      1.0  0.05034  0.39096  0.27089  1.0000
  C   C322      1.0  0.33490  0.01625  0.36148  1.0000
  H   H551      1.0  0.04229  0.14670  0.34075  1.0000
  H   H552      1.0  0.23930  0.20743  0.33632  1.0000
  H   H553      1.0  0.04301  0.30215  0.26485  1.0000
  H   H554      1.0  0.06663  0.30192  0.26147  1.0000
  H   H555      1.0  0.05773  0.28264  0.27421  1.0000
  H   H556      1.0  0.07200  0.32041  0.33959  1.0000
  H   H557      1.0  0.07925  0.33977  0.32438  1.0000
  H   H558      1.0  0.06489  0.34199  0.34569  1.0000
  N   N16       1.0  0.18265  0.47682  0.32574  1.0000
  H   H559      1.0  0.17013  0.21827  0.21410  1.0000
  C   C323      1.0  0.14518  0.41186  0.28153  1.0000
  C   C324      1.0  0.25010  0.40582  0.18549  1.0000
  H   H560      1.0  0.18993  0.20141  0.21520  1.0000
  C   C325      1.0  0.22982  0.17808  0.36304  1.0000
  H   H561      1.0  0.28205  0.11712  0.27529  1.0000
  C   C326      1.0  0.43963  0.08692  0.36444  1.0000
  C   C327      1.0  0.13919  0.41872  0.26338  1.0000
  C   C328      1.0  0.14162  0.40346  0.25399  1.0000
  H   H562      1.0  0.39102  0.09147  0.37426  1.0000
  N   N17       1.0  0.22436  0.17536  0.34720  1.0000
  H   H563      1.0  0.30128  0.09095  0.34496  1.0000
  H   H564      1.0  0.11918  0.44083  0.29037  1.0000
  H   H565      1.0  0.13522  0.44834  0.27177  1.0000
  H   H566      1.0  0.15826  0.40228  0.27948  1.0000
  H   H567      1.0  0.13568  0.40328  0.28984  1.0000
  N   N18       1.0  0.23236  0.40864  0.18024  1.0000
  H   H568      1.0  0.26598  0.08574  0.34132  1.0000
  H   H569      1.0  0.11555  0.17934  0.27594  1.0000
  H   H570      1.0  0.15688  0.19737  0.25700  1.0000
  H   H571      1.0  0.02447  0.18759  0.34147  1.0000
  H   H572      1.0  0.01036  0.12514  0.33120  1.0000
  H   H573      1.0  0.09125  0.13472  0.34187  1.0000
  H   H574      1.0  0.01682  0.10889  0.35013  1.0000
  H   H575      1.0  0.18996  0.23732  0.21792  1.0000
  H   H576      1.0  0.09850  0.08413  0.32304  1.0000
  H   H577      1.0  0.12474  0.42514  0.26567  1.0000
  H   H578      1.0  0.14678  0.42857  0.25422  1.0000
  H   H579      1.0  0.15600  0.39707  0.25064  1.0000
  H   H580      1.0  0.26859  0.09867  0.30277  1.0000
  S   S80       1.0  0.00534  0.03358  0.30961  1.0000
  H   H581      1.0  0.39733  0.99708  0.31801  1.0000
  N   N19       1.0  0.09753  0.13995  0.31291  1.0000
  C   C329      1.0  0.00528  0.09850  0.33326  1.0000
  C   C330      1.0  0.28197  0.06495  0.21526  1.0000
  C   C331      1.0  0.17700  0.16459  0.37033  1.0000
  C   C332      1.0  0.19249  0.17417  0.36653  1.0000
  H   H582      1.0  0.14501  0.37085  0.18338  1.0000
  H   H583      1.0  0.30159  0.01020  0.31940  1.0000
  H   H584      1.0  0.99634  0.02940  0.37429  1.0000
  H   H585      1.0  0.11800  0.35188  0.24326  1.0000
  H   H586      1.0  0.21053  0.42402  0.32179  1.0000
  C   C333      1.0  0.03002  0.25039  0.30932  1.0000
  H   H587      1.0  0.18741  0.18851  0.36140  1.0000
  C   C334      1.0  0.23763  0.16139  0.31917  1.0000
  Fe  Fe37      1.0  0.40331  0.02647  0.36293  1.0000
  H   H588      1.0  0.22856  0.39614  0.21864  1.0000
  C   C335      1.0  0.25448  0.14985  0.31013  1.0000
  C   C336      1.0  0.37441  0.00458  0.30443  1.0000
  C   C337      1.0  0.99972  0.35729  0.35109  1.0000
  H   H589      1.0  0.21250  0.19205  0.32509  1.0000
  S   S81       1.0  0.16714  0.41074  0.19644  1.0000
  H   H590      1.0  0.28346  0.02633  0.31087  1.0000
  H   H591      1.0  0.20536  0.45358  0.30095  1.0000
  H   H592      1.0  0.15608  0.47122  0.33132  1.0000
  H   H593      1.0  0.23504  0.17433  0.30975  1.0000
  H   H594      1.0  0.22630  0.15473  0.32129  1.0000
  H   H595      1.0  0.34946  0.02107  0.32740  1.0000
  C   C338      1.0  0.03549  0.10727  0.32545  1.0000
  C   C339      1.0  0.29863  0.03683  0.32379  1.0000
  H   H596      1.0  0.14824  0.20612  0.18127  1.0000
  H   H597      1.0  0.14586  0.16972  0.25890  1.0000
  H   H598      1.0  0.26620  0.15616  0.30735  1.0000
  H   H599      1.0  0.25729  0.13635  0.31869  1.0000
  H   H600      1.0  0.25249  0.14835  0.29726  1.0000
  H   H601      1.0  0.32480  0.06852  0.35882  1.0000
  C   C340      1.0  0.29781  0.05330  0.20456  1.0000
  C   C341      1.0  0.11383  0.08841  0.35493  1.0000
  H   H602      1.0  0.27957  0.03673  0.19328  1.0000
  N   N20       1.0  0.16551  0.19240  0.22997  1.0000
  C   C342      1.0  0.15112  0.19653  0.24593  1.0000
  C   C343      1.0  0.17670  0.20664  0.22327  1.0000
  C   C344      1.0  0.15624  0.19297  0.21528  1.0000
  C   C345      1.0  0.17705  0.17401  0.23391  1.0000
  C   C346      1.0  0.18607  0.16960  0.25014  1.0000
  C   C347      1.0  0.13829  0.18328  0.25413  1.0000
  H   H603      1.0  0.40257  0.99250  0.26079  1.0000
  C   C348      1.0  0.18008  0.21514  0.23733  1.0000
  C   C349      1.0  0.19413  0.22667  0.22916  1.0000
  H   H604      1.0  0.02032  0.18530  0.36528  1.0000
  H   H605      1.0  0.08854  0.15070  0.25351  1.0000
  C   C350      1.0  0.12442  0.35483  0.18711  1.0000
  H   H606      1.0  0.10599  0.47323  0.33194  1.0000
  C   C351      1.0  0.08823  0.15077  0.29787  1.0000
  H   H607      1.0  0.11308  0.15995  0.30952  1.0000
  H   H608      1.0  0.12020  0.13923  0.32379  1.0000
  H   H609      1.0  0.09113  0.16441  0.29380  1.0000
  H   H610      1.0  0.40679  0.10140  0.35594  1.0000
  C   C352      1.0  0.35586  0.00749  0.33369  1.0000
  C   C353      1.0  0.10094  0.12011  0.31399  1.0000
  H   H611      1.0  0.10963  0.11289  0.32366  1.0000
  C   C354      1.0  0.39361  0.03733  0.18237  1.0000
  C   C355      1.0  0.46464  0.03041  0.36660  1.0000
  H   H612      1.0  0.18714  0.42332  0.32503  1.0000
  C   C356      1.0  0.06681  0.45623  0.21529  1.0000
  C   C357      1.0  0.39001  0.08793  0.34885  1.0000
  C   C358      1.0  0.11505  0.14523  0.31121  1.0000
  C   C359      1.0  0.08836  0.09316  0.31554  1.0000
  H   H613      1.0  0.14047  0.40313  0.34652  1.0000
  H   H614      1.0  0.12182  0.47979  0.27427  1.0000
  C   C360      1.0  0.20865  0.16621  0.35293  1.0000
  H   H615      1.0  0.12713  0.13986  0.37290  1.0000
  H   H616      1.0  0.17241  0.37678  0.18730  1.0000
  H   H617      1.0  0.09350  0.09361  0.30104  1.0000
  H   H618      1.0  0.15141  0.13975  0.30907  1.0000
  H   H619      1.0  0.14970  0.18219  0.18704  1.0000
  H   H620      1.0  0.10173  0.44412  0.20030  1.0000
  H   H621      1.0  0.03014  0.29057  0.34978  1.0000
  C   C361      1.0  0.29825  0.07779  0.35232  1.0000
  H   H622      1.0  0.34865  0.00374  0.18899  1.0000
  C   C362      1.0  0.14723  0.14602  0.29615  1.0000
  H   H623      1.0  0.13404  0.12551  0.29647  1.0000
  H   H624      1.0  0.30797  0.07954  0.37485  1.0000
  H   H625      1.0  0.25556  0.00905  0.22289  1.0000
  H   H626      1.0  0.21592  0.22989  0.32186  1.0000
  S   S82       1.0  0.14228  0.46114  0.19164  1.0000
  H   H627      1.0  0.01416  0.26480  0.27961  1.0000
  H   H628      1.0  0.12436  0.34393  0.18065  1.0000
  C   C363      1.0  0.21986  0.47885  0.21518  1.0000
  H   H629      1.0  0.11163  0.38023  0.25363  1.0000
  C   C364      1.0  0.14060  0.41883  0.31096  1.0000
  H   H630      1.0  0.00982  0.28252  0.35393  1.0000
  C   C365      1.0  0.09129  0.47807  0.18649  1.0000
  H   H631      1.0  0.10672  0.13783  0.27621  1.0000
  H   H632      1.0  0.25249  0.16880  0.33483  1.0000
  C   C366      1.0  0.13044  0.14015  0.29566  1.0000
  H   H633      1.0  0.17430  0.41552  0.29101  1.0000
  H   H634      1.0  0.18174  0.44946  0.33879  1.0000
  H   H635      1.0  0.41585  0.01696  0.29554  1.0000
  C   C367      1.0  0.12506  0.36342  0.21444  1.0000
  H   H636      1.0  0.03583  0.11067  0.31089  1.0000
  H   H637      1.0  0.18780  0.40841  0.22364  1.0000
  C   C368      1.0  0.19855  0.42867  0.31562  1.0000
  H   H638      1.0  0.27659  0.08740  0.19331  1.0000
  H   H639      1.0  0.40841  0.06119  0.37221  1.0000
  C   C369      1.0  0.99985  0.03140  0.34600  1.0000
  S   S83       1.0  0.18614  0.45573  0.17860  1.0000
  H   H640      1.0  0.24193  0.18404  0.35862  1.0000
  H   H641      1.0  0.04193  0.09302  0.32932  1.0000
  C   C370      1.0  0.13972  0.32325  0.22907  1.0000
  C   C371      1.0  0.13368  0.45894  0.29437  1.0000
  Fe  Fe38      1.0  0.14567  0.46945  0.21527  1.0000
  H   H642      1.0  0.13404  0.37573  0.24056  1.0000
  C   C372      1.0  0.01371  0.15285  0.34754  1.0000
  H   H643      1.0  0.08186  0.32052  0.23247  1.0000
  C   C373      1.0  0.99559  0.31521  0.31850  1.0000
  H   H644      1.0  0.18135  0.15008  0.37555  1.0000
  H   H645      1.0  0.09453  0.35514  0.21273  1.0000
  H   H646      1.0  0.11997  0.37659  0.20621  1.0000
  H   H647      1.0  0.02760  0.27000  0.36547  1.0000
  H   H648      1.0  0.01760  0.28292  0.28753  1.0000
  H   H649      1.0  0.11232  0.36533  0.18468  1.0000
  H   H650      1.0  0.10016  0.36808  0.23448  1.0000
  H   H651      1.0  0.15071  0.38062  0.34355  1.0000
  H   H652      1.0  0.99025  0.32118  0.33050  1.0000
  H   H653      1.0  0.32641  0.02750  0.35389  1.0000
  C   C374      1.0  0.01802  0.19470  0.35263  1.0000
  H   H654      1.0  0.32649  0.01124  0.37448  1.0000
  H   H655      1.0  0.13941  0.36314  0.21375  1.0000
  H   H656      1.0  0.17796  0.17815  0.19747  1.0000
  H   H657      1.0  0.42232  0.06927  0.35188  1.0000
  H   H658      1.0  0.14253  0.33240  0.23601  1.0000
  H   H659      1.0  0.43952  0.04124  0.35833  1.0000
  H   H660      1.0  0.00335  0.19873  0.35325  1.0000
  H   H661      1.0  0.12629  0.41771  0.31426  1.0000
  H   H662      1.0  0.31204  0.02929  0.18271  1.0000
  H   H663      1.0  0.13097  0.45566  0.30912  1.0000
  C   C375      1.0  0.23399  0.20390  0.32631  1.0000
  H   H664      1.0  0.01917  0.21755  0.36163  1.0000
  H   H665      1.0  0.20366  0.46339  0.35414  1.0000
  H   H666      1.0  0.04826  0.45340  0.24080  1.0000
  N   N21       1.0  0.08503  0.46299  0.18294  1.0000
  H   H667      1.0  0.13080  0.19030  0.28040  1.0000
  C   C376      1.0  0.44938  0.04621  0.36256  1.0000
  H   H668      1.0  0.36118  0.02106  0.18380  1.0000
  C   C377      1.0  0.41539  0.07234  0.36521  1.0000
  C   C378      1.0  0.19770  0.47783  0.35103  1.0000
  C   C379      1.0  0.15754  0.19290  0.18294  1.0000
  H   H669      1.0  0.45927  0.11196  0.36466  1.0000
  C   C380      1.0  0.99319  0.36714  0.33591  1.0000
  C   C381      1.0  0.33270  0.98245  0.29476  1.0000
  H   H670      1.0  0.47038  0.02420  0.35475  1.0000
  H   H671      1.0  0.43239  0.10042  0.36687  1.0000
  C   C382      1.0  0.03241  0.13089  0.36618  1.0000
  H   H672      1.0  0.09026  0.43410  0.19025  1.0000
  C   C383      1.0  0.31051  0.07019  0.36575  1.0000
  H   H673      1.0  0.28263  0.41712  0.17845  1.0000
  C   C384      1.0  0.99458  0.08409  0.37278  1.0000
  H   H674      1.0  0.39451  0.02508  0.19300  1.0000
  H   H675      1.0  0.30788  0.05711  0.37396  1.0000
  C   C385      1.0  0.99693  0.06432  0.24350  1.0000
  H   H676      1.0  0.09784  0.47333  0.19823  1.0000
  H   H677      1.0  0.16487  0.47804  0.30839  1.0000
  H   H678      1.0  0.00470  0.06765  0.22969  1.0000
  C   C386      1.0  0.12585  0.42217  0.18053  1.0000
  C   C387      1.0  0.00003  0.13622  0.37565  1.0000
  N   N22       1.0  0.42882  0.07313  0.37542  1.0000
  C   C388      1.0  0.34961  0.98681  0.29707  1.0000
  C   C389      1.0  0.10665  0.45594  0.37588  1.0000
  C   C390      1.0  0.00275  0.98306  0.24270  1.0000
  H   H679      1.0  0.39715  0.98932  0.24129  1.0000
  H   H680      1.0  0.23967  0.05224  0.36957  1.0000
  S   S84       1.0  0.38829  0.00502  0.36600  1.0000
  C   C391      1.0  0.16421  0.48056  0.32166  1.0000
  C   C392      1.0  0.23238  0.11487  0.37663  1.0000
  H   H681      1.0  0.99564  0.40210  0.37158  1.0000
  S   S85       1.0  0.05389  0.12022  0.36983  1.0000
  H   H682      1.0  0.17434  0.47604  0.25062  1.0000
  H   H683      1.0  0.48109  0.09790  0.35984  1.0000
  H   H684      1.0  0.46792  0.07286  0.36078  1.0000
  C   C393      1.0  0.45915  0.08394  0.36703  1.0000
  Fe  Fe39      1.0  0.08574  0.05918  0.37180  1.0000
  H   H685      1.0  0.05728  0.47473  0.19286  1.0000
  Fe  Fe40      1.0  0.43125  0.06122  0.50782  1.0000
  S   S86       1.0  0.43920  0.07895  0.48135  1.0000
  S   S87       1.0  0.40177  0.06068  0.51706  1.0000
  Fe  Fe41      1.0  0.46193  0.05594  0.47608  1.0000
  S   S88       1.0  0.47022  0.04697  0.44964  1.0000
  Fe  Fe42      1.0  0.45713  0.08656  0.49473  1.0000
  S   S89       1.0  0.45275  0.03752  0.50169  1.0000
  S   S90       1.0  0.44736  0.07066  0.52168  1.0000
  H   H686      1.0  0.03804  0.00827  0.50871  1.0000
  S   S91       1.0  0.35039  0.14839  0.54167  1.0000
  H   H687      1.0  0.36905  0.37009  0.51944  1.0000
  C   C394      1.0  0.37078  0.34622  0.56761  1.0000
  S   S92       1.0  0.30925  0.17021  0.54798  1.0000
  Fe  Fe43      1.0  0.32474  0.14703  0.53530  1.0000
  S   S93       1.0  0.32320  0.14544  0.50760  1.0000
  Fe  Fe44      1.0  0.33417  0.16942  0.55711  1.0000
  S   S94       1.0  0.34534  0.19395  0.55438  1.0000
  H   H688      1.0  0.08316  0.00457  0.51873  1.0000
  H   H689      1.0  0.14696  0.04757  0.38005  1.0000
  C   C395      1.0  0.47636  0.08548  0.54662  1.0000
  H   H690      1.0  0.18446  0.47672  0.37890  1.0000
  H   H691      1.0  0.01424  0.36895  0.38964  1.0000
  C   C396      1.0  0.03684  0.03025  0.48641  1.0000
  C   C397      1.0  0.99178  0.08545  0.39223  1.0000
  H   H692      1.0  0.04293  0.03359  0.47202  1.0000
  H   H693      1.0  0.04489  0.02978  0.42973  1.0000
  S   S95       1.0  0.44079  0.42709  0.54326  1.0000
  H   H694      1.0  0.47051  0.12487  0.54732  1.0000
  H   H695      1.0  0.35132  0.05058  0.38349  1.0000
  S   S96       1.0  0.03895  0.07411  0.39999  1.0000
  Fe  Fe45      1.0  0.06391  0.05833  0.40965  1.0000
  S   S97       1.0  0.06361  0.05020  0.43922  1.0000
  C   C398      1.0  0.37936  0.39236  0.52100  1.0000
  H   H696      1.0  0.19998  0.08561  0.38845  1.0000
  Fe  Fe46      1.0  0.40643  0.01726  0.40206  1.0000
  H   H697      1.0  0.46780  0.31091  0.57365  1.0000
  S   S98       1.0  0.40788  0.02878  0.42493  1.0000
  Fe  Fe47      1.0  0.37321  0.01341  0.39162  1.0000
  S   S99       1.0  0.34356  0.01605  0.40224  1.0000
  H   H698      1.0  0.43665  0.39462  0.49985  1.0000
  Fe  Fe48      1.0  0.13903  0.05173  0.52067  1.0000
  S   S100      1.0  0.14810  0.02432  0.53611  1.0000
  S   S101      1.0  0.13371  0.07528  0.53359  1.0000
  Fe  Fe49      1.0  0.14027  0.03853  0.48764  1.0000
  S   S102      1.0  0.14999  0.01000  0.50017  1.0000
  S   S103      1.0  0.13805  0.04445  0.45870  1.0000
  Fe  Fe50      1.0  0.12942  0.01598  0.52437  1.0000
  S   S104      1.0  0.11212  0.99731  0.54281  1.0000
  Fe  Fe51      1.0  0.16787  0.02065  0.51082  1.0000
  S   S105      1.0  0.19539  0.00442  0.51264  1.0000
  S   S106      1.0  0.11818  0.04393  0.51116  1.0000
  S   S107      1.0  0.16032  0.04873  0.49600  1.0000
  C   C399      1.0  0.37618  0.41293  0.51505  1.0000
  S   S108      1.0  0.42482  0.00907  0.37726  1.0000
  H   H699      1.0  0.07034  0.00689  0.55091  1.0000
  C   C400      1.0  0.28779  0.02867  0.50287  1.0000
  Fe  Fe52      1.0  0.26600  0.09877  0.47564  1.0000
  S   S109      1.0  0.28537  0.07579  0.46556  1.0000
  S   S110      1.0  0.26870  0.10181  0.50227  1.0000
  Fe  Fe53      1.0  0.24496  0.10577  0.44647  1.0000
  S   S111      1.0  0.26266  0.08298  0.43448  1.0000
  S   S112      1.0  0.22098  0.12073  0.43449  1.0000
  Fe  Fe54      1.0  0.26135  0.06784  0.46259  1.0000
  S   S113      1.0  0.26190  0.03848  0.46993  1.0000
  Fe  Fe55      1.0  0.28493  0.09308  0.43854  1.0000
  S   S114      1.0  0.31014  0.09332  0.41763  1.0000
  S   S115      1.0  0.24172  0.08964  0.47446  1.0000
  S   S116      1.0  0.26745  0.11720  0.44866  1.0000
  C   C401      1.0  0.21354  0.01470  0.50154  1.0000
  C   C402      1.0  0.22999  0.00383  0.49589  1.0000
  C   C403      1.0  0.24470  0.01139  0.48643  1.0000
  C   C404      1.0  0.24321  0.02987  0.48279  1.0000
  C   C405      1.0  0.22700  0.04082  0.48910  1.0000
  C   C406      1.0  0.21204  0.03323  0.49837  1.0000
  C   C407      1.0  0.06181  0.99731  0.55205  1.0000
  H   H700      1.0  0.25726  0.00288  0.48172  1.0000
  H   H701      1.0  0.22593  0.05508  0.48655  1.0000
  H   H702      1.0  0.19943  0.04164  0.50309  1.0000
  H   H703      1.0  0.20500  0.06645  0.37842  1.0000
  C   C408      1.0  0.30602  0.24526  0.57533  1.0000
  C   C409      1.0  0.01710  0.12695  0.37868  1.0000
  H   H704      1.0  0.34372  0.99671  0.46543  1.0000
  H   H705      1.0  0.13863  0.06528  0.42170  1.0000
  C   C410      1.0  0.39218  0.17462  0.54473  1.0000
  S   S117      1.0  0.48086  0.06518  0.48708  1.0000
  H   H706      1.0  0.37565  0.09340  0.40927  1.0000
  C   C411      1.0  0.33327  0.03779  0.40533  1.0000
  C   C412      1.0  0.31815  0.04049  0.41893  1.0000
  C   C413      1.0  0.31075  0.05762  0.42250  1.0000
  C   C414      1.0  0.31834  0.07213  0.41233  1.0000
  C   C415      1.0  0.33297  0.06954  0.39822  1.0000
  C   C416      1.0  0.34036  0.05240  0.39468  1.0000
  H   H707      1.0  0.31242  0.02927  0.42703  1.0000
  H   H708      1.0  0.29937  0.05948  0.43333  1.0000
  H   H709      1.0  0.46765  0.27921  0.57268  1.0000
  H   H710      1.0  0.07178  0.08784  0.42849  1.0000
  C   C417      1.0  0.08431  0.04759  0.44502  1.0000
  C   C418      1.0  0.10037  0.04268  0.43326  1.0000
  C   C419      1.0  0.11678  0.04098  0.43797  1.0000
  C   C420      1.0  0.11726  0.04457  0.45425  1.0000
  C   C421      1.0  0.10119  0.04911  0.46618  1.0000
  C   C422      1.0  0.08474  0.05044  0.46164  1.0000
  H   H711      1.0  0.10016  0.04028  0.42048  1.0000
  H   H712      1.0  0.12915  0.03706  0.42886  1.0000
  H   H713      1.0  0.10140  0.05196  0.47874  1.0000
  H   H714      1.0  0.07234  0.05421  0.47081  1.0000
  H   H715      1.0  0.39300  0.38625  0.51461  1.0000
  C   C423      1.0  0.24283  0.11521  0.40273  1.0000
  C   C424      1.0  0.22519  0.11858  0.41222  1.0000
  C   C425      1.0  0.21104  0.12019  0.40384  1.0000
  C   C426      1.0  0.27786  0.03247  0.52118  1.0000
  H   H716      1.0  0.25378  0.11457  0.40886  1.0000
  H   H717      1.0  0.19737  0.12289  0.41115  1.0000
  H   H718      1.0  0.19279  0.05002  0.54787  1.0000
  C   C427      1.0  0.15048  0.05331  0.38977  1.0000
  H   H719      1.0  0.32150  0.07323  0.53797  1.0000
  H   H720      1.0  0.44688  0.02292  0.41084  1.0000
  H   H721      1.0  0.12274  0.06404  0.39887  1.0000
  H   H722      1.0  0.00565  0.02702  0.43571  1.0000
  C   C428      1.0  0.36844  0.08231  0.41240  1.0000
  H   H723      1.0  0.32155  0.32468  0.55794  1.0000
  H   H724      1.0  0.03675  0.98881  0.45829  1.0000
  H   H725      1.0  0.40919  0.09121  0.39069  1.0000
  H   H726      1.0  0.22085  0.16344  0.51499  1.0000
  H   H727      1.0  0.24864  0.01363  0.53239  1.0000
  H   H728      1.0  0.32161  0.05451  0.56768  1.0000
  H   H729      1.0  0.47783  0.23099  0.54916  1.0000
  H   H730      1.0  0.12068  0.15503  0.38797  1.0000
  H   H731      1.0  0.37966  0.47577  0.47774  1.0000
  C   C429      1.0  0.30919  0.13219  0.50573  1.0000
  C   C430      1.0  0.30189  0.12044  0.52060  1.0000
  C   C431      1.0  0.29024  0.11049  0.51906  1.0000
  C   C432      1.0  0.28549  0.11246  0.50274  1.0000
  C   C433      1.0  0.29314  0.12379  0.48766  1.0000
  C   C434      1.0  0.30505  0.13359  0.48916  1.0000
  H   H732      1.0  0.30498  0.11917  0.53335  1.0000
  H   H733      1.0  0.28457  0.10151  0.53064  1.0000
  H   H734      1.0  0.28953  0.12539  0.47499  1.0000
  H   H735      1.0  0.31069  0.14261  0.47756  1.0000
  C   C435      1.0  0.45331  0.04080  0.44314  1.0000
  C   C436      1.0  0.45731  0.03328  0.42795  1.0000
  C   C437      1.0  0.44370  0.02887  0.42239  1.0000
  C   C438      1.0  0.42601  0.03229  0.43186  1.0000
  C   C439      1.0  0.42218  0.03951  0.44715  1.0000
  C   C440      1.0  0.43572  0.04370  0.45281  1.0000
  H   H736      1.0  0.47097  0.03084  0.42054  1.0000
  H   H737      1.0  0.40862  0.04219  0.45454  1.0000
  H   H738      1.0  0.43252  0.04936  0.46458  1.0000
  C   C441      1.0  0.39101  0.07219  0.53437  1.0000
  C   C442      1.0  0.40020  0.07295  0.54699  1.0000
  C   C443      1.0  0.39179  0.08335  0.55992  1.0000
  C   C444      1.0  0.37441  0.09346  0.55989  1.0000
  C   C445      1.0  0.36521  0.09266  0.54732  1.0000
  C   C446      1.0  0.37331  0.08163  0.53493  1.0000
  H   H739      1.0  0.41376  0.06545  0.54683  1.0000
  C   C447      1.0  0.03499  0.00533  0.41362  1.0000
  H   H740      1.0  0.35185  0.10051  0.54718  1.0000
  H   H741      1.0  0.36611  0.08097  0.52528  1.0000
  C   C448      1.0  0.04343  0.36920  0.40149  1.0000
  H   H742      1.0  0.05949  0.46571  0.54476  1.0000
  C   C449      1.0  0.41759  0.08419  0.42313  1.0000
  H   H743      1.0  0.40803  0.09714  0.42076  1.0000
  H   H744      1.0  0.41000  0.07350  0.42988  1.0000
  H   H745      1.0  0.42912  0.18730  0.53297  1.0000
  H   H746      1.0  0.23720  0.03431  0.57589  1.0000
  H   H747      1.0  0.37638  0.18140  0.52436  1.0000
  H   H748      1.0  0.47404  0.07212  0.54698  1.0000
  S   S118      1.0  0.39211  0.99462  0.40806  1.0000
  C   C450      1.0  0.38869  0.17187  0.52766  1.0000
  C   C451      1.0  0.47155  0.13499  0.50662  1.0000
  C   C452      1.0  0.42962  0.08008  0.40557  1.0000
  H   H749      1.0  0.04180  0.00209  0.48762  1.0000
  H   H750      1.0  0.39335  0.18870  0.54253  1.0000
  C   C453      1.0  0.08942  0.99607  0.43754  1.0000
  H   H751      1.0  0.40006  0.17416  0.51630  1.0000
  H   H752      1.0  0.25572  0.13487  0.51779  1.0000
  H   H753      1.0  0.04888  0.00106  0.56124  1.0000
  H   H754      1.0  0.00790  0.04462  0.45657  1.0000
  H   H755      1.0  0.12132  0.99305  0.46188  1.0000
  H   H756      1.0  0.27254  0.18162  0.53811  1.0000
  H   H757      1.0  0.15239  0.04265  0.40174  1.0000
  C   C454      1.0  0.36622  0.38488  0.51526  1.0000
  S   S119      1.0  0.45597  0.11561  0.49327  1.0000
  C   C455      1.0  0.38012  0.25976  0.55528  1.0000
  H   H758      1.0  0.04143  0.01552  0.40326  1.0000
  S   S120      1.0  0.11065  0.46066  0.39502  1.0000
  S   S121      1.0  0.07068  0.03920  0.39124  1.0000
  N   N23       1.0  0.99116  0.38082  0.40751  1.0000
  H   H759      1.0  0.38886  0.40354  0.54709  1.0000
  H   H760      1.0  0.35497  0.08790  0.40915  1.0000
  H   H761      1.0  0.03389  0.01979  0.45114  1.0000
  H   H762      1.0  0.43609  0.45809  0.51507  1.0000
  H   H763      1.0  0.30272  0.31455  0.56092  1.0000
  H   H764      1.0  0.22363  0.15336  0.38187  1.0000
  H   H765      1.0  0.21332  0.06957  0.52741  1.0000
  H   H766      1.0  0.33263  0.00811  0.44700  1.0000
  H   H767      1.0  0.44530  0.38600  0.51996  1.0000
  S   S122      1.0  0.39351  0.36718  0.56625  1.0000
  H   H768      1.0  0.10594  0.07737  0.42104  1.0000
  H   H769      1.0  0.36763  0.38845  0.50053  1.0000
  H   H770      1.0  0.35223  0.39008  0.52171  1.0000
  H   H771      1.0  0.99359  0.39286  0.42811  1.0000
  H   H772      1.0  0.37598  0.07243  0.40399  1.0000
  C   C456      1.0  0.41920  0.18252  0.56218  1.0000
  H   H773      1.0  0.05274  0.36408  0.41089  1.0000
  H   H774      1.0  0.24311  0.16793  0.50733  1.0000
  H   H775      1.0  0.24082  0.17238  0.53535  1.0000
  H   H776      1.0  0.06850  0.01999  0.49547  1.0000
  H   H777      1.0  0.04998  0.98784  0.53586  1.0000
  C   C457      1.0  0.44013  0.05460  0.37917  1.0000
  C   C458      1.0  0.21464  0.11827  0.38601  1.0000
  C   C459      1.0  0.03373  0.99178  0.38839  1.0000
  S   S123      1.0  0.44180  0.37548  0.55937  1.0000
  N   N24       1.0  0.24113  0.14404  0.54203  1.0000
  C   C460      1.0  0.02406  0.37101  0.41190  1.0000
  C   C461      1.0  0.07627  0.99347  0.52042  1.0000
  H   H778      1.0  0.05100  0.01129  0.52903  1.0000
  H   H779      1.0  0.43966  0.06776  0.40886  1.0000
  H   H780      1.0  0.19623  0.17277  0.37945  1.0000
  H   H781      1.0  0.46918  0.13915  0.56216  1.0000
  C   C462      1.0  0.40956  0.47353  0.52288  1.0000
  H   H782      1.0  0.35540  0.41498  0.54858  1.0000
  C   C463      1.0  0.22552  0.07529  0.52215  1.0000
  C   C464      1.0  0.46181  0.13079  0.55866  1.0000
  H   H783      1.0  0.13786  0.09693  0.55598  1.0000
  H   H784      1.0  0.09526  0.98284  0.43385  1.0000
  H   H785      1.0  0.34141  0.29545  0.56351  1.0000
  H   H786      1.0  0.21485  0.16126  0.54469  1.0000
  H   H787      1.0  0.48056  0.24514  0.52709  1.0000
  C   C465      1.0  0.25138  0.12751  0.55224  1.0000
  H   H788      1.0  0.10783  0.00392  0.49838  1.0000
  H   H789      1.0  0.26577  0.03128  0.55395  1.0000
  C   C466      1.0  0.22451  0.00781  0.55017  1.0000
  H   H790      1.0  0.01418  0.39088  0.39053  1.0000
  H   H791      1.0  0.41259  0.42954  0.51307  1.0000
  H   H792      1.0  0.21647  0.01195  0.53961  1.0000
  C   C467      1.0  0.04491  0.01110  0.49456  1.0000
  H   H793      1.0  0.38310  0.04705  0.57053  1.0000
  C   C468      1.0  0.24500  0.11003  0.55420  1.0000
  H   H794      1.0  0.01887  0.03983  0.41767  1.0000
  H   H795      1.0  0.07679  0.47650  0.48240  1.0000
  Fe  Fe56      1.0  0.41481  0.37307  0.57672  1.0000
  C   C469      1.0  0.43305  0.18805  0.54517  1.0000
  H   H796      1.0  0.41985  0.16229  0.53756  1.0000
  H   H797      1.0  0.37753  0.38799  0.53566  1.0000
  H   H798      1.0  0.33135  0.24701  0.55757  1.0000
  H   H799      1.0  0.21572  0.01075  0.56289  1.0000
  H   H800      1.0  0.48889  0.29397  0.55003  1.0000
  H   H801      1.0  0.28058  0.02089  0.49835  1.0000
  N   N25       1.0  0.39017  0.12836  0.49031  1.0000
  C   C470      1.0  0.39393  0.12904  0.50782  1.0000
  C   C471      1.0  0.37320  0.14180  0.48737  1.0000
  C   C472      1.0  0.38663  0.11004  0.49212  1.0000
  C   C473      1.0  0.40565  0.13136  0.47478  1.0000
  C   C474      1.0  0.41704  0.14451  0.47527  1.0000
  C   C475      1.0  0.40923  0.11415  0.51441  1.0000
  C   C476      1.0  0.38091  0.10679  0.47607  1.0000
  C   C477      1.0  0.37374  0.16174  0.48464  1.0000
  C   C478      1.0  0.35497  0.17350  0.48587  1.0000
  C   C479      1.0  0.43180  0.14642  0.45852  1.0000
  C   C480      1.0  0.41580  0.11875  0.52887  1.0000
  C   C481      1.0  0.38207  0.08691  0.47747  1.0000
  H   H802      1.0  0.38174  0.12811  0.51861  1.0000
  H   H803      1.0  0.39713  0.14198  0.50721  1.0000
  H   H804      1.0  0.36914  0.14082  0.47530  1.0000
  H   H805      1.0  0.36198  0.13873  0.49875  1.0000
  H   H806      1.0  0.37598  0.10711  0.50411  1.0000
  H   H807      1.0  0.39877  0.09956  0.49433  1.0000
  H   H808      1.0  0.41532  0.11850  0.47347  1.0000
  H   H809      1.0  0.40077  0.13607  0.46205  1.0000
  H   H810      1.0  0.42370  0.13968  0.48681  1.0000
  H   H811      1.0  0.40895  0.15796  0.47632  1.0000
  H   H812      1.0  0.40434  0.10163  0.52020  1.0000
  H   H813      1.0  0.42066  0.11142  0.50334  1.0000
  H   H814      1.0  0.38953  0.11173  0.46322  1.0000
  H   H815      1.0  0.36678  0.11364  0.47579  1.0000
  H   H816      1.0  0.37966  0.16434  0.49471  1.0000
  H   H817      1.0  0.38154  0.16621  0.47110  1.0000
  H   H818      1.0  0.35587  0.18778  0.48230  1.0000
  H   H819      1.0  0.34784  0.17102  0.47664  1.0000
  H   H820      1.0  0.34708  0.17080  0.49972  1.0000
  H   H821      1.0  0.43998  0.15554  0.45939  1.0000
  H   H822      1.0  0.44082  0.13325  0.45734  1.0000
  H   H823      1.0  0.42597  0.15199  0.44641  1.0000
  H   H824      1.0  0.40460  0.12092  0.54041  1.0000
  H   H825      1.0  0.42638  0.10751  0.53356  1.0000
  H   H826      1.0  0.42166  0.13085  0.52345  1.0000
  H   H827      1.0  0.37743  0.08505  0.46613  1.0000
  H   H828      1.0  0.39613  0.07940  0.47703  1.0000
  H   H829      1.0  0.37354  0.08131  0.49014  1.0000
  C   C482      1.0  0.01687  0.03404  0.43219  1.0000
  C   C483      1.0  0.01213  0.99178  0.45028  1.0000
  H   H830      1.0  0.28892  0.04127  0.49293  1.0000
  C   C484      1.0  0.99175  0.34690  0.41398  1.0000
  H   H831      1.0  0.25072  0.14681  0.48671  1.0000
  C   C485      1.0  0.14986  0.08666  0.55430  1.0000
  H   H832      1.0  0.35987  0.24884  0.55097  1.0000
  H   H833      1.0  0.99786  0.32888  0.43854  1.0000
  H   H834      1.0  0.13116  0.00561  0.47129  1.0000
  H   H835      1.0  0.43948  0.15459  0.57611  1.0000
  Fe  Fe57      1.0  0.43580  0.40300  0.56523  1.0000
  H   H836      1.0  0.41010  0.06812  0.40048  1.0000
  C   C486      1.0  0.03459  0.02161  0.43659  1.0000
  H   H837      1.0  0.25094  0.08203  0.56640  1.0000
  H   H838      1.0  0.48466  0.26901  0.54083  1.0000
  H   H839      1.0  0.08856  0.46616  0.45350  1.0000
  N   N26       1.0  0.20981  0.05578  0.43898  1.0000
  C   C487      1.0  0.20681  0.03688  0.44378  1.0000
  C   C488      1.0  0.22962  0.05567  0.43574  1.0000
  C   C489      1.0  0.20019  0.06433  0.45480  1.0000
  C   C490      1.0  0.20205  0.06679  0.42313  1.0000
  C   C491      1.0  0.20970  0.06027  0.40538  1.0000
  C   C492      1.0  0.18707  0.03472  0.44822  1.0000
  C   C493      1.0  0.20388  0.08278  0.45433  1.0000
  C   C494      1.0  0.24296  0.04048  0.42708  1.0000
  C   C495      1.0  0.26175  0.04445  0.42009  1.0000
  H   H840      1.0  0.44643  0.17945  0.54601  1.0000
  C   C496      1.0  0.18597  0.01500  0.45328  1.0000
  C   C497      1.0  0.19472  0.08902  0.47182  1.0000
  H   H841      1.0  0.21288  0.02933  0.45552  1.0000
  H   H842      1.0  0.21376  0.02954  0.43295  1.0000
  H   H843      1.0  0.23246  0.06875  0.42756  1.0000
  H   H844      1.0  0.23367  0.05426  0.44858  1.0000
  H   H845      1.0  0.20342  0.05526  0.46729  1.0000
  H   H846      1.0  0.18542  0.06646  0.45644  1.0000
  H   H847      1.0  0.18730  0.06813  0.42621  1.0000
  H   H848      1.0  0.20423  0.08067  0.42023  1.0000
  H   H849      1.0  0.20908  0.04612  0.40696  1.0000
  H   H850      1.0  0.22376  0.06196  0.40033  1.0000
  H   H851      1.0  0.17913  0.04069  0.45974  1.0000
  H   H852      1.0  0.18063  0.04100  0.43659  1.0000
  H   H853      1.0  0.19860  0.09302  0.44342  1.0000
  H   H854      1.0  0.21837  0.08237  0.45234  1.0000
  H   H855      1.0  0.24397  0.02781  0.43723  1.0000
  H   H856      1.0  0.23873  0.03814  0.41578  1.0000
  H   H857      1.0  0.26734  0.04553  0.43116  1.0000
  H   H858      1.0  0.27079  0.03340  0.41392  1.0000
  H   H859      1.0  0.26154  0.05704  0.40986  1.0000
  H   H860      1.0  0.02219  0.03180  0.48782  1.0000
  C   C498      1.0  0.13546  0.06891  0.39468  1.0000
  H   H861      1.0  0.30146  0.02065  0.50363  1.0000
  H   H862      1.0  0.19162  0.00829  0.46538  1.0000
  H   H863      1.0  0.17174  0.01381  0.45630  1.0000
  H   H864      1.0  0.19334  0.00813  0.44214  1.0000
  H   H865      1.0  0.19717  0.10244  0.47093  1.0000
  H   H866      1.0  0.18004  0.08989  0.47454  1.0000
  H   H867      1.0  0.20017  0.07971  0.48317  1.0000
  H   H868      1.0  0.06433  0.01150  0.44798  1.0000
  H   H869      1.0  0.37013  0.21355  0.55736  1.0000
  C   C499      1.0  0.43705  0.39772  0.51261  1.0000
  C   C500      1.0  0.05844  0.99767  0.53381  1.0000
  C   C501      1.0  0.18088  0.06030  0.54973  1.0000
  C   C502      1.0  0.40731  0.44719  0.55417  1.0000
  H   H870      1.0  0.07195  0.10852  0.41206  1.0000
  H   H871      1.0  0.27555  0.01955  0.52990  1.0000
  Fe  Fe58      1.0  0.05693  0.09064  0.37970  1.0000
  H   H872      1.0  0.11386  0.04290  0.56577  1.0000
  H   H873      1.0  0.99683  0.09698  0.39308  1.0000
  H   H874      1.0  0.24786  0.01270  0.55563  1.0000
  Fe  Fe59      1.0  0.46982  0.04857  0.51325  1.0000
  H   H875      1.0  0.45855  0.14382  0.50846  1.0000
  H   H876      1.0  0.38660  0.15813  0.52969  1.0000
  C   C503      1.0  0.36387  0.42200  0.55238  1.0000
  C   C504      1.0  0.24641  0.11328  0.38504  1.0000
  H   H877      1.0  0.00596  0.34413  0.40704  1.0000
  H   H878      1.0  0.13474  0.07932  0.38248  1.0000
  N   N27       1.0  0.04021  0.00369  0.43109  1.0000
  H   H879      1.0  0.37608  0.44481  0.48920  1.0000
  H   H880      1.0  0.04599  0.38236  0.39340  1.0000
  C   C505      1.0  0.37745  0.47044  0.49236  1.0000
  H   H881      1.0  0.38032  0.17221  0.55535  1.0000
  C   C506      1.0  0.39271  0.46140  0.55157  1.0000
  C   C507      1.0  0.36381  0.20790  0.57071  1.0000
  H   H882      1.0  0.42198  0.21670  0.54194  1.0000
  N   N28       1.0  0.07497  0.99106  0.50258  1.0000
  C   C508      1.0  0.24938  0.15961  0.54080  1.0000
  H   H883      1.0  0.44833  0.15292  0.54177  1.0000
  C   C509      1.0  0.42404  0.45906  0.52535  1.0000
  H   H884      1.0  0.47003  0.09527  0.53606  1.0000
  H   H885      1.0  0.38585  0.44950  0.52287  1.0000
  H   H886      1.0  0.30475  0.08412  0.55417  1.0000
  C   C510      1.0  0.24189  0.14097  0.52380  1.0000
  C   C511      1.0  0.15135  0.07438  0.54374  1.0000
  H   H887      1.0  0.02205  0.38022  0.42099  1.0000
  C   C512      1.0  0.10510  0.00099  0.48650  1.0000
  C   C513      1.0  0.26013  0.04654  0.52016  1.0000
  C   C514      1.0  0.41817  0.40174  0.52388  1.0000
  C   C515      1.0  0.12828  0.14153  0.38603  1.0000
  H   H888      1.0  0.06851  0.98370  0.55794  1.0000
  H   H889      1.0  0.36784  0.40133  0.57609  1.0000
  H   H890      1.0  0.39798  0.44706  0.48996  1.0000
  H   H891      1.0  0.36155  0.41840  0.51866  1.0000
  H   H892      1.0  0.46016  0.08045  0.38121  1.0000
  H   H893      1.0  0.48409  0.15036  0.51690  1.0000
  H   H894      1.0  0.35384  0.99291  0.44320  1.0000
  H   H895      1.0  0.25157  0.12935  0.56563  1.0000
  H   H896      1.0  0.30678  0.28138  0.56958  1.0000
  H   H897      1.0  0.41939  0.40461  0.53645  1.0000
  S   S124      1.0  0.19755  0.07075  0.57019  1.0000
  C   C516      1.0  0.38352  0.45012  0.49608  1.0000
  C   C517      1.0  0.19923  0.07132  0.39106  1.0000
  H   H898      1.0  0.03909  0.03981  0.49329  1.0000
  H   H899      1.0  0.10049  0.43037  0.38985  1.0000
  H   H900      1.0  0.23171  0.16447  0.48260  1.0000
  H   H901      1.0  0.19287  0.16777  0.57197  1.0000
  C   C518      1.0  0.23820  0.06851  0.53557  1.0000
  N   N29       1.0  0.35343  0.04845  0.45612  1.0000
  C   C519      1.0  0.34445  0.03336  0.45737  1.0000
  C   C520      1.0  0.34054  0.06267  0.46542  1.0000
  C   C521      1.0  0.35846  0.05675  0.43658  1.0000
  C   C522      1.0  0.37033  0.04201  0.46344  1.0000
  C   C523      1.0  0.36847  0.03222  0.48319  1.0000
  C   C524      1.0  0.35565  0.01837  0.44727  1.0000
  C   C525      1.0  0.36663  0.07361  0.43218  1.0000
  C   C526      1.0  0.32671  0.05638  0.48228  1.0000
  C   C527      1.0  0.31737  0.07147  0.49234  1.0000
  C   C528      1.0  0.38680  0.02504  0.48826  1.0000
  C   C529      1.0  0.34578  0.00312  0.45105  1.0000
  H   H902      1.0  0.33188  0.03883  0.45211  1.0000
  H   H903      1.0  0.34016  0.02674  0.47142  1.0000
  H   H904      1.0  0.34805  0.07084  0.46910  1.0000
  H   H905      1.0  0.33223  0.07226  0.45615  1.0000
  H   H906      1.0  0.34653  0.06026  0.43039  1.0000
  H   H907      1.0  0.36860  0.04710  0.42922  1.0000
  H   H908      1.0  0.38052  0.03322  0.45522  1.0000
  H   H909      1.0  0.37652  0.05344  0.46239  1.0000
  H   H910      1.0  0.36190  0.02075  0.48590  1.0000
  H   H911      1.0  0.36080  0.04166  0.49199  1.0000
  H   H912      1.0  0.35807  0.02347  0.43263  1.0000
  H   H913      1.0  0.36872  0.01263  0.45130  1.0000
  H   H914      1.0  0.38023  0.06987  0.43517  1.0000
  H   H915      1.0  0.35833  0.08383  0.43984  1.0000
  H   H916      1.0  0.31635  0.05204  0.47822  1.0000
  H   H917      1.0  0.33274  0.04495  0.49173  1.0000
  H   H918      1.0  0.31138  0.08349  0.48331  1.0000
  H   H919      1.0  0.30647  0.06715  0.50338  1.0000
  H   H920      1.0  0.32703  0.07513  0.49809  1.0000
  H   H921      1.0  0.39360  0.03616  0.48679  1.0000
  H   H922      1.0  0.38624  0.24687  0.56306  1.0000
  H   H923      1.0  0.39544  0.01562  0.47975  1.0000
  H   H924      1.0  0.20985  0.09990  0.50968  1.0000
  C   C530      1.0  0.39377  0.47460  0.53593  1.0000
  C   C531      1.0  0.01083  0.37812  0.39900  1.0000
  C   C532      1.0  0.47397  0.11986  0.49949  1.0000
  H   H925      1.0  0.07079  0.00941  0.47766  1.0000
  H   H926      1.0  0.99928  0.07310  0.39959  1.0000
  H   H927      1.0  0.46990  0.08936  0.55963  1.0000
  C   C533      1.0  0.05250  0.47759  0.53635  1.0000
  H   H928      1.0  0.36511  0.44597  0.52114  1.0000
  H   H929      1.0  0.35400  0.03847  0.57584  1.0000
  C   C534      1.0  0.21917  0.09556  0.51907  1.0000
  H   H930      1.0  0.34224  0.06265  0.55887  1.0000
  C   C535      1.0  0.31750  0.31275  0.55655  1.0000
  H   H931      1.0  0.48524  0.40009  0.57306  1.0000
  H   H932      1.0  0.43825  0.13374  0.54868  1.0000
  H   H933      1.0  0.14564  0.98833  0.56147  1.0000
  H   H934      1.0  0.09312  0.00676  0.42594  1.0000
  H   H935      1.0  0.00608  0.00313  0.45717  1.0000
  H   H936      1.0  0.40643  0.43727  0.56637  1.0000
  H   H937      1.0  0.16320  0.05796  0.38349  1.0000
  C   C536      1.0  0.22172  0.14805  0.55135  1.0000
  H   H938      1.0  0.28683  0.03758  0.52652  1.0000
  H   H939      1.0  0.45052  0.05418  0.38646  1.0000
  C   C537      1.0  0.36265  0.41595  0.57252  1.0000
  H   H940      1.0  0.24843  0.07698  0.53164  1.0000
  H   H941      1.0  0.21194  0.09970  0.53185  1.0000
  H   H942      1.0  0.48278  0.25439  0.56186  1.0000
  H   H943      1.0  0.16830  0.05186  0.53318  1.0000
  C   C538      1.0  0.16691  0.06124  0.54147  1.0000
  C   C539      1.0  0.23509  0.15756  0.51008  1.0000
  H   H944      1.0  0.01844  0.11706  0.39079  1.0000
  H   H945      1.0  0.21436  0.13833  0.55011  1.0000
  H   H946      1.0  0.23596  0.05772  0.57307  1.0000
  S   S125      1.0  0.48578  0.03072  0.53358  1.0000
  H   H947      1.0  0.37943  0.41571  0.50023  1.0000
  C   C540      1.0  0.38354  0.41784  0.54211  1.0000
  C   C541      1.0  0.48595  0.13871  0.51137  1.0000
  H   H948      1.0  0.44358  0.40930  0.50979  1.0000
  H   H949      1.0  0.02040  0.01039  0.41441  1.0000
  S   S126      1.0  0.02422  0.04319  0.37945  1.0000
  H   H950      1.0  0.38755  0.26101  0.54121  1.0000
  H   H951      1.0  0.26444  0.05923  0.51263  1.0000
  C   C542      1.0  0.07368  0.10176  0.42583  1.0000
  H   H952      1.0  0.23126  0.98951  0.49849  1.0000
  H   H953      1.0  0.27095  0.15472  0.51704  1.0000
  H   H954      1.0  0.38528  0.47654  0.49808  1.0000
  C   C543      1.0  0.43153  0.14983  0.56924  1.0000
  Fe  Fe60      1.0  0.30377  0.14919  0.57261  1.0000
  S   S127      1.0  0.38639  0.03638  0.38710  1.0000
  C   C544      1.0  0.26889  0.15878  0.52990  1.0000
  H   H955      1.0  0.23220  0.07134  0.50927  1.0000
  C   C545      1.0  0.37984  0.44220  0.51645  1.0000
  C   C546      1.0  0.42288  0.44570  0.54093  1.0000
  C   C547      1.0  0.35131  0.19722  0.57314  1.0000
  H   H956      1.0  0.22974  0.99317  0.55195  1.0000
  H   H957      1.0  0.23382  0.13097  0.52488  1.0000
  H   H958      1.0  0.39137  0.42501  0.54659  1.0000
  H   H959      1.0  0.42597  0.08490  0.43215  1.0000
  H   H960      1.0  0.23065  0.10231  0.51321  1.0000
  H   H961      1.0  0.36299  0.47445  0.49818  1.0000
  H   H962      1.0  0.26618  0.05420  0.55015  1.0000
  H   H963      1.0  0.26942  0.09301  0.56214  1.0000
  H   H964      1.0  0.06519  0.98458  0.42546  1.0000
  C   C548      1.0  0.23656  0.15246  0.49233  1.0000
  H   H965      1.0  0.99282  0.36233  0.43278  1.0000
  C   C549      1.0  0.24011  0.01749  0.54487  1.0000
  H   H966      1.0  0.44515  0.21080  0.53112  1.0000
  H   H967      1.0  0.23043  0.11144  0.55972  1.0000
  H   H968      1.0  0.24989  0.16085  0.55432  1.0000
  H   H969      1.0  0.41261  0.38955  0.52744  1.0000
  S   S128      1.0  0.31793  0.12604  0.55947  1.0000
  H   H970      1.0  0.25331  0.04333  0.51104  1.0000
  H   H971      1.0  0.06318  0.10892  0.43534  1.0000
  H   H972      1.0  0.20378  0.11956  0.37949  1.0000
  H   H973      1.0  0.43172  0.04528  0.38838  1.0000
  H   H974      1.0  0.32574  0.09143  0.54477  1.0000
  C   C550      1.0  0.40633  0.41813  0.51391  1.0000
  H   H975      1.0  0.22833  0.14242  0.49414  1.0000
  C   C551      1.0  0.31937  0.07964  0.54947  1.0000
  C   C552      1.0  0.48769  0.23506  0.53690  1.0000
  H   H976      1.0  0.38049  0.46207  0.56164  1.0000
  H   H977      1.0  0.26570  0.12514  0.54556  1.0000
  H   H978      1.0  0.40841  0.41653  0.49992  1.0000
  C   C553      1.0  0.01122  0.04958  0.44192  1.0000
  C   C554      1.0  0.44457  0.14229  0.55327  1.0000
  H   H979      1.0  0.06684  0.46910  0.51201  1.0000
  N   N30       1.0  0.38651  0.42231  0.52200  1.0000
  H   H980      1.0  0.01903  0.99689  0.39017  1.0000
  H   H981      1.0  0.24793  0.10625  0.54103  1.0000
  H   H982      1.0  0.22633  0.04110  0.53030  1.0000
  H   H983      1.0  0.28820  0.17583  0.51837  1.0000
  H   H984      1.0  0.99920  0.05886  0.43765  1.0000
  H   H985      1.0  0.06650  0.00713  0.41584  1.0000
  C   C555      1.0  0.25467  0.09455  0.56648  1.0000
  Fe  Fe61      1.0  0.34235  0.12913  0.56685  1.0000
  N   N31       1.0  0.12632  0.09318  0.41404  1.0000
  C   C556      1.0  0.12884  0.09512  0.43165  1.0000
  C   C557      1.0  0.10729  0.09147  0.41563  1.0000
  C   C558      1.0  0.13890  0.07620  0.40964  1.0000
  C   C559      1.0  0.13118  0.10838  0.39901  1.0000
  C   C560      1.0  0.12059  0.12735  0.40105  1.0000
  C   C561      1.0  0.14801  0.09605  0.43233  1.0000
  C   C562      1.0  0.25705  0.04474  0.55286  1.0000
  C   C563      1.0  0.09219  0.10194  0.42829  1.0000
  H   H986      1.0  0.13084  0.98255  0.48144  1.0000
  H   H987      1.0  0.02245  0.35764  0.42003  1.0000
  C   C564      1.0  0.14888  0.09777  0.45083  1.0000
  C   C565      1.0  0.32594  0.24642  0.57208  1.0000
  H   H988      1.0  0.12492  0.08369  0.44232  1.0000
  H   H989      1.0  0.11984  0.10720  0.43592  1.0000
  H   H990      1.0  0.10389  0.09504  0.40217  1.0000
  H   H991      1.0  0.22253  0.04137  0.55322  1.0000
  C   C566      1.0  0.40921  0.16148  0.54982  1.0000
  H   H992      1.0  0.15296  0.07807  0.40548  1.0000
  H   H993      1.0  0.14572  0.10832  0.39650  1.0000
  H   H994      1.0  0.12919  0.10656  0.38628  1.0000
  H   H995      1.0  0.12101  0.13030  0.41384  1.0000
  H   H996      1.0  0.10650  0.12880  0.40010  1.0000
  H   H997      1.0  0.15768  0.08375  0.42950  1.0000
  H   H998      1.0  0.15232  0.10774  0.42257  1.0000
  H   H999      1.0  0.43930  0.20861  0.55496  1.0000
  C   C567      1.0  0.27402  0.17695  0.52563  1.0000
  H   H1000     1.0  0.09293  0.09553  0.44240  1.0000
  H   H1001     1.0  0.09318  0.11601  0.42624  1.0000
  C   C568      1.0  0.23324  0.03793  0.54167  1.0000
  H   H1002     1.0  0.27837  0.14912  0.53777  1.0000
  H   H1003     1.0  0.26549  0.18694  0.51699  1.0000
  H   H1004     1.0  0.06601  0.98780  0.45510  1.0000
  H   H1005     1.0  0.38151  0.27094  0.56056  1.0000
  H   H1006     1.0  0.35821  0.43655  0.54980  1.0000
  H   H1007     1.0  0.16259  0.09895  0.45078  1.0000
  H   H1008     1.0  0.13935  0.10986  0.45463  1.0000
  H   H1009     1.0  0.14569  0.08578  0.46097  1.0000
  S   S129      1.0  0.08103  0.07664  0.39135  1.0000
  H   H1010     1.0  0.33225  0.08576  0.57614  1.0000
  H   H1011     1.0  0.22998  0.07179  0.54826  1.0000
  N   N32       1.0  0.24726  0.04899  0.53771  1.0000
  H   H1012     1.0  0.38516  0.01784  0.50240  1.0000
  H   H1013     1.0  0.40658  0.14774  0.55274  1.0000
  C   C569      1.0  0.12318  0.99510  0.47457  1.0000
  C   C570      1.0  0.17944  0.07245  0.56037  1.0000
  H   H1014     1.0  0.33858  0.08078  0.39001  1.0000
  H   H1015     1.0  0.04630  0.35974  0.39241  1.0000
  Fe  Fe62      1.0  0.04657  0.05595  0.38036  1.0000
  C   C571      1.0  0.06552  0.00827  0.49229  1.0000
  N   N33       1.0  0.41531  0.16417  0.56531  1.0000
  H   H1016     1.0  0.09824  0.01354  0.47895  1.0000
  C   C572      1.0  0.06042  0.99835  0.42805  1.0000
  H   H1017     1.0  0.09526  0.99690  0.44852  1.0000
  H   H1018     1.0  0.32543  0.27816  0.55196  1.0000
  H   H1019     1.0  0.31082  0.22834  0.55600  1.0000
  H   H1020     1.0  0.32144  0.31180  0.54227  1.0000
  H   H1021     1.0  0.39892  0.08384  0.56969  1.0000
  C   C573      1.0  0.10584  0.05297  0.57380  1.0000
  H   H1022     1.0  0.45966  0.02016  0.37799  1.0000
  C   C574      1.0  0.32167  0.27902  0.56630  1.0000
  H   H1023     1.0  0.43643  0.09146  0.39942  1.0000
  H   H1024     1.0  0.02211  0.05711  0.43873  1.0000
  C   C575      1.0  0.06907  0.99866  0.44348  1.0000
  C   C576      1.0  0.16391  0.08569  0.56264  1.0000
  S   S130      1.0  0.36414  0.10669  0.57588  1.0000
  C   C577      1.0  0.36043  0.26039  0.55615  1.0000
  C   C578      1.0  0.21826  0.14842  0.57145  1.0000
  H   H1025     1.0  0.22542  0.17375  0.40019  1.0000
  H   H1026     1.0  0.06569  0.47255  0.45022  1.0000
  H   H1027     1.0  0.18501  0.07008  0.39523  1.0000
  C   C579      1.0  0.32770  0.06638  0.56437  1.0000
  H   H1028     1.0  0.35545  0.27282  0.54703  1.0000
  H   H1029     1.0  0.24133  0.15297  0.40336  1.0000
  H   H1030     1.0  0.48076  0.35657  0.55086  1.0000
  H   H1031     1.0  0.29004  0.22813  0.57214  1.0000
  C   C580      1.0  0.43490  0.20723  0.54323  1.0000
  C   C581      1.0  0.23773  0.16547  0.39359  1.0000
  C   C582      1.0  0.24527  0.04480  0.57194  1.0000
  H   H1032     1.0  0.40663  0.19289  0.56223  1.0000
  C   C583      1.0  0.41852  0.07810  0.39296  1.0000
  Fe  Fe63      1.0  0.40858  0.98806  0.38189  1.0000
  C   C584      1.0  0.34937  0.25959  0.57553  1.0000
  H   H1033     1.0  0.99159  0.31871  0.42376  1.0000
  H   H1034     1.0  0.29864  0.25699  0.56712  1.0000
  H   H1035     1.0  0.22521  0.15786  0.57372  1.0000
  H   H1036     1.0  0.24890  0.17271  0.38980  1.0000
  C   C585      1.0  0.32679  0.29608  0.56801  1.0000
  H   H1037     1.0  0.00651  0.99405  0.43825  1.0000
  H   H1038     1.0  0.99161  0.40802  0.40772  1.0000
  C   C586      1.0  0.03273  0.98949  0.44564  1.0000
  C   C587      1.0  0.09378  0.98629  0.49199  1.0000
  C   C588      1.0  0.07833  0.47724  0.44799  1.0000
  H   H1039     1.0  0.16586  0.17015  0.38048  1.0000
  H   H1040     1.0  0.45884  0.11983  0.57021  1.0000
  H   H1041     1.0  0.36504  0.35736  0.55820  1.0000
  C   C589      1.0  0.30438  0.22850  0.57021  1.0000
  H   H1042     1.0  0.08329  0.48110  0.43336  1.0000
  H   H1043     1.0  0.42451  0.18366  0.57343  1.0000
  H   H1044     1.0  0.10860  0.06631  0.56668  1.0000
  H   H1045     1.0  0.48243  0.20235  0.57556  1.0000
  H   H1046     1.0  0.48792  0.38355  0.56016  1.0000
  H   H1047     1.0  0.03953  0.47500  0.53571  1.0000
  H   H1048     1.0  0.35254  0.33006  0.56802  1.0000
  C   C590      1.0  0.38522  0.34737  0.57413  1.0000
  H   H1049     1.0  0.05441  0.98277  0.40344  1.0000
  C   C591      1.0  0.03976  0.98808  0.40609  1.0000
  C   C592      1.0  0.36371  0.33076  0.57316  1.0000
  H   H1050     1.0  0.16284  0.09530  0.57059  1.0000
  H   H1051     1.0  0.09142  0.05339  0.57500  1.0000
  C   C593      1.0  0.06417  0.48119  0.51767  1.0000
  H   H1052     1.0  0.14258  0.14063  0.38591  1.0000
  C   C594      1.0  0.10177  0.43972  0.37718  1.0000
  C   C595      1.0  0.23451  0.16094  0.37722  1.0000
  H   H1053     1.0  0.26014  0.11081  0.37778  1.0000
  H   H1054     1.0  0.04058  0.00183  0.37830  1.0000
  H   H1055     1.0  0.12122  0.98305  0.69284  1.0000
  Fe  Fe64      1.0  0.37491  0.23283  0.62181  1.0000
  S   S131      1.0  0.39111  0.24877  0.59867  1.0000
  S   S132      1.0  0.36398  0.20891  0.62187  1.0000
  Fe  Fe65      1.0  0.37583  0.25529  0.64789  1.0000
  S   S133      1.0  0.39223  0.27291  0.62687  1.0000
  S   S134      1.0  0.36613  0.25766  0.67687  1.0000
  Fe  Fe66      1.0  0.37419  0.27274  0.60937  1.0000
  H   H1056     1.0  0.14361  0.02087  0.71889  1.0000
  Fe  Fe67      1.0  0.40786  0.24762  0.61808  1.0000
  H   H1057     1.0  0.35475  0.47680  0.66823  1.0000
  S   S135      1.0  0.35640  0.25699  0.63102  1.0000
  S   S136      1.0  0.39305  0.22978  0.64059  1.0000
  Fe  Fe68      1.0  0.42071  0.39021  0.60460  1.0000
  S   S137      1.0  0.40496  0.40207  0.62835  1.0000
  H   H1058     1.0  0.12534  0.10717  0.60210  1.0000
  Fe  Fe69      1.0  0.38370  0.31757  0.72908  1.0000
  S   S138      1.0  0.35390  0.32596  0.73660  1.0000
  S   S139      1.0  0.39674  0.31135  0.70195  1.0000
  Fe  Fe70      1.0  0.35983  0.34784  0.74593  1.0000
  S   S140      1.0  0.34216  0.37482  0.74000  1.0000
  S   S141      1.0  0.38947  0.34090  0.73623  1.0000
  Fe  Fe71      1.0  0.21825  0.08330  0.61883  1.0000
  S   S142      1.0  0.20662  0.10289  0.59676  1.0000
  H   H1059     1.0  0.03523  0.27741  0.71717  1.0000
  Fe  Fe72      1.0  0.18363  0.06969  0.63533  1.0000
  S   S143      1.0  0.16921  0.08855  0.61478  1.0000
  S   S144      1.0  0.16697  0.05200  0.65629  1.0000
  Fe  Fe73      1.0  0.19431  0.08100  0.59509  1.0000
  H   H1060     1.0  0.35644  0.45600  0.77353  1.0000
  Fe  Fe74      1.0  0.18274  0.10851  0.61868  1.0000
  S   S145      1.0  0.16819  0.13669  0.61952  1.0000
  S   S146      1.0  0.20807  0.06078  0.61537  1.0000
  S   S147      1.0  0.19514  0.09033  0.64096  1.0000
  Fe  Fe75      1.0  0.18006  0.16560  0.70198  1.0000
  S   S148      1.0  0.20328  0.15576  0.71576  1.0000
  S   S149      1.0  0.18288  0.17633  0.67247  1.0000
  S   S150      1.0  0.16415  0.18400  0.72026  1.0000
  S   S151      1.0  0.16636  0.14351  0.71719  1.0000
  H   H1061     1.0  0.47460  0.34857  0.73461  1.0000
  Fe  Fe76      1.0  0.43049  0.43250  0.70058  1.0000
  S   S152      1.0  0.40587  0.45226  0.69425  1.0000
  S   S153      1.0  0.44431  0.41073  0.68494  1.0000
  Fe  Fe77      1.0  0.43135  0.44935  0.73093  1.0000
  S   S154      1.0  0.40677  0.47022  0.72692  1.0000
  S   S155      1.0  0.44359  0.44810  0.75402  1.0000
  Fe  Fe78      1.0  0.39607  0.44779  0.72381  1.0000
  S   S156      1.0  0.36754  0.44556  0.73575  1.0000
  C   C596      1.0  0.44062  0.31544  0.73894  1.0000
  S   S157      1.0  0.41967  0.42655  0.73019  1.0000
  H   H1062     1.0  0.40711  0.30804  0.62796  1.0000
  C   C597      1.0  0.29741  0.30096  0.75665  1.0000
  C   C598      1.0  0.17231  0.14691  0.63490  1.0000
  C   C599      1.0  0.17710  0.13714  0.65105  1.0000
  C   C600      1.0  0.17959  0.14605  0.66322  1.0000
  C   C601      1.0  0.17796  0.16462  0.65888  1.0000
  C   C602      1.0  0.17338  0.17423  0.64268  1.0000
  C   C603      1.0  0.17027  0.16546  0.63090  1.0000
  H   H1063     1.0  0.17853  0.12283  0.65432  1.0000
  H   H1064     1.0  0.18324  0.13855  0.67570  1.0000
  H   H1065     1.0  0.17215  0.18857  0.63925  1.0000
  H   H1066     1.0  0.16650  0.17309  0.61851  1.0000
  H   H1067     1.0  0.37210  0.47108  0.68099  1.0000
  H   H1068     1.0  0.16420  0.02113  0.58805  1.0000
  S   S158      1.0  0.40823  0.40114  0.58067  1.0000
  H   H1069     1.0  0.23136  0.00653  0.67532  1.0000
  H   H1070     1.0  0.29825  0.02371  0.62252  1.0000
  C   C604      1.0  0.39261  0.33289  0.58631  1.0000
  H   H1071     1.0  0.22058  0.19509  0.61366  1.0000
  C   C605      1.0  0.17099  0.03052  0.65197  1.0000
  C   C606      1.0  0.18744  0.02357  0.64196  1.0000
  C   C607      1.0  0.19074  0.00650  0.63840  1.0000
  C   C608      1.0  0.17771  0.99612  0.64512  1.0000
  C   C609      1.0  0.16148  0.00266  0.65585  1.0000
  C   C610      1.0  0.15805  0.01996  0.65915  1.0000
  H   H1072     1.0  0.19784  0.03113  0.63726  1.0000
  H   H1073     1.0  0.20343  0.00134  0.63038  1.0000
  H   H1074     1.0  0.02237  0.26026  0.72823  1.0000
  H   H1075     1.0  0.14530  0.02520  0.66704  1.0000
  C   C611      1.0  0.18868  0.00823  0.73759  1.0000
  C   C612      1.0  0.35004  0.39394  0.73907  1.0000
  C   C613      1.0  0.33786  0.41029  0.73823  1.0000
  C   C614      1.0  0.34348  0.42594  0.73721  1.0000
  C   C615      1.0  0.36145  0.42551  0.73647  1.0000
  C   C616      1.0  0.37382  0.40918  0.73712  1.0000
  C   C617      1.0  0.36800  0.39330  0.73881  1.0000
  H   H1076     1.0  0.32396  0.41085  0.73849  1.0000
  H   H1077     1.0  0.33388  0.43848  0.73682  1.0000
  C   C618      1.0  0.26739  0.13206  0.59663  1.0000
  H   H1078     1.0  0.19588  0.01109  0.59318  1.0000
  C   C619      1.0  0.41663  0.40464  0.64330  1.0000
  C   C620      1.0  0.43440  0.39587  0.64357  1.0000
  C   C621      1.0  0.44288  0.39781  0.65637  1.0000
  C   C622      1.0  0.43367  0.40863  0.66876  1.0000
  C   C623      1.0  0.41596  0.41737  0.66831  1.0000
  C   C624      1.0  0.40750  0.41537  0.65566  1.0000
  H   H1079     1.0  0.44151  0.38746  0.63410  1.0000
  H   H1080     1.0  0.45658  0.39095  0.65665  1.0000
  H   H1081     1.0  0.40852  0.42519  0.67808  1.0000
  H   H1082     1.0  0.39377  0.42212  0.65548  1.0000
  C   C625      1.0  0.37345  0.27354  0.68374  1.0000
  C   C626      1.0  0.38068  0.28725  0.67134  1.0000
  C   C627      1.0  0.38752  0.29902  0.67704  1.0000
  C   C628      1.0  0.38678  0.29739  0.69524  1.0000
  C   C629      1.0  0.37882  0.28420  0.70774  1.0000
  C   C630      1.0  0.37237  0.27217  0.70196  1.0000
  H   H1083     1.0  0.38109  0.28874  0.65733  1.0000
  H   H1084     1.0  0.39359  0.30926  0.66731  1.0000
  H   H1085     1.0  0.37824  0.28284  0.72181  1.0000
  H   H1086     1.0  0.36703  0.26144  0.71156  1.0000
  H   H1087     1.0  0.41739  0.47307  0.65865  1.0000
  C   C631      1.0  0.31334  0.30203  0.76080  1.0000
  H   H1088     1.0  0.29265  0.31014  0.74534  1.0000
  H   H1089     1.0  0.32592  0.03779  0.59323  1.0000
  Fe  Fe79      1.0  0.11044  0.02055  0.76387  1.0000
  H   H1090     1.0  0.47431  0.10556  0.60615  1.0000
  C   C632      1.0  0.45773  0.19306  0.58648  1.0000
  C   C633      1.0  0.15580  0.19853  0.77588  1.0000
  H   H1091     1.0  0.40264  0.47979  0.60051  1.0000
  C   C634      1.0  0.41866  0.46694  0.63275  1.0000
  H   H1092     1.0  0.32064  0.31217  0.75285  1.0000
  C   C635      1.0  0.11519  0.99984  0.71207  1.0000
  S   S159      1.0  0.19695  0.19664  0.73794  1.0000
  H   H1093     1.0  0.40386  0.17816  0.59880  1.0000
  C   C636      1.0  0.17663  0.02187  0.72541  1.0000
  C   C637      1.0  0.43431  0.21209  0.60382  1.0000
  H   H1094     1.0  0.44439  0.34277  0.75294  1.0000
  H   H1095     1.0  0.12787  0.09327  0.62357  1.0000
  C   C638      1.0  0.27950  0.11570  0.59859  1.0000
  H   H1096     1.0  0.42087  0.21472  0.61162  1.0000
  H   H1097     1.0  0.31320  0.48008  0.61335  1.0000
  C   C639      1.0  0.34331  0.18989  0.59046  1.0000
  H   H1098     1.0  0.12982  0.06936  0.69850  1.0000
  C   C640      1.0  0.25475  0.10025  0.61147  1.0000
  C   C641      1.0  0.24264  0.11664  0.60959  1.0000
  C   C642      1.0  0.24898  0.13251  0.60228  1.0000
  H   H1099     1.0  0.22840  0.11709  0.61378  1.0000
  H   H1100     1.0  0.36222  0.45392  0.67885  1.0000
  H   H1101     1.0  0.30940  0.07788  0.61449  1.0000
  C   C643      1.0  0.11025  0.01220  0.64652  1.0000
  H   H1102     1.0  0.44466  0.31059  0.75207  1.0000
  C   C644      1.0  0.35964  0.20447  0.60282  1.0000
  C   C645      1.0  0.34740  0.19358  0.60520  1.0000
  H   H1103     1.0  0.21606  0.02714  0.66889  1.0000
  H   H1104     1.0  0.20188  0.00715  0.75882  1.0000
  H   H1105     1.0  0.34092  0.18807  0.61856  1.0000
  H   H1106     1.0  0.48690  0.08450  0.58392  1.0000
  H   H1107     1.0  0.18450  0.98758  0.71962  1.0000
  C   C646      1.0  0.19335  0.01721  0.75022  1.0000
  H   H1108     1.0  0.44731  0.29531  0.62819  1.0000
  H   H1109     1.0  0.19086  0.03343  0.58029  1.0000
  H   H1110     1.0  0.39272  0.45796  0.58858  1.0000
  H   H1111     1.0  0.42487  0.31955  0.61563  1.0000
  C   C647      1.0  0.39965  0.45360  0.61439  1.0000
  C   C648      1.0  0.44885  0.46818  0.75483  1.0000
  N   N34       1.0  0.43981  0.26547  0.65686  1.0000
  C   C649      1.0  0.42912  0.27701  0.64326  1.0000
  C   C650      1.0  0.43567  0.24705  0.66157  1.0000
  C   C651      1.0  0.43478  0.27389  0.67299  1.0000
  C   C652      1.0  0.45964  0.26394  0.64958  1.0000
  C   C653      1.0  0.43312  0.29595  0.63514  1.0000
  C   C654      1.0  0.44238  0.26261  0.68954  1.0000
  C   C655      1.0  0.41619  0.24568  0.67131  1.0000
  H   H1112     1.0  0.00789  0.30079  0.72371  1.0000
  C   C656      1.0  0.43526  0.27209  0.70528  1.0000
  H   H1113     1.0  0.41461  0.27898  0.64933  1.0000
  H   H1114     1.0  0.43074  0.27018  0.63213  1.0000
  H   H1115     1.0  0.43798  0.24172  0.64928  1.0000
  H   H1116     1.0  0.44504  0.23746  0.66964  1.0000
  H   H1117     1.0  0.42001  0.27760  0.67719  1.0000
  H   H1118     1.0  0.43935  0.28674  0.66963  1.0000
  C   C657      1.0  0.36388  0.46448  0.77677  1.0000
  C   C658      1.0  0.21233  0.18558  0.76788  1.0000
  H   H1119     1.0  0.33199  0.27473  0.70066  1.0000
  H   H1120     1.0  0.43016  0.30387  0.64561  1.0000
  H   H1121     1.0  0.45720  0.26047  0.68658  1.0000
  H   H1122     1.0  0.43850  0.24943  0.69397  1.0000
  H   H1123     1.0  0.41186  0.25160  0.68336  1.0000
  H   H1124     1.0  0.29473  0.25418  0.75406  1.0000
  H   H1125     1.0  0.31854  0.23361  0.63899  1.0000
  H   H1126     1.0  0.42404  0.29892  0.61054  1.0000
  H   H1127     1.0  0.42049  0.27351  0.70949  1.0000
  H   H1128     1.0  0.44136  0.26416  0.71678  1.0000
  H   H1129     1.0  0.43854  0.28555  0.70167  1.0000
  H   H1130     1.0  0.13648  0.03259  0.58620  1.0000
  H   H1131     1.0  0.29768  0.02713  0.59914  1.0000
  C   C659      1.0  0.44041  0.19661  0.59675  1.0000
  H   H1132     1.0  0.36088  0.40027  0.77474  1.0000
  H   H1133     1.0  0.10264  0.05947  0.59909  1.0000
  H   H1134     1.0  0.44922  0.46140  0.65981  1.0000
  H   H1135     1.0  0.25051  0.09679  0.58028  1.0000
  H   H1136     1.0  0.41644  0.45317  0.63849  1.0000
  N   N35       1.0  0.40177  0.47958  0.62818  1.0000
  Fe  Fe80      1.0  0.18682  0.17331  0.73503  1.0000
  H   H1137     1.0  0.39360  0.43551  0.60142  1.0000
  C   C660      1.0  0.42714  0.47180  0.64601  1.0000
  H   H1138     1.0  0.99555  0.32092  0.74045  1.0000
  H   H1139     1.0  0.39139  0.30600  0.60098  1.0000
  C   C661      1.0  0.35896  0.03893  0.58751  1.0000
  C   C662      1.0  0.28011  0.14596  0.63437  1.0000
  H   H1140     1.0  0.35497  0.24661  0.58349  1.0000
  Fe  Fe81      1.0  0.41904  0.47249  0.69790  1.0000
  H   H1141     1.0  0.29985  0.24823  0.63007  1.0000
  H   H1142     1.0  0.46042  0.26628  0.62093  1.0000
  C   C663      1.0  0.23587  0.18280  0.66456  1.0000
  C   C664      1.0  0.12473  0.13500  0.70654  1.0000
  H   H1143     1.0  0.18581  0.09292  0.70642  1.0000
  H   H1144     1.0  0.11132  0.98488  0.75681  1.0000
  H   H1145     1.0  0.29373  0.11526  0.59444  1.0000
  H   H1146     1.0  0.21947  0.15576  0.63040  1.0000
  S   S160      1.0  0.44470  0.45319  0.70196  1.0000
  C   C665      1.0  0.13730  0.98501  0.58960  1.0000
  C   C666      1.0  0.22244  0.16858  0.63079  1.0000
  C   C667      1.0  0.24209  0.16580  0.63245  1.0000
  H   H1147     1.0  0.20498  0.18267  0.61230  1.0000
  C   C668      1.0  0.39000  0.15785  0.61522  1.0000
  S   S161      1.0  0.10651  0.02114  0.73659  1.0000
  Fe  Fe82      1.0  0.18784  0.13499  0.73306  1.0000
  C   C669      1.0  0.11227  0.00041  0.73015  1.0000
  H   H1148     1.0  0.41869  0.21940  0.66585  1.0000
  S   S162      1.0  0.17345  0.15147  0.75384  1.0000
  H   H1149     1.0  0.02612  0.29721  0.77228  1.0000
  H   H1150     1.0  0.15148  0.99454  0.66132  1.0000
  S   S163      1.0  0.47622  0.34461  0.58959  1.0000
  H   H1151     1.0  0.48919  0.34676  0.70291  1.0000
  H   H1152     1.0  0.21300  0.17412  0.64196  1.0000
  H   H1153     1.0  0.11083  0.00271  0.63811  1.0000
  H   H1154     1.0  0.48908  0.11777  0.60962  1.0000
  H   H1155     1.0  0.30188  0.15687  0.63682  1.0000
  H   H1156     1.0  0.25492  0.12636  0.66001  1.0000
  H   H1157     1.0  0.34734  0.08476  0.60823  1.0000
  C   C670      1.0  0.26615  0.15463  0.64915  1.0000
  C   C671      1.0  0.24491  0.13574  0.65249  1.0000
  H   H1158     1.0  0.13607  0.05560  0.58021  1.0000
  H   H1159     1.0  0.22286  0.23220  0.76278  1.0000
  C   C672      1.0  0.15045  0.04627  0.70529  1.0000
  C   C673      1.0  0.44625  0.33313  0.72949  1.0000
  H   H1160     1.0  0.09860  0.08079  0.73549  1.0000
  S   S164      1.0  0.19726  0.10504  0.73994  1.0000
  H   H1161     1.0  0.37461  0.45850  0.64676  1.0000
  C   C674      1.0  0.36577  0.48024  0.76106  1.0000
  H   H1162     1.0  0.30596  0.26652  0.59870  1.0000
  H   H1163     1.0  0.14788  0.99188  0.58969  1.0000
  C   C675      1.0  0.15966  0.09066  0.70395  1.0000
  C   C676      1.0  0.36660  0.46660  0.67174  1.0000
  C   C677      1.0  0.47121  0.29926  0.58440  1.0000
  H   H1164     1.0  0.30627  0.28959  0.68517  1.0000
  H   H1165     1.0  0.16410  0.02620  0.73479  1.0000
  S   S165      1.0  0.24728  0.08003  0.61948  1.0000
  C   C678      1.0  0.14651  0.09768  0.75803  1.0000
  H   H1166     1.0  0.39251  0.16021  0.62750  1.0000
  H   H1167     1.0  0.13339  0.10624  0.75995  1.0000
  C   C679      1.0  0.46909  0.20495  0.58356  1.0000
  H   H1168     1.0  0.29742  0.27901  0.72962  1.0000
  H   H1169     1.0  0.29847  0.26836  0.71237  1.0000
  H   H1170     1.0  0.12061  0.00984  0.57843  1.0000
  C   C680      1.0  0.32140  0.04640  0.60323  1.0000
  H   H1171     1.0  0.10992  0.13898  0.70841  1.0000
  C   C681      1.0  0.38081  0.46354  0.65500  1.0000
  H   H1172     1.0  0.02955  0.31476  0.73419  1.0000
  H   H1173     1.0  0.42910  0.46594  0.62034  1.0000
  H   H1174     1.0  0.29410  0.22804  0.73146  1.0000
  H   H1175     1.0  0.21019  0.18836  0.68295  1.0000
  H   H1176     1.0  0.08008  0.09710  0.74417  1.0000
  H   H1177     1.0  0.29533  0.05956  0.59561  1.0000
  C   C682      1.0  0.36814  0.21133  0.58552  1.0000
  H   H1178     1.0  0.37643  0.16548  0.61350  1.0000
  C   C683      1.0  0.18591  0.01941  0.69357  1.0000
  H   H1179     1.0  0.23654  0.10212  0.66666  1.0000
  H   H1180     1.0  0.30885  0.13849  0.62547  1.0000
  C   C684      1.0  0.42155  0.30618  0.62150  1.0000
  H   H1181     1.0  0.16139  0.99368  0.72866  1.0000
  H   H1182     1.0  0.18597  0.03389  0.68947  1.0000
  H   H1183     1.0  0.40383  0.33369  0.59130  1.0000
  C   C685      1.0  0.16772  0.98779  0.70217  1.0000
  H   H1184     1.0  0.32155  0.23316  0.60733  1.0000
  H   H1185     1.0  0.09679  0.01406  0.65538  1.0000
  S   S166      1.0  0.32752  0.15010  0.58286  1.0000
  H   H1186     1.0  0.18574  0.07310  0.69925  1.0000
  H   H1187     1.0  0.15965  0.11973  0.74854  1.0000
  C   C686      1.0  0.02166  0.27430  0.72077  1.0000
  H   H1188     1.0  0.46355  0.27691  0.64787  1.0000
  H   H1189     1.0  0.02804  0.32257  0.75414  1.0000
  H   H1190     1.0  0.99528  0.28341  0.73466  1.0000
  H   H1191     1.0  0.18249  0.03402  0.71978  1.0000
  H   H1192     1.0  0.42589  0.31701  0.74103  1.0000
  C   C687      1.0  0.15116  0.11077  0.70308  1.0000
  H   H1193     1.0  0.16068  0.05302  0.59202  1.0000
  H   H1194     1.0  0.18190  0.01630  0.68250  1.0000
  H   H1195     1.0  0.22607  0.11196  0.64759  1.0000
  H   H1196     1.0  0.23043  0.19158  0.65298  1.0000
  C   C688      1.0  0.11911  0.98339  0.70678  1.0000
  H   H1197     1.0  0.46108  0.33050  0.72688  1.0000
  C   C689      1.0  0.11963  0.99867  0.59020  1.0000
  H   H1198     1.0  0.35692  0.06732  0.58528  1.0000
  C   C690      1.0  0.32742  0.24074  0.71886  1.0000
  H   H1199     1.0  0.24953  0.18471  0.66348  1.0000
  H   H1200     1.0  0.09589  0.11012  0.71405  1.0000
  C   C691      1.0  0.40030  0.16220  0.58152  1.0000
  H   H1201     1.0  0.20134  0.00173  0.72983  1.0000
  H   H1202     1.0  0.32164  0.33988  0.77285  1.0000
  H   H1203     1.0  0.09702  0.12086  0.73115  1.0000
  C   C692      1.0  0.11353  0.98450  0.74289  1.0000
  H   H1204     1.0  0.35241  0.26961  0.58125  1.0000
  C   C693      1.0  0.44332  0.45743  0.65050  1.0000
  H   H1205     1.0  0.31309  0.36310  0.77364  1.0000
  C   C694      1.0  0.00848  0.28711  0.73191  1.0000
  C   C695      1.0  0.32786  0.25814  0.74032  1.0000
  C   C696      1.0  0.27313  0.09986  0.60602  1.0000
  H   H1206     1.0  0.40684  0.25260  0.66220  1.0000
  S   S167      1.0  0.43787  0.24324  0.61003  1.0000
  C   C697      1.0  0.12613  0.16784  0.69598  1.0000
  H   H1207     1.0  0.17828  0.98858  0.68983  1.0000
  H   H1208     1.0  0.20935  0.17264  0.76937  1.0000
  S   S168      1.0  0.13824  0.02116  0.76493  1.0000
  H   H1209     1.0  0.19219  0.02995  0.60333  1.0000
  C   C698      1.0  0.42772  0.38620  0.77542  1.0000
  H   H1210     1.0  0.30688  0.24050  0.70434  1.0000
  C   C699      1.0  0.30194  0.24507  0.74468  1.0000
  H   H1211     1.0  0.15447  0.11426  0.71440  1.0000
  C   C700      1.0  0.21191  0.21605  0.75183  1.0000
  C   C701      1.0  0.42409  0.37883  0.76097  1.0000
  H   H1212     1.0  0.16076  0.05218  0.69477  1.0000
  H   H1213     1.0  0.34847  0.41894  0.57958  1.0000
  H   H1214     1.0  0.14111  0.11566  0.64215  1.0000
  C   C702      1.0  0.13913  0.11586  0.66991  1.0000
  H   H1215     1.0  0.00997  0.35175  0.74215  1.0000
  H   H1216     1.0  0.12749  0.10478  0.73245  1.0000
  H   H1217     1.0  0.32293  0.25372  0.69180  1.0000
  H   H1218     1.0  0.33360  0.18177  0.59252  1.0000
  H   H1219     1.0  0.37488  0.45295  0.60748  1.0000
  C   C703      1.0  0.48709  0.25659  0.62562  1.0000
  H   H1220     1.0  0.19388  0.06776  0.75064  1.0000
  C   C704      1.0  0.31059  0.29642  0.69345  1.0000
  C   C705      1.0  0.44565  0.22391  0.60104  1.0000
  H   H1221     1.0  0.16630  0.01331  0.61093  1.0000
  H   H1222     1.0  0.44712  0.30523  0.73067  1.0000
  H   H1223     1.0  0.39998  0.22566  0.68323  1.0000
  C   C706      1.0  0.10186  0.10845  0.72576  1.0000
  C   C707      1.0  0.33216  0.22573  0.69276  1.0000
  H   H1224     1.0  0.12803  0.13634  0.71896  1.0000
  C   C708      1.0  0.32403  0.07256  0.61232  1.0000
  C   C709      1.0  0.35202  0.24754  0.75877  1.0000
  H   H1225     1.0  0.34663  0.22613  0.68944  1.0000
  H   H1226     1.0  0.15161  0.02307  0.69550  1.0000
  C   C710      1.0  0.33258  0.08884  0.60979  1.0000
  H   H1227     1.0  0.33875  0.26406  0.73061  1.0000
  C   C711      1.0  0.99366  0.22925  0.77132  1.0000
  C   C712      1.0  0.12261  0.10419  0.72072  1.0000
  C   C713      1.0  0.32545  0.09783  0.62585  1.0000
  C   C714      1.0  0.29343  0.03339  0.61100  1.0000
  H   H1228     1.0  0.17602  0.27948  0.74341  1.0000
  C   C715      1.0  0.19833  0.15420  0.57907  1.0000
  C   C716      1.0  0.33698  0.24248  0.75350  1.0000
  H   H1229     1.0  0.32657  0.06342  0.62511  1.0000
  H   H1230     1.0  0.32706  0.23902  0.76594  1.0000
  H   H1231     1.0  0.38969  0.44765  0.76855  1.0000
  H   H1232     1.0  0.32012  0.26862  0.74798  1.0000
  C   C717      1.0  0.16147  0.10543  0.75109  1.0000
  H   H1233     1.0  0.29500  0.05648  0.61909  1.0000
  C   C718      1.0  0.46311  0.22029  0.59100  1.0000
  S   S169      1.0  0.12356  0.15877  0.74763  1.0000
  C   C719      1.0  0.17177  0.99594  0.71620  1.0000
  H   H1234     1.0  0.26494  0.05145  0.58277  1.0000
  Fe  Fe83      1.0  0.15250  0.16076  0.73712  1.0000
  H   H1235     1.0  0.21253  0.10925  0.66976  1.0000
  H   H1236     1.0  0.32016  0.30458  0.68449  1.0000
  C   C720      1.0  0.30695  0.27080  0.72029  1.0000
  H   H1237     1.0  0.15005  0.05019  0.71789  1.0000
  N   N36       1.0  0.31601  0.25352  0.73066  1.0000
  C   C721      1.0  0.37932  0.03645  0.58211  1.0000
  C   C722      1.0  0.28776  0.23962  0.73797  1.0000
  H   H1238     1.0  0.33198  0.10927  0.62369  1.0000
  H   H1239     1.0  0.31075  0.10293  0.62752  1.0000
  H   H1240     1.0  0.32849  0.08832  0.63821  1.0000
  H   H1241     1.0  0.25026  0.15939  0.62122  1.0000
  S   S170      1.0  0.44813  0.39393  0.58951  1.0000
  H   H1242     1.0  0.22490  0.13105  0.67729  1.0000
  H   H1243     1.0  0.32788  0.22677  0.68017  1.0000
  H   H1244     1.0  0.24572  0.17908  0.62944  1.0000
  H   H1245     1.0  0.24802  0.13174  0.63937  1.0000
  C   C723      1.0  0.20560  0.00985  0.69367  1.0000
  C   C724      1.0  0.23564  0.16300  0.66559  1.0000
  H   H1246     1.0  0.22133  0.16256  0.66769  1.0000
  H   H1247     1.0  0.30139  0.13430  0.64940  1.0000
  N   N37       1.0  0.17254  0.01552  0.71072  1.0000
  C   C725      1.0  0.16551  0.06825  0.76031  1.0000
  C   C726      1.0  0.45366  0.46956  0.77018  1.0000
  H   H1248     1.0  0.27917  0.15470  0.62112  1.0000
  H   H1249     1.0  0.27816  0.13263  0.63423  1.0000
  H   H1250     1.0  0.22468  0.20342  0.68022  1.0000
  H   H1251     1.0  0.41296  0.38862  0.75550  1.0000
  H   H1252     1.0  0.32892  0.22678  0.72670  1.0000
  H   H1253     1.0  0.38124  0.47929  0.61472  1.0000
  H   H1254     1.0  0.15956  0.25486  0.76255  1.0000
  H   H1255     1.0  0.41742  0.15596  0.60157  1.0000
  H   H1256     1.0  0.21282  0.00626  0.66617  1.0000
  N   N38       1.0  0.24676  0.15490  0.64988  1.0000
  H   H1257     1.0  0.35496  0.05427  0.60717  1.0000
  H   H1258     1.0  0.26846  0.16837  0.64668  1.0000
  H   H1259     1.0  0.23990  0.15490  0.67812  1.0000
  C   C727      1.0  0.29920  0.14379  0.63676  1.0000
  H   H1260     1.0  0.22943  0.18121  0.69337  1.0000
  H   H1261     1.0  0.12138  0.04972  0.71051  1.0000
  H   H1262     1.0  0.48111  0.30183  0.59065  1.0000
  Fe  Fe84      1.0  0.38951  0.32337  0.76349  1.0000
  N   N39       1.0  0.44000  0.36660  0.73219  1.0000
  C   C728      1.0  0.45664  0.36766  0.71776  1.0000
  C   C729      1.0  0.42379  0.37683  0.72446  1.0000
  C   C730      1.0  0.44107  0.37603  0.74610  1.0000
  C   C731      1.0  0.43809  0.34761  0.74103  1.0000
  C   C732      1.0  0.47463  0.36099  0.72422  1.0000
  C   C733      1.0  0.21995  0.21922  0.76429  1.0000
  C   C734      1.0  0.42155  0.37178  0.70768  1.0000
  C   C735      1.0  0.40449  0.38311  0.70168  1.0000
  H   H1263     1.0  0.39637  0.14913  0.58371  1.0000
  H   H1264     1.0  0.45640  0.38175  0.71056  1.0000
  H   H1265     1.0  0.45709  0.36042  0.70735  1.0000
  H   H1266     1.0  0.41125  0.37537  0.73455  1.0000
  H   H1267     1.0  0.42394  0.39136  0.72082  1.0000
  H   H1268     1.0  0.44427  0.38945  0.73963  1.0000
  H   H1269     1.0  0.45221  0.36851  0.75301  1.0000
  H   H1270     1.0  0.42371  0.34707  0.74658  1.0000
  H   H1271     1.0  0.44232  0.33710  0.71641  1.0000
  H   H1272     1.0  0.47694  0.37133  0.73009  1.0000
  H   H1273     1.0  0.45886  0.29781  0.59471  1.0000
  H   H1274     1.0  0.16535  0.18795  0.76937  1.0000
  H   H1275     1.0  0.43293  0.37405  0.69637  1.0000
  H   H1276     1.0  0.42023  0.35774  0.71053  1.0000
  H   H1277     1.0  0.40314  0.39741  0.70166  1.0000
  H   H1278     1.0  0.40478  0.38189  0.68798  1.0000
  H   H1279     1.0  0.39262  0.37843  0.71069  1.0000
  H   H1280     1.0  0.18098  0.02305  0.75899  1.0000
  H   H1281     1.0  0.12035  0.00644  0.65505  1.0000
  C   C736      1.0  0.13234  0.05472  0.70005  1.0000
  H   H1282     1.0  0.01709  0.27558  0.70828  1.0000
  C   C737      1.0  0.18793  0.02479  0.59367  1.0000
  H   H1283     1.0  0.28233  0.08722  0.60725  1.0000
  C   C738      1.0  0.32792  0.47550  0.61220  1.0000
  H   H1284     1.0  0.20859  0.22670  0.74079  1.0000
  C   C739      1.0  0.02090  0.32327  0.74355  1.0000
  C   C740      1.0  0.25687  0.04105  0.58576  1.0000
  S   S171      1.0  0.36021  0.33228  0.77383  1.0000
  C   C741      1.0  0.41426  0.22622  0.67734  1.0000
  H   H1285     1.0  0.01140  0.34420  0.72205  1.0000
  H   H1286     1.0  0.16713  0.05393  0.76455  1.0000
  H   H1287     1.0  0.10776  0.09582  0.61540  1.0000
  C   C742      1.0  0.09490  0.09351  0.74032  1.0000
  H   H1288     1.0  0.03138  0.34649  0.72753  1.0000
  H   H1289     1.0  0.37733  0.38063  0.73996  1.0000
  C   C743      1.0  0.16940  0.25074  0.77143  1.0000
  C   C744      1.0  0.18527  0.27561  0.75283  1.0000
  H   H1290     1.0  0.14651  0.14661  0.68706  1.0000
  C   C745      1.0  0.18002  0.08762  0.69796  1.0000
  C   C746      1.0  0.12571  0.11341  0.68813  1.0000
  C   C747      1.0  0.13112  0.11426  0.65491  1.0000
  H   H1291     1.0  0.11270  0.12257  0.68630  1.0000
  H   H1292     1.0  0.43170  0.18734  0.59937  1.0000
  C   C748      1.0  0.22667  0.13097  0.66293  1.0000
  H   H1293     1.0  0.37799  0.21929  0.58359  1.0000
  H   H1294     1.0  0.12755  0.10100  0.65766  1.0000
  H   H1295     1.0  0.14297  0.12897  0.66629  1.0000
  C   C749      1.0  0.14842  0.07915  0.76330  1.0000
  H   H1296     1.0  0.39215  0.45324  0.65935  1.0000
  H   H1297     1.0  0.13217  0.05170  0.68717  1.0000
  C   C750      1.0  0.01820  0.34260  0.73319  1.0000
  H   H1298     1.0  0.12597  0.15069  0.67925  1.0000
  C   C751      1.0  0.39583  0.47392  0.61415  1.0000
  H   H1299     1.0  0.28121  0.25072  0.72855  1.0000
  H   H1300     1.0  0.11905  0.12496  0.65331  1.0000
  H   H1301     1.0  0.08672  0.16285  0.76533  1.0000
  H   H1302     1.0  0.26973  0.14766  0.66229  1.0000
  H   H1303     1.0  0.12305  0.09981  0.69043  1.0000
  H   H1304     1.0  0.21538  0.14062  0.65789  1.0000
  H   H1305     1.0  0.12662  0.08996  0.71945  1.0000
  S   S172      1.0  0.38639  0.29928  0.75545  1.0000
  C   C752      1.0  0.22434  0.18925  0.68131  1.0000
  C   C753      1.0  0.32115  0.24121  0.70167  1.0000
  C   C754      1.0  0.21712  0.01267  0.67484  1.0000
  H   H1306     1.0  0.44463  0.48181  0.72851  1.0000
  H   H1307     1.0  0.43249  0.39889  0.76952  1.0000
  H   H1308     1.0  0.15844  0.11851  0.69091  1.0000
  H   H1309     1.0  0.15666  0.08311  0.71793  1.0000
  H   H1310     1.0  0.34134  0.24318  0.71419  1.0000
  C   C755      1.0  0.13175  0.14951  0.69096  1.0000
  H   H1311     1.0  0.18384  0.09430  0.68379  1.0000
  C   C756      1.0  0.21893  0.18162  0.61353  1.0000
  H   H1312     1.0  0.32571  0.03776  0.61554  1.0000
  H   H1313     1.0  0.31716  0.25738  0.63354  1.0000
  S   S173      1.0  0.42477  0.36172  0.60222  1.0000
  H   H1314     1.0  0.39585  0.44554  0.62784  1.0000
  H   H1315     1.0  0.13302  0.18154  0.76540  1.0000
  N   N40       1.0  0.36442  0.36426  0.67072  1.0000
  C   C757      1.0  0.36178  0.38390  0.67051  1.0000
  C   C758      1.0  0.36315  0.36148  0.65288  1.0000
  C   C759      1.0  0.34942  0.35728  0.68472  1.0000
  C   C760      1.0  0.38195  0.35378  0.67566  1.0000
  C   C761      1.0  0.39920  0.35952  0.66368  1.0000
  C   C762      1.0  0.35954  0.38883  0.68885  1.0000
  C   C763      1.0  0.34916  0.33734  0.68673  1.0000
  C   C764      1.0  0.36958  0.37512  0.63593  1.0000
  C   C765      1.0  0.37125  0.36860  0.61889  1.0000
  C   C766      1.0  0.41581  0.34824  0.67062  1.0000
  C   C767      1.0  0.36182  0.40787  0.68677  1.0000
  C   C768      1.0  0.33162  0.33286  0.69850  1.0000
  H   H1316     1.0  0.34950  0.39135  0.66535  1.0000
  H   H1317     1.0  0.37285  0.38975  0.66107  1.0000
  H   H1318     1.0  0.37056  0.34787  0.65089  1.0000
  H   H1319     1.0  0.34901  0.36191  0.65256  1.0000
  H   H1320     1.0  0.33623  0.36551  0.68208  1.0000
  H   H1321     1.0  0.35003  0.35851  0.69824  1.0000
  H   H1322     1.0  0.38194  0.35360  0.68974  1.0000
  H   H1323     1.0  0.38363  0.33956  0.67515  1.0000
  H   H1324     1.0  0.39904  0.37364  0.66318  1.0000
  H   H1325     1.0  0.40095  0.35742  0.65000  1.0000
  H   H1326     1.0  0.34587  0.38799  0.69688  1.0000
  H   H1327     1.0  0.36930  0.37974  0.69661  1.0000
  H   H1328     1.0  0.36014  0.32882  0.69330  1.0000
  H   H1329     1.0  0.35081  0.33363  0.67375  1.0000
  H   H1330     1.0  0.35987  0.38810  0.63537  1.0000
  H   H1331     1.0  0.38270  0.37763  0.63575  1.0000
  H   H1332     1.0  0.35822  0.36634  0.61806  1.0000
  H   H1333     1.0  0.37558  0.37878  0.60704  1.0000
  H   H1334     1.0  0.38146  0.35601  0.61843  1.0000
  H   H1335     1.0  0.41759  0.33409  0.66977  1.0000
  H   H1336     1.0  0.42785  0.35332  0.66240  1.0000
  H   H1337     1.0  0.41467  0.34890  0.68470  1.0000
  H   H1338     1.0  0.35849  0.41142  0.70009  1.0000
  H   H1339     1.0  0.37591  0.40886  0.68078  1.0000
  H   H1340     1.0  0.35286  0.41754  0.67836  1.0000
  H   H1341     1.0  0.32861  0.33750  0.71125  1.0000
  H   H1342     1.0  0.32037  0.33916  0.69147  1.0000
  H   H1343     1.0  0.33282  0.31819  0.70170  1.0000
  C   C769      1.0  0.15419  0.02565  0.70762  1.0000
  H   H1344     1.0  0.19072  0.14462  0.57805  1.0000
  C   C770      1.0  0.20800  0.19928  0.75358  1.0000
  H   H1345     1.0  0.10247  0.03614  0.62785  1.0000
  C   C771      1.0  0.31973  0.28275  0.70757  1.0000
  H   H1346     1.0  0.32934  0.09909  0.59795  1.0000
  C   C772      1.0  0.32497  0.24449  0.61062  1.0000
  C   C773      1.0  0.31444  0.24611  0.62943  1.0000
  C   C774      1.0  0.17860  0.09478  0.74829  1.0000
  S   S174      1.0  0.26793  0.28662  0.76149  1.0000
  H   H1347     1.0  0.32395  0.29015  0.71540  1.0000
  H   H1348     1.0  0.29878  0.30539  0.69989  1.0000
  H   H1349     1.0  0.34280  0.23046  0.74760  1.0000
  H   H1350     1.0  0.11307  0.03882  0.64420  1.0000
  C   C775      1.0  0.40418  0.16396  0.59918  1.0000
  N   N41       1.0  0.13119  0.11590  0.70413  1.0000
  H   H1351     1.0  0.15158  0.10547  0.67014  1.0000
  C   C776      1.0  0.11111  0.17101  0.76396  1.0000
  H   H1352     1.0  0.18965  0.28770  0.75330  1.0000
  H   H1353     1.0  0.11428  0.01213  0.70216  1.0000
  H   H1354     1.0  0.22823  0.17693  0.60175  1.0000
  H   H1355     1.0  0.42233  0.21902  0.68759  1.0000
  H   H1356     1.0  0.13115  0.17796  0.68447  1.0000
  H   H1357     1.0  0.34680  0.25950  0.76486  1.0000
  H   H1358     1.0  0.15435  0.08497  0.69550  1.0000
  H   H1359     1.0  0.45371  0.45566  0.63827  1.0000
  S   S175      1.0  0.36154  0.29706  0.59146  1.0000
  C   C777      1.0  0.18062  0.07610  0.75265  1.0000
  H   H1360     1.0  0.20077  0.02788  0.74260  1.0000
  H   H1361     1.0  0.23955  0.14513  0.60083  1.0000
  H   H1362     1.0  0.33937  0.24108  0.61099  1.0000
  H   H1363     1.0  0.20695  0.99527  0.69873  1.0000
  H   H1364     1.0  0.38767  0.40874  0.73684  1.0000
  C   C778      1.0  0.32076  0.26219  0.59700  1.0000
  H   H1365     1.0  0.30822  0.23260  0.75297  1.0000
  H   H1366     1.0  0.19731  0.26588  0.74790  1.0000
  H   H1367     1.0  0.26324  0.22939  0.74852  1.0000
  Fe  Fe85      1.0  0.45161  0.36612  0.58504  1.0000
  H   H1368     1.0  0.41420  0.44872  0.60950  1.0000
  H   H1369     1.0  0.02863  0.28602  0.74658  1.0000
  C   C779      1.0  0.17592  0.26760  0.77151  1.0000
  C   C780      1.0  0.22548  0.11242  0.66161  1.0000
  H   H1370     1.0  0.33018  0.21274  0.70167  1.0000
  H   H1371     1.0  0.27848  0.22272  0.76359  1.0000
  C   C781      1.0  0.38556  0.31722  0.59178  1.0000
  H   H1372     1.0  0.11628  0.00399  0.60257  1.0000
  N   N42       1.0  0.13652  0.04425  0.60810  1.0000
  C   C782      1.0  0.12842  0.06099  0.61551  1.0000
  C   C783      1.0  0.13219  0.02804  0.62208  1.0000
  C   C784      1.0  0.15665  0.04250  0.60365  1.0000
  C   C785      1.0  0.13063  0.04518  0.59116  1.0000
  C   C786      1.0  0.11023  0.04836  0.59234  1.0000
  C   C787      1.0  0.13132  0.07877  0.60250  1.0000
  C   C788      1.0  0.16799  0.02438  0.59918  1.0000
  C   C789      1.0  0.11361  0.03015  0.63497  1.0000
  H   H1373     1.0  0.21113  0.01551  0.70201  1.0000
  C   C790      1.0  0.30061  0.05045  0.60713  1.0000
  C   C791      1.0  0.12250  0.09468  0.61152  1.0000
  H   H1374     1.0  0.11132  0.17179  0.69965  1.0000
  H   H1375     1.0  0.13377  0.06004  0.62754  1.0000
  H   H1376     1.0  0.11374  0.06255  0.62027  1.0000
  H   H1377     1.0  0.13393  0.01655  0.61569  1.0000
  H   H1378     1.0  0.14190  0.02364  0.63108  1.0000
  H   H1379     1.0  0.16129  0.04464  0.61496  1.0000
  H   H1380     1.0  0.32284  0.29794  0.58199  1.0000
  H   H1381     1.0  0.43924  0.44454  0.65711  1.0000
  H   H1382     1.0  0.26593  0.02772  0.58607  1.0000
  S   S176      1.0  0.27493  0.15210  0.58719  1.0000
  H   H1383     1.0  0.10534  0.03601  0.59961  1.0000
  H   H1384     1.0  0.14573  0.07893  0.59796  1.0000
  H   H1385     1.0  0.33058  0.46909  0.62574  1.0000
  H   H1386     1.0  0.18145  0.99764  0.74601  1.0000
  H   H1387     1.0  0.10054  0.09142  0.75236  1.0000
  C   C792      1.0  0.00265  0.31755  0.75161  1.0000
  H   H1388     1.0  0.46483  0.24368  0.63327  1.0000
  C   C793      1.0  0.46697  0.25734  0.63174  1.0000
  H   H1389     1.0  0.35785  0.23636  0.76870  1.0000
  H   H1390     1.0  0.32506  0.27238  0.60143  1.0000
  H   H1391     1.0  0.46726  0.25443  0.65936  1.0000
  H   H1392     1.0  0.38508  0.03687  0.59335  1.0000
  H   H1393     1.0  0.27856  0.03668  0.61438  1.0000
  H   H1394     1.0  0.17271  0.21739  0.76422  1.0000
  H   H1395     1.0  0.15461  0.99461  0.69863  1.0000
  C   C794      1.0  0.27290  0.23390  0.75350  1.0000
  Fe  Fe86      1.0  0.35682  0.30968  0.76369  1.0000
  H   H1396     1.0  0.33298  0.46538  0.60366  1.0000
  C   C795      1.0  0.35037  0.05651  0.59444  1.0000
  H   H1397     1.0  0.01374  0.27141  0.75692  1.0000
  C   C796      1.0  0.28756  0.28813  0.76717  1.0000
  H   H1398     1.0  0.12540  0.08086  0.59068  1.0000
  C   C797      1.0  0.01422  0.28535  0.74962  1.0000
  H   H1399     1.0  0.14587  0.20551  0.76737  1.0000
  H   H1400     1.0  0.13193  0.16776  0.70736  1.0000
  N   N43       1.0  0.33016  0.06241  0.59733  1.0000
  H   H1401     1.0  0.24815  0.04123  0.59921  1.0000
  C   C798      1.0  0.38954  0.44984  0.60220  1.0000
  H   H1402     1.0  0.18106  0.24200  0.76446  1.0000
  N   N44       1.0  0.00328  0.29836  0.76123  1.0000
  H   H1403     1.0  0.39046  0.14339  0.61695  1.0000
  H   H1404     1.0  0.35586  0.02732  0.59825  1.0000
  C   C799      1.0  0.37106  0.31617  0.58519  1.0000
  C   C800      1.0  0.32468  0.07479  0.58078  1.0000
  H   H1405     1.0  0.16451  0.27806  0.77610  1.0000
  H   H1406     1.0  0.48140  0.12379  0.58903  1.0000
  H   H1407     1.0  0.26550  0.24532  0.75994  1.0000
  H   H1408     1.0  0.29932  0.24466  0.58953  1.0000
  H   H1409     1.0  0.47191  0.22941  0.58882  1.0000
  H   H1410     1.0  0.38809  0.17259  0.57952  1.0000
  H   H1411     1.0  0.48246  0.27122  0.58807  1.0000
  H   H1412     1.0  0.22288  0.13496  0.57926  1.0000
  H   H1413     1.0  0.37212  0.47539  0.74853  1.0000
  C   C801      1.0  0.38691  0.48102  0.64444  1.0000
  H   H1414     1.0  0.99466  0.32657  0.76086  1.0000
  H   H1415     1.0  0.19640  0.15449  0.59339  1.0000
  H   H1416     1.0  0.10426  0.13022  0.76778  1.0000
  C   C802      1.0  0.31957  0.29012  0.77537  1.0000
  H   H1417     1.0  0.36281  0.25037  0.74695  1.0000
  H   H1418     1.0  0.41969  0.36606  0.76725  1.0000
  C   C803      1.0  0.09301  0.17038  0.77065  1.0000
  H   H1419     1.0  0.37550  0.42646  0.77003  1.0000
  H   H1420     1.0  0.48994  0.27022  0.62229  1.0000
  H   H1421     1.0  0.42734  0.13790  0.57885  1.0000
  H   H1422     1.0  0.10859  0.99227  0.59037  1.0000
  C   C804      1.0  0.48567  0.11238  0.59957  1.0000
  S   S177      1.0  0.12932  0.07088  0.77588  1.0000
  H   H1423     1.0  0.31039  0.08167  0.58382  1.0000
  C   C805      1.0  0.11906  0.18104  0.77063  1.0000
  H   H1424     1.0  0.33332  0.23351  0.57870  1.0000
  H   H1425     1.0  0.00453  0.23111  0.77615  1.0000
  H   H1426     1.0  0.31084  0.21631  0.57871  1.0000
  H   H1427     1.0  0.38516  0.02336  0.57814  1.0000
  N   N45       1.0  0.32943  0.26179  0.57772  1.0000
  S   S178      1.0  0.46462  0.17383  0.57731  1.0000
  C   C806      1.0  0.01203  0.29547  0.77690  1.0000
  C   C807      1.0  0.47867  0.28220  0.57703  1.0000
  H   H1428     1.0  0.37046  0.42308  0.57712  1.0000
  H   H1429     1.0  0.44308  0.38445  0.90008  1.0000
  Fe  Fe87      1.0  0.40755  0.40646  0.86889  1.0000
  H   H1430     1.0  0.06732  0.14495  0.81967  1.0000
  Fe  Fe88      1.0  0.38821  0.37602  0.88944  1.0000
  S   S179      1.0  0.40691  0.35643  0.87365  1.0000
  S   S180      1.0  0.36571  0.36867  0.91204  1.0000
  Fe  Fe89      1.0  0.42849  0.36853  0.87697  1.0000
  Fe  Fe90      1.0  0.40435  0.37897  0.84982  1.0000
  S   S181      1.0  0.39455  0.38059  0.82486  1.0000
  S   S182      1.0  0.40974  0.38651  0.89433  1.0000
  S   S183      1.0  0.38403  0.39769  0.86569  1.0000
  H   H1431     1.0  0.02171  0.38048  0.86944  1.0000
  C   C808      1.0  0.00616  0.32884  0.83000  1.0000
  C   C809      1.0  0.29384  0.27625  0.78169  1.0000
  C   C810      1.0  0.29694  0.32634  0.80237  1.0000
  S   S184      1.0  0.99358  0.04991  0.81874  1.0000
  H   H1432     1.0  0.99961  0.27331  0.79466  1.0000
  H   H1433     1.0  0.07393  0.12545  0.83604  1.0000
  Fe  Fe91      1.0  0.14269  0.38373  0.95853  1.0000
  S   S185      1.0  0.11526  0.39999  0.95655  1.0000
  S   S186      1.0  0.16497  0.38504  0.93430  1.0000
  H   H1434     1.0  0.26697  0.35479  0.85305  1.0000
  H   H1435     1.0  0.01061  0.34836  0.87151  1.0000
  H   H1436     1.0  0.13570  0.27084  0.77846  1.0000
  H   H1437     1.0  0.39583  0.48132  0.84845  1.0000
  H   H1438     1.0  0.15501  0.09069  0.79066  1.0000
  H   H1439     1.0  0.34391  0.27482  0.95231  1.0000
  H   H1440     1.0  0.15412  0.26219  0.80346  1.0000
  H   H1441     1.0  0.09796  0.13620  0.79873  1.0000
  H   H1442     1.0  0.26361  0.32579  0.84035  1.0000
  H   H1443     1.0  0.99821  0.12399  0.87957  1.0000
  H   H1444     1.0  0.40691  0.39094  0.95306  1.0000
  C   C811      1.0  0.40458  0.34303  0.93094  1.0000
  C   C812      1.0  0.33447  0.29367  0.93064  1.0000
  H   H1445     1.0  0.45159  0.28112  0.95518  1.0000
  C   C813      1.0  0.48096  0.40382  0.86218  1.0000
  H   H1446     1.0  0.38478  0.40660  0.78431  1.0000
  H   H1447     1.0  0.99041  0.43042  0.89309  1.0000
  S   S187      1.0  0.12337  0.02333  0.80695  1.0000
  C   C814      1.0  0.26596  0.32689  0.80262  1.0000
  C   C815      1.0  0.14794  0.25254  0.80040  1.0000
  S   S188      1.0  0.07422  0.02545  0.82753  1.0000
  Fe  Fe92      1.0  0.23493  0.23681  0.79700  1.0000
  H   H1448     1.0  0.05179  0.07418  0.81818  1.0000
  S   S189      1.0  0.23434  0.20906  0.79460  1.0000
  Fe  Fe93      1.0  0.24159  0.25630  0.82292  1.0000
  S   S190      1.0  0.23341  0.28310  0.80606  1.0000
  S   S191      1.0  0.25074  0.25291  0.84868  1.0000
  Fe  Fe94      1.0  0.21107  0.27223  0.80307  1.0000
  S   S192      1.0  0.18335  0.28958  0.80524  1.0000
  H   H1449     1.0  0.09125  0.98773  0.82895  1.0000
  H   H1450     1.0  0.35557  0.47005  0.78840  1.0000
  S   S193      1.0  0.21800  0.24619  0.82164  1.0000
  S   S194      1.0  0.25949  0.24427  0.80007  1.0000
  Fe  Fe95      1.0  0.07910  0.30155  0.89942  1.0000
  S   S195      1.0  0.09265  0.30929  0.87074  1.0000
  S   S196      1.0  0.09095  0.30357  0.92199  1.0000
  Fe  Fe96      1.0  0.05583  0.28090  0.88949  1.0000
  S   S197      1.0  0.06793  0.28718  0.86039  1.0000
  S   S198      1.0  0.03741  0.26121  0.89983  1.0000
  Fe  Fe97      1.0  0.09416  0.28114  0.86889  1.0000
  S   S199      1.0  0.11811  0.26067  0.85927  1.0000
  Fe  Fe98      1.0  0.06492  0.31464  0.86524  1.0000
  S   S200      1.0  0.05371  0.33886  0.84603  1.0000
  S   S201      1.0  0.08228  0.27303  0.89772  1.0000
  S   S202      1.0  0.05107  0.30879  0.89412  1.0000
  Fe  Fe99      1.0  0.02190  0.17838  0.84307  1.0000
  H   H1451     1.0  0.37022  0.43830  0.85953  1.0000
  S   S203      1.0  0.01714  0.15263  0.86197  1.0000
  Fe  Fe100     1.0  0.01415  0.21906  0.83523  1.0000
  C   C816      1.0  0.99548  0.15271  0.83986  1.0000
  H   H1452     1.0  0.28824  0.35572  0.79844  1.0000
  H   H1453     1.0  0.11263  0.06907  0.85284  1.0000
  C   C817      1.0  0.31433  0.34932  0.78180  1.0000
  H   H1454     1.0  0.41779  0.46408  0.87407  1.0000
  H   H1455     1.0  0.03836  0.46790  0.95724  1.0000
  S   S204      1.0  0.03601  0.19832  0.84631  1.0000
  Fe  Fe101     1.0  0.29134  0.32791  0.90398  1.0000
  S   S205      1.0  0.28439  0.30274  0.90240  1.0000
  S   S206      1.0  0.31578  0.33573  0.88451  1.0000
  Fe  Fe102     1.0  0.25833  0.33632  0.93244  1.0000
  S   S207      1.0  0.24861  0.31178  0.93335  1.0000
  S   S208      1.0  0.24299  0.35596  0.94992  1.0000
  Fe  Fe103     1.0  0.27750  0.29819  0.93235  1.0000
  Fe  Fe104     1.0  0.25636  0.31851  0.90340  1.0000
  S   S209      1.0  0.23903  0.31934  0.88428  1.0000
  S   S210      1.0  0.28668  0.32211  0.93389  1.0000
  S   S211      1.0  0.26381  0.34428  0.90258  1.0000
  C   C818      1.0  0.01204  0.24858  0.85991  1.0000
  C   C819      1.0  0.01639  0.26530  0.85695  1.0000
  C   C820      1.0  0.02476  0.26904  0.86882  1.0000
  C   C821      1.0  0.02818  0.25633  0.88408  1.0000
  C   C822      1.0  0.02377  0.23960  0.88708  1.0000
  C   C823      1.0  0.01602  0.23561  0.87485  1.0000
  H   H1456     1.0  0.01333  0.27540  0.84545  1.0000
  H   H1457     1.0  0.02819  0.28189  0.86643  1.0000
  H   H1458     1.0  0.02636  0.22971  0.89889  1.0000
  H   H1459     1.0  0.05483  0.44183  0.95430  1.0000
  C   C824      1.0  0.16581  0.28178  0.82162  1.0000
  C   C825      1.0  0.14914  0.29338  0.82480  1.0000
  C   C826      1.0  0.13455  0.28720  0.83694  1.0000
  C   C827      1.0  0.13653  0.26930  0.84566  1.0000
  C   C828      1.0  0.15329  0.25782  0.84290  1.0000
  C   C829      1.0  0.16794  0.26407  0.83099  1.0000
  H   H1460     1.0  0.14740  0.30711  0.81758  1.0000
  H   H1461     1.0  0.12161  0.29611  0.83897  1.0000
  H   H1462     1.0  0.15488  0.24402  0.84985  1.0000
  H   H1463     1.0  0.18066  0.25502  0.82864  1.0000
  C   C830      1.0  0.24748  0.27147  0.85848  1.0000
  C   C831      1.0  0.25493  0.26953  0.87333  1.0000
  C   C832      1.0  0.25272  0.28418  0.88122  1.0000
  C   C833      1.0  0.24265  0.30074  0.87455  1.0000
  C   C834      1.0  0.23498  0.30260  0.85992  1.0000
  C   C835      1.0  0.23760  0.28809  0.85176  1.0000
  H   H1464     1.0  0.26259  0.25669  0.87864  1.0000
  H   H1465     1.0  0.25857  0.28257  0.89261  1.0000
  H   H1466     1.0  0.22712  0.31538  0.85483  1.0000
  H   H1467     1.0  0.23186  0.28973  0.84035  1.0000
  H   H1468     1.0  0.08229  0.12758  0.78042  1.0000
  H   H1469     1.0  0.42606  0.47462  0.80525  1.0000
  H   H1470     1.0  0.04553  0.25076  0.83258  1.0000
  C   C836      1.0  0.11940  0.27633  0.80337  1.0000
  Fe  Fe105     1.0  0.24980  0.27072  0.78307  1.0000
  H   H1471     1.0  0.43627  0.43356  0.90756  1.0000
  H   H1472     1.0  0.39986  0.41552  0.80803  1.0000
  S   S212      1.0  0.00078  0.24442  0.84537  1.0000
  H   H1473     1.0  0.27136  0.32015  0.79099  1.0000
  C   C837      1.0  0.03681  0.98426  0.84960  1.0000
  C   C838      1.0  0.11427  0.15956  0.82327  1.0000
  C   C839      1.0  0.41304  0.47645  0.81487  1.0000
  C   C840      1.0  0.28208  0.30251  0.82208  1.0000
  H   H1474     1.0  0.12100  0.14930  0.79926  1.0000
  H   H1475     1.0  0.48640  0.39747  0.90673  1.0000
  H   H1476     1.0  0.37699  0.29423  0.91309  1.0000
  H   H1477     1.0  0.24868  0.30760  0.81536  1.0000
  C   C841      1.0  0.27258  0.33290  0.82899  1.0000
  H   H1478     1.0  0.36303  0.26075  0.96909  1.0000
  H   H1479     1.0  0.05375  0.37788  0.84122  1.0000
  C   C842      1.0  0.30884  0.24802  0.96792  1.0000
  C   C843      1.0  0.41919  0.32942  0.92190  1.0000
  H   H1480     1.0  0.41615  0.32891  0.90915  1.0000
  S   S213      1.0  0.00181  0.19385  0.78752  1.0000
  H   H1481     1.0  0.07315  0.06947  0.83806  1.0000
  H   H1482     1.0  0.32214  0.34814  0.79200  1.0000
  H   H1483     1.0  0.20536  0.33654  0.97171  1.0000
  H   H1484     1.0  0.48417  0.27044  0.95273  1.0000
  H   H1485     1.0  0.06898  0.17901  0.78911  1.0000
  H   H1486     1.0  0.33546  0.29498  0.97063  1.0000
  H   H1487     1.0  0.36909  0.41694  0.81101  1.0000
  C   C844      1.0  0.02816  0.34689  0.82562  1.0000
  C   C845      1.0  0.03527  0.33525  0.83991  1.0000
  C   C846      1.0  0.02750  0.32075  0.84944  1.0000
  C   C847      1.0  0.01309  0.31751  0.84443  1.0000
  H   H1488     1.0  0.03412  0.35818  0.81825  1.0000
  H   H1489     1.0  0.03261  0.31201  0.86074  1.0000
  H   H1490     1.0  0.00731  0.30612  0.85173  1.0000
  C   C848      1.0  0.01594  0.04346  0.82135  1.0000
  C   C849      1.0  0.02967  0.04070  0.80645  1.0000
  C   C850      1.0  0.04765  0.03535  0.80815  1.0000
  C   C851      1.0  0.05192  0.03249  0.82483  1.0000
  C   C852      1.0  0.03820  0.03510  0.83977  1.0000
  C   C853      1.0  0.02024  0.04074  0.83802  1.0000
  H   H1491     1.0  0.02638  0.04275  0.79354  1.0000
  H   H1492     1.0  0.30232  0.31688  0.79312  1.0000
  H   H1493     1.0  0.04147  0.03277  0.85273  1.0000
  H   H1494     1.0  0.00970  0.04269  0.84957  1.0000
  C   C854      1.0  0.02065  0.27625  0.80553  1.0000
  H   H1495     1.0  0.18561  0.26445  0.78034  1.0000
  C   C855      1.0  0.01747  0.38227  0.85663  1.0000
  H   H1496     1.0  0.48114  0.34010  0.93873  1.0000
  C   C856      1.0  0.28671  0.33753  0.83657  1.0000
  C   C857      1.0  0.99983  0.10086  0.81077  1.0000
  H   H1497     1.0  0.02696  0.39433  0.82881  1.0000
  H   H1498     1.0  0.29797  0.32620  0.83874  1.0000
  C   C858      1.0  0.08795  0.35262  0.94425  1.0000
  C   C859      1.0  0.09894  0.33625  0.94982  1.0000
  C   C860      1.0  0.09982  0.32143  0.94270  1.0000
  C   C861      1.0  0.08979  0.32285  0.92992  1.0000
  C   C862      1.0  0.07911  0.33933  0.92403  1.0000
  C   C863      1.0  0.07812  0.35413  0.93127  1.0000
  H   H1499     1.0  0.10288  0.00577  0.84506  1.0000
  H   H1500     1.0  0.10804  0.30870  0.94738  1.0000
  H   H1501     1.0  0.07132  0.34056  0.91422  1.0000
  H   H1502     1.0  0.06952  0.36674  0.92697  1.0000
  H   H1503     1.0  0.13490  0.05963  0.84185  1.0000
  C   C864      1.0  0.44241  0.46658  0.85484  1.0000
  H   H1504     1.0  0.05320  0.14108  0.84153  1.0000
  H   H1505     1.0  0.08002  0.16092  0.85411  1.0000
  H   H1506     1.0  0.14241  0.24478  0.81361  1.0000
  H   H1507     1.0  0.02179  0.40961  0.84384  1.0000
  H   H1508     1.0  0.33770  0.30510  0.91984  1.0000
  C   C865      1.0  0.18655  0.37718  0.93895  1.0000
  H   H1509     1.0  0.10733  0.28308  0.79769  1.0000
  H   H1510     1.0  0.43241  0.33314  0.91893  1.0000
  C   C866      1.0  0.22152  0.36473  0.94523  1.0000
  C   C867      1.0  0.21626  0.35863  0.93275  1.0000
  C   C868      1.0  0.19895  0.36507  0.92943  1.0000
  C   C869      1.0  0.29578  0.34541  0.79058  1.0000
  C   C870      1.0  0.39385  0.40658  0.93214  1.0000
  H   H1511     1.0  0.12988  0.46794  0.97087  1.0000
  H   H1512     1.0  0.15303  0.12167  0.79734  1.0000
  H   H1513     1.0  0.18540  0.20030  0.83780  1.0000
  C   C871      1.0  0.01298  0.27681  0.78952  1.0000
  C   C872      1.0  0.42742  0.45893  0.86322  1.0000
  H   H1514     1.0  0.28892  0.34672  0.77956  1.0000
  H   H1515     1.0  0.23197  0.34439  0.79549  1.0000
  H   H1516     1.0  0.41109  0.44143  0.81175  1.0000
  C   C873      1.0  0.37558  0.44835  0.81309  1.0000
  C   C874      1.0  0.10286  0.99479  0.85700  1.0000
  C   C875      1.0  0.48065  0.38068  0.84543  1.0000
  C   C876      1.0  0.45079  0.37445  0.90879  1.0000
  C   C877      1.0  0.02745  0.39565  0.84227  1.0000
  H   H1517     1.0  0.37217  0.48201  0.87071  1.0000
  H   H1518     1.0  0.31479  0.26771  0.79671  1.0000
  H   H1519     1.0  0.00406  0.11061  0.79850  1.0000
  H   H1520     1.0  0.22397  0.17805  0.79128  1.0000
  C   C878      1.0  0.46863  0.34485  0.91612  1.0000
  C   C879      1.0  0.99029  0.37286  0.87523  1.0000
  C   C880      1.0  0.47246  0.34949  0.93054  1.0000
  C   C881      1.0  0.39896  0.36333  0.81312  1.0000
  C   C882      1.0  0.41318  0.34868  0.81494  1.0000
  C   C883      1.0  0.41653  0.33563  0.80465  1.0000
  C   C884      1.0  0.40553  0.33709  0.79275  1.0000
  C   C885      1.0  0.39137  0.35176  0.79095  1.0000
  C   C886      1.0  0.38824  0.36487  0.80098  1.0000
  H   H1521     1.0  0.42170  0.34754  0.82406  1.0000
  H   H1522     1.0  0.45708  0.43586  0.91127  1.0000
  H   H1523     1.0  0.15442  0.11081  0.81953  1.0000
  H   H1524     1.0  0.37734  0.37622  0.79943  1.0000
  C   C887      1.0  0.35065  0.36138  0.90407  1.0000
  C   C888      1.0  0.33540  0.35618  0.91572  1.0000
  C   C889      1.0  0.32430  0.34866  0.90977  1.0000
  C   C890      1.0  0.32836  0.34651  0.89210  1.0000
  C   C891      1.0  0.34310  0.35258  0.88028  1.0000
  C   C892      1.0  0.35426  0.35994  0.88623  1.0000
  H   H1525     1.0  0.33221  0.35794  0.92933  1.0000
  H   H1526     1.0  0.31265  0.34454  0.91884  1.0000
  H   H1527     1.0  0.34592  0.35164  0.86649  1.0000
  H   H1528     1.0  0.36580  0.36426  0.87705  1.0000
  C   C893      1.0  0.45531  0.45928  0.84145  1.0000
  C   C894      1.0  0.42514  0.44413  0.85815  1.0000
  C   C895      1.0  0.43797  0.43687  0.84468  1.0000
  C   C896      1.0  0.45308  0.44442  0.83640  1.0000
  H   H1529     1.0  0.43624  0.42555  0.84058  1.0000
  H   H1530     1.0  0.46312  0.43867  0.82611  1.0000
  C   C897      1.0  0.10891  0.19033  0.78407  1.0000
  C   C898      1.0  0.23431  0.32959  0.79914  1.0000
  H   H1531     1.0  0.16321  0.22595  0.82712  1.0000
  H   H1532     1.0  0.12654  0.28669  0.80341  1.0000
  H   H1533     1.0  0.45435  0.45828  0.78127  1.0000
  N   N46       1.0  0.14244  0.35691  0.90313  1.0000
  C   C899      1.0  0.16052  0.35320  0.89083  1.0000
  C   C900      1.0  0.12817  0.35237  0.89637  1.0000
  C   C901      1.0  0.13761  0.37670  0.90289  1.0000
  C   C902      1.0  0.14282  0.34715  0.92210  1.0000
  C   C903      1.0  0.14853  0.32661  0.92506  1.0000
  C   C904      1.0  0.17664  0.35607  0.89668  1.0000
  C   C905      1.0  0.11896  0.38356  0.91408  1.0000
  C   C906      1.0  0.13415  0.33710  0.88579  1.0000
  C   C907      1.0  0.11832  0.33327  0.88084  1.0000
  C   C908      1.0  0.15123  0.31846  0.94411  1.0000
  C   C909      1.0  0.19402  0.35199  0.88305  1.0000
  C   C910      1.0  0.11426  0.40394  0.91049  1.0000
  H   H1534     1.0  0.15996  0.36155  0.87723  1.0000
  H   H1535     1.0  0.16428  0.33918  0.88912  1.0000
  H   H1536     1.0  0.11690  0.34909  0.90762  1.0000
  H   H1537     1.0  0.12197  0.36417  0.88715  1.0000
  H   H1538     1.0  0.13831  0.38441  0.88890  1.0000
  H   H1539     1.0  0.14734  0.38075  0.90817  1.0000
  H   H1540     1.0  0.15149  0.35234  0.92781  1.0000
  H   H1541     1.0  0.12933  0.34989  0.93076  1.0000
  H   H1542     1.0  0.16128  0.32240  0.91602  1.0000
  H   H1543     1.0  0.13795  0.32097  0.92292  1.0000
  H   H1544     1.0  0.17490  0.37002  0.89804  1.0000
  H   H1545     1.0  0.17846  0.34695  0.90958  1.0000
  H   H1546     1.0  0.11906  0.37884  0.92850  1.0000
  H   H1547     1.0  0.10809  0.37892  0.91124  1.0000
  H   H1548     1.0  0.14352  0.34096  0.87304  1.0000
  H   H1549     1.0  0.14085  0.32457  0.89353  1.0000
  H   H1550     1.0  0.12322  0.32253  0.87305  1.0000
  H   H1551     1.0  0.10860  0.32875  0.89300  1.0000
  H   H1552     1.0  0.11140  0.34534  0.87259  1.0000
  H   H1553     1.0  0.13869  0.32193  0.95390  1.0000
  H   H1554     1.0  0.15505  0.30369  0.94594  1.0000
  H   H1555     1.0  0.16206  0.32333  0.94681  1.0000
  H   H1556     1.0  0.19322  0.36117  0.86994  1.0000
  H   H1557     1.0  0.20540  0.35383  0.88775  1.0000
  H   H1558     1.0  0.19687  0.33798  0.88137  1.0000
  H   H1559     1.0  0.12459  0.40923  0.91360  1.0000
  H   H1560     1.0  0.35643  0.45527  0.84609  1.0000
  H   H1561     1.0  0.37955  0.45628  0.84420  1.0000
  C   C911      1.0  0.45978  0.42325  0.88905  1.0000
  H   H1562     1.0  0.29334  0.29195  0.96929  1.0000
  N   N47       1.0  0.12928  0.11184  0.81247  1.0000
  C   C912      1.0  0.36899  0.42759  0.79873  1.0000
  C   C913      1.0  0.30076  0.27841  0.97237  1.0000
  H   H1563     1.0  0.12613  0.12373  0.83502  1.0000
  H   H1564     1.0  0.02832  0.11336  0.81221  1.0000
  H   H1565     1.0  0.38340  0.41374  0.94169  1.0000
  C   C914      1.0  0.06082  0.43476  0.96603  1.0000
  S   S214      1.0  0.28608  0.27040  0.94766  1.0000
  C   C915      1.0  0.37021  0.44726  0.84621  1.0000
  C   C916      1.0  0.07370  0.07988  0.82563  1.0000
  H   H1566     1.0  0.23954  0.32404  0.78681  1.0000
  C   C917      1.0  0.37619  0.43611  0.83176  1.0000
  H   H1567     1.0  0.36701  0.42672  0.83497  1.0000
  H   H1568     1.0  0.09969  0.16147  0.82392  1.0000
  H   H1569     1.0  0.28647  0.26623  0.78980  1.0000
  H   H1570     1.0  0.47415  0.44042  0.86855  1.0000
  C   C918      1.0  0.09685  0.12202  0.77948  1.0000
  C   C919      1.0  0.01351  0.34374  0.82070  1.0000
  C   C920      1.0  0.12476  0.14535  0.81248  1.0000
  C   C921      1.0  0.40255  0.38835  0.94191  1.0000
  H   H1571     1.0  0.00873  0.40617  0.87835  1.0000
  H   H1572     1.0  0.06382  0.16975  0.87187  1.0000
  H   H1573     1.0  0.13919  0.14541  0.81039  1.0000
  H   H1574     1.0  0.43148  0.41195  0.81047  1.0000
  H   H1575     1.0  0.38325  0.45882  0.81138  1.0000
  C   C922      1.0  0.08318  0.48000  0.96430  1.0000
  C   C923      1.0  0.33044  0.28040  0.92199  1.0000
  H   H1576     1.0  0.41522  0.38892  0.78546  1.0000
  C   C924      1.0  0.12270  0.11566  0.79533  1.0000
  C   C925      1.0  0.43277  0.42357  0.79921  1.0000
  C   C926      1.0  0.42339  0.35821  0.97140  1.0000
  H   H1577     1.0  0.18240  0.24190  0.80228  1.0000
  S   S215      1.0  0.22651  0.26242  0.77817  1.0000
  C   C927      1.0  0.08784  0.07180  0.81111  1.0000
  H   H1578     1.0  0.02312  0.36920  0.85257  1.0000
  H   H1579     1.0  0.38756  0.40517  0.92170  1.0000
  H   H1580     1.0  0.06138  0.99267  0.83666  1.0000
  H   H1581     1.0  0.04873  0.39308  0.85627  1.0000
  C   C928      1.0  0.17240  0.21855  0.81712  1.0000
  Fe  Fe106     1.0  0.01497  0.19899  0.80703  1.0000
  H   H1582     1.0  0.00825  0.35249  0.80948  1.0000
  Fe  Fe107     1.0  0.13348  0.00165  0.79102  1.0000
  C   C929      1.0  0.12407  0.09477  0.82383  1.0000
  H   H1583     1.0  0.38984  0.42820  0.83267  1.0000
  C   C930      1.0  0.01531  0.07084  0.87920  1.0000
  H   H1584     1.0  0.09802  0.00073  0.86907  1.0000
  N   N48       1.0  0.35733  0.29672  0.94772  1.0000
  H   H1585     1.0  0.47089  0.29900  0.93148  1.0000
  H   H1586     1.0  0.47420  0.33166  0.91330  1.0000
  H   H1587     1.0  0.11506  0.19810  0.78921  1.0000
  S   S216      1.0  0.07875  0.20016  0.80867  1.0000
  C   C931      1.0  0.46550  0.36663  0.93402  1.0000
  H   H1588     1.0  0.39585  0.25405  0.96829  1.0000
  C   C932      1.0  0.48749  0.28357  0.95125  1.0000
  H   H1589     1.0  0.28525  0.29498  0.81118  1.0000
  C   C933      1.0  0.12101  0.12670  0.82254  1.0000
  H   H1590     1.0  0.05571  0.26997  0.82670  1.0000
  N   N49       1.0  0.38186  0.43923  0.79738  1.0000
  H   H1591     1.0  0.12885  0.08385  0.81615  1.0000
  C   C934      1.0  0.45367  0.29379  0.95707  1.0000
  H   H1592     1.0  0.40417  0.41477  0.92566  1.0000
  H   H1593     1.0  0.30782  0.23806  0.96132  1.0000
  H   H1594     1.0  0.41262  0.46398  0.82516  1.0000
  H   H1595     1.0  0.13134  0.06478  0.86352  1.0000
  N   N50       1.0  0.99730  0.38641  0.85941  1.0000
  H   H1596     1.0  0.01168  0.28579  0.81373  1.0000
  H   H1597     1.0  0.14515  0.22063  0.79955  1.0000
  H   H1598     1.0  0.10632  0.33489  0.96000  1.0000
  C   C935      1.0  0.17700  0.23166  0.79918  1.0000
  S   S217      1.0  0.40983  0.32064  0.78007  1.0000
  H   H1599     1.0  0.35499  0.43543  0.80023  1.0000
  C   C936      1.0  0.01576  0.09071  0.81937  1.0000
  S   S218      1.0  0.02834  0.22098  0.80650  1.0000
  H   H1600     1.0  0.07359  0.19333  0.84624  1.0000
  H   H1601     1.0  0.34276  0.35096  0.97468  1.0000
  H   H1602     1.0  0.15180  0.47183  0.95878  1.0000
  H   H1603     1.0  0.47204  0.39674  0.87344  1.0000
  H   H1604     1.0  0.37259  0.35021  0.95521  1.0000
  C   C937      1.0  0.13043  0.08800  0.84180  1.0000
  C   C938      1.0  0.40033  0.42767  0.79725  1.0000
  C   C939      1.0  0.10221  0.12229  0.79660  1.0000
  C   C940      1.0  0.41481  0.43670  0.79909  1.0000
  H   H1605     1.0  0.99133  0.34173  0.90158  1.0000
  H   H1606     1.0  0.43168  0.34487  0.96968  1.0000
  C   C941      1.0  0.08291  0.17954  0.78414  1.0000
  H   H1607     1.0  0.47188  0.37402  0.85721  1.0000
  H   H1608     1.0  0.26321  0.32429  0.97600  1.0000
  H   H1609     1.0  0.48449  0.43167  0.88722  1.0000
  C   C942      1.0  0.22057  0.18871  0.78027  1.0000
  H   H1610     1.0  0.16014  0.08107  0.81220  1.0000
  H   H1611     1.0  0.34182  0.27662  0.91114  1.0000
  S   S219      1.0  0.47542  0.46693  0.83288  1.0000
  H   H1612     1.0  0.18751  0.08190  0.78878  1.0000
  N   N51       1.0  0.08200  0.21724  0.86355  1.0000
  C   C943      1.0  0.07855  0.19852  0.87031  1.0000
  C   C944      1.0  0.07743  0.22689  0.87887  1.0000
  C   C945      1.0  0.06980  0.22699  0.85064  1.0000
  C   C946      1.0  0.10101  0.21740  0.85352  1.0000
  C   C947      1.0  0.11592  0.20731  0.86393  1.0000
  C   C948      1.0  0.08219  0.18708  0.85608  1.0000
  C   C949      1.0  0.06831  0.24751  0.84476  1.0000
  C   C950      1.0  0.08088  0.21545  0.89730  1.0000
  C   C951      1.0  0.08092  0.22698  0.91002  1.0000
  C   C952      1.0  0.13437  0.20752  0.85177  1.0000
  H   H1613     1.0  0.12288  0.09686  0.85125  1.0000
  C   C953      1.0  0.05846  0.25515  0.82932  1.0000
  H   H1614     1.0  0.06433  0.19915  0.87753  1.0000
  H   H1615     1.0  0.08671  0.19061  0.88022  1.0000
  H   H1616     1.0  0.08437  0.23833  0.87521  1.0000
  H   H1617     1.0  0.06290  0.23300  0.88156  1.0000
  H   H1618     1.0  0.05589  0.22479  0.85646  1.0000
  H   H1619     1.0  0.07418  0.22162  0.83818  1.0000
  H   H1620     1.0  0.10364  0.21226  0.84107  1.0000
  H   H1621     1.0  0.10316  0.23132  0.84892  1.0000
  H   H1622     1.0  0.11490  0.19319  0.86956  1.0000
  H   H1623     1.0  0.11530  0.21412  0.87474  1.0000
  C   C954      1.0  0.14936  0.11011  0.80791  1.0000
  H   H1624     1.0  0.09639  0.18529  0.84897  1.0000
  H   H1625     1.0  0.08152  0.25133  0.84030  1.0000
  H   H1626     1.0  0.06069  0.25407  0.85599  1.0000
  H   H1627     1.0  0.07008  0.20779  0.90358  1.0000
  H   H1628     1.0  0.09378  0.20576  0.89631  1.0000
  H   H1629     1.0  0.06821  0.23701  0.91171  1.0000
  H   H1630     1.0  0.08232  0.21847  0.92330  1.0000
  H   H1631     1.0  0.09238  0.23386  0.90485  1.0000
  H   H1632     1.0  0.14494  0.20046  0.85951  1.0000
  H   H1633     1.0  0.13605  0.20080  0.84058  1.0000
  H   H1634     1.0  0.13602  0.22153  0.84637  1.0000
  H   H1635     1.0  0.00324  0.07533  0.88911  1.0000
  C   C955      1.0  0.37286  0.41761  0.78327  1.0000
  C   C956      1.0  0.06532  0.47589  0.96433  1.0000
  H   H1636     1.0  0.37758  0.38283  0.95781  1.0000
  H   H1637     1.0  0.22130  0.32568  0.80575  1.0000
  H   H1638     1.0  0.00005  0.38787  0.80563  1.0000
  N   N52       1.0  0.18126  0.27601  0.87515  1.0000
  C   C957      1.0  0.16114  0.28223  0.87900  1.0000
  C   C958      1.0  0.18922  0.28568  0.85686  1.0000
  C   C959      1.0  0.18526  0.25631  0.87508  1.0000
  C   C960      1.0  0.18975  0.27833  0.88920  1.0000
  C   C961      1.0  0.18748  0.29762  0.89151  1.0000
  C   C962      1.0  0.15064  0.27216  0.89634  1.0000
  C   C963      1.0  0.20527  0.24750  0.86935  1.0000
  C   C964      1.0  0.17990  0.30537  0.85051  1.0000
  C   C965      1.0  0.19210  0.31508  0.83488  1.0000
  C   C966      1.0  0.19564  0.29783  0.90697  1.0000
  C   C967      1.0  0.13072  0.28075  0.89921  1.0000
  C   C968      1.0  0.20727  0.22816  0.86798  1.0000
  H   H1639     1.0  0.15569  0.28114  0.86774  1.0000
  H   H1640     1.0  0.15721  0.29654  0.87966  1.0000
  H   H1641     1.0  0.20355  0.28526  0.85599  1.0000
  H   H1642     1.0  0.18918  0.27868  0.84634  1.0000
  H   H1643     1.0  0.17769  0.25384  0.86617  1.0000
  H   H1644     1.0  0.18071  0.24851  0.88862  1.0000
  H   H1645     1.0  0.18503  0.27001  0.90238  1.0000
  H   H1646     1.0  0.20449  0.27334  0.88602  1.0000
  H   H1647     1.0  0.17318  0.30423  0.89426  1.0000
  H   H1648     1.0  0.19472  0.30543  0.87935  1.0000
  H   H1649     1.0  0.15171  0.25813  0.89556  1.0000
  H   H1650     1.0  0.15554  0.27234  0.90818  1.0000
  H   H1651     1.0  0.21310  0.24724  0.87923  1.0000
  H   H1652     1.0  0.21148  0.25472  0.85625  1.0000
  H   H1653     1.0  0.16761  0.30558  0.84603  1.0000
  H   H1654     1.0  0.17583  0.31323  0.86109  1.0000
  H   H1655     1.0  0.18450  0.32841  0.82945  1.0000
  H   H1656     1.0  0.20360  0.31692  0.83932  1.0000
  H   H1657     1.0  0.19726  0.30744  0.82405  1.0000
  H   H1658     1.0  0.18855  0.29080  0.91980  1.0000
  H   H1659     1.0  0.21009  0.29135  0.90473  1.0000
  H   H1660     1.0  0.19458  0.31181  0.90795  1.0000
  H   H1661     1.0  0.12507  0.28080  0.88771  1.0000
  H   H1662     1.0  0.12333  0.27308  0.91141  1.0000
  H   H1663     1.0  0.12853  0.29466  0.90098  1.0000
  H   H1664     1.0  0.19978  0.22744  0.85818  1.0000
  H   H1665     1.0  0.22165  0.22235  0.86344  1.0000
  H   H1666     1.0  0.20229  0.22006  0.88118  1.0000
  N   N53       1.0  0.35682  0.31821  0.83870  1.0000
  C   C969      1.0  0.34927  0.30562  0.85512  1.0000
  C   C970      1.0  0.37253  0.32388  0.84175  1.0000
  C   C971      1.0  0.34216  0.33455  0.83555  1.0000
  C   C972      1.0  0.36224  0.31019  0.82229  1.0000
  C   C973      1.0  0.37636  0.29254  0.82306  1.0000
  C   C974      1.0  0.33217  0.29979  0.85459  1.0000
  C   C975      1.0  0.34772  0.35076  0.82129  1.0000
  C   C976      1.0  0.38427  0.31015  0.85421  1.0000
  C   C977      1.0  0.40150  0.31607  0.85315  1.0000
  C   C978      1.0  0.37919  0.28499  0.80641  1.0000
  C   C979      1.0  0.32677  0.28605  0.87134  1.0000
  C   C980      1.0  0.33174  0.36640  0.81985  1.0000
  H   H1667     1.0  0.34601  0.31193  0.86694  1.0000
  H   H1668     1.0  0.35926  0.29322  0.85829  1.0000
  H   H1669     1.0  0.38141  0.32831  0.82877  1.0000
  H   H1670     1.0  0.36785  0.33577  0.84802  1.0000
  H   H1671     1.0  0.33582  0.33932  0.84821  1.0000
  H   H1672     1.0  0.33125  0.33123  0.83130  1.0000
  H   H1673     1.0  0.35032  0.30814  0.81863  1.0000
  H   H1674     1.0  0.36811  0.31965  0.81060  1.0000
  H   H1675     1.0  0.37228  0.28217  0.83473  1.0000
  H   H1676     1.0  0.38946  0.29501  0.82340  1.0000
  H   H1677     1.0  0.32074  0.31135  0.85422  1.0000
  H   H1678     1.0  0.33426  0.29373  0.84287  1.0000
  H   H1679     1.0  0.35292  0.34731  0.80795  1.0000
  H   H1680     1.0  0.35810  0.35557  0.82477  1.0000
  H   H1681     1.0  0.37675  0.30894  0.86827  1.0000
  H   H1682     1.0  0.38805  0.29672  0.85100  1.0000
  H   H1683     1.0  0.39852  0.32986  0.85553  1.0000
  H   H1684     1.0  0.40879  0.30692  0.86334  1.0000
  H   H1685     1.0  0.41036  0.31553  0.83986  1.0000
  H   H1686     1.0  0.36660  0.28190  0.80537  1.0000
  H   H1687     1.0  0.38377  0.29471  0.79429  1.0000
  H   H1688     1.0  0.38961  0.27251  0.80705  1.0000
  H   H1689     1.0  0.33729  0.27366  0.87221  1.0000
  H   H1690     1.0  0.32449  0.29165  0.88340  1.0000
  H   H1691     1.0  0.31409  0.28263  0.87102  1.0000
  H   H1692     1.0  0.32067  0.36245  0.81655  1.0000
  H   H1693     1.0  0.32680  0.37117  0.83262  1.0000
  H   H1694     1.0  0.33586  0.37758  0.80912  1.0000
  H   H1695     1.0  0.11689  0.15577  0.83700  1.0000
  H   H1696     1.0  0.10929  0.09632  0.82730  1.0000
  H   H1697     1.0  0.02554  0.08328  0.80963  1.0000
  H   H1698     1.0  0.39230  0.29999  0.92306  1.0000
  H   H1699     1.0  0.36049  0.27647  0.93259  1.0000
  C   C981      1.0  0.38272  0.32024  0.90208  1.0000
  S   S220      1.0  0.03728  0.17700  0.81540  1.0000
  H   H1700     1.0  0.02878  0.99636  0.84242  1.0000
  H   H1701     1.0  0.35054  0.30758  0.97167  1.0000
  H   H1702     1.0  0.30753  0.32400  0.81001  1.0000
  C   C982      1.0  0.27846  0.34333  0.85438  1.0000
  H   H1703     1.0  0.11839  0.17247  0.81677  1.0000
  C   C983      1.0  0.13720  0.47613  0.95905  1.0000
  H   H1704     1.0  0.10628  0.12772  0.82695  1.0000
  H   H1705     1.0  0.36142  0.45555  0.81382  1.0000
  H   H1706     1.0  0.44435  0.47773  0.85914  1.0000
  H   H1707     1.0  0.40544  0.42264  0.78461  1.0000
  H   H1708     1.0  0.46144  0.40986  0.89768  1.0000
  C   C984      1.0  0.12709  0.06923  0.85049  1.0000
  C   C985      1.0  0.45453  0.37901  0.92323  1.0000
  H   H1709     1.0  0.30684  0.31649  0.97559  1.0000
  C   C986      1.0  0.09086  0.18943  0.79099  1.0000
  H   H1710     1.0  0.08694  0.16111  0.87404  1.0000
  H   H1711     1.0  0.35315  0.32007  0.92648  1.0000
  H   H1712     1.0  0.09459  0.11380  0.80769  1.0000
  C   C987      1.0  0.29946  0.26558  0.96366  1.0000
  H   H1713     1.0  0.41676  0.44824  0.78791  1.0000
  H   H1714     1.0  0.32776  0.26819  0.93199  1.0000
  H   H1715     1.0  0.41539  0.33326  0.95491  1.0000
  C   C988      1.0  0.00116  0.14464  0.85590  1.0000
  H   H1716     1.0  0.38421  0.33195  0.90640  1.0000
  H   H1717     1.0  0.07839  0.09106  0.82770  1.0000
  C   C989      1.0  0.33091  0.32268  0.95658  1.0000
  S   S221      1.0  0.99876  0.19916  0.83467  1.0000
  H   H1718     1.0  0.32546  0.32283  0.94504  1.0000
  H   H1719     1.0  0.37129  0.32421  0.89519  1.0000
  C   C990      1.0  0.24744  0.32224  0.81175  1.0000
  H   H1720     1.0  0.42788  0.36788  0.95929  1.0000
  C   C991      1.0  0.37313  0.28546  0.95562  1.0000
  H   H1721     1.0  0.38321  0.27854  0.94560  1.0000
  C   C992      1.0  0.34970  0.28468  0.94098  1.0000
  C   C993      1.0  0.38029  0.34790  0.96586  1.0000
  C   C994      1.0  0.07801  0.16858  0.86463  1.0000
  H   H1722     1.0  0.08928  0.08173  0.79834  1.0000
  H   H1723     1.0  0.19619  0.21871  0.82621  1.0000
  C   C995      1.0  0.17998  0.09431  0.79352  1.0000
  H   H1724     1.0  0.18103  0.10569  0.78194  1.0000
  S   S222      1.0  0.45308  0.35135  0.88711  1.0000
  H   H1725     1.0  0.26386  0.34593  0.82438  1.0000
  H   H1726     1.0  0.45121  0.42357  0.87980  1.0000
  C   C996      1.0  0.29640  0.29440  0.83367  1.0000
  C   C997      1.0  0.29883  0.27410  0.83897  1.0000
  C   C998      1.0  0.19177  0.38339  0.95144  1.0000
  H   H1727     1.0  0.18237  0.39309  0.95852  1.0000
  C   C999      1.0  0.30988  0.27713  0.78563  1.0000
  C   C1000     1.0  0.35699  0.40952  0.78412  1.0000
  C   C1001     1.0  0.03006  0.46719  0.97090  1.0000
  C   C1002     1.0  0.47798  0.42787  0.87823  1.0000
  H   H1728     1.0  0.30965  0.29739  0.82651  1.0000
  H   H1729     1.0  0.29205  0.29946  0.84626  1.0000
  H   H1730     1.0  0.30884  0.26861  0.84761  1.0000
  H   H1731     1.0  0.28602  0.27018  0.84645  1.0000
  H   H1732     1.0  0.30362  0.26803  0.82701  1.0000
  H   H1733     1.0  0.27379  0.33208  0.86465  1.0000
  H   H1734     1.0  0.36869  0.32033  0.93871  1.0000
  H   H1735     1.0  0.41995  0.31594  0.93066  1.0000
  H   H1736     1.0  0.42193  0.35293  0.94101  1.0000
  H   H1737     1.0  0.19520  0.36048  0.91957  1.0000
  C   C1003     1.0  0.16041  0.09299  0.80119  1.0000
  H   H1738     1.0  0.00041  0.40822  0.82438  1.0000
  H   H1739     1.0  0.02024  0.45906  0.97150  1.0000
  H   H1740     1.0  0.43786  0.37638  0.78235  1.0000
  H   H1741     1.0  0.18625  0.09606  0.80382  1.0000
  N   N54       1.0  0.04013  0.09499  0.83345  1.0000
  C   C1004     1.0  0.03555  0.08074  0.84963  1.0000
  C   C1005     1.0  0.05514  0.08623  0.82030  1.0000
  C   C1006     1.0  0.04551  0.10918  0.83929  1.0000
  C   C1007     1.0  0.02433  0.10364  0.82465  1.0000
  C   C1008     1.0  0.01922  0.08665  0.86409  1.0000
  C   C1009     1.0  0.05242  0.12413  0.82410  1.0000
  C   C1010     1.0  0.06232  0.13449  0.83080  1.0000
  H   H1742     1.0  0.04706  0.07519  0.85645  1.0000
  H   H1743     1.0  0.38368  0.37508  0.93773  1.0000
  H   H1744     1.0  0.05669  0.09512  0.80685  1.0000
  H   H1745     1.0  0.05560  0.10301  0.84783  1.0000
  H   H1746     1.0  0.03391  0.11623  0.84805  1.0000
  H   H1747     1.0  0.01368  0.11185  0.83320  1.0000
  H   H1748     1.0  0.12338  0.25393  0.79142  1.0000
  H   H1749     1.0  0.02174  0.09675  0.87007  1.0000
  H   H1750     1.0  0.00705  0.09239  0.85845  1.0000
  H   H1751     1.0  0.04093  0.13368  0.81900  1.0000
  H   H1752     1.0  0.06174  0.11886  0.81273  1.0000
  C   C1011     1.0  0.45770  0.35733  0.90522  1.0000
  C   C1012     1.0  0.47139  0.29801  0.94555  1.0000
  C   C1013     1.0  0.34370  0.30475  0.96234  1.0000
  S   S223      1.0  0.40595  0.43532  0.86879  1.0000
  H   H1753     1.0  0.48781  0.28441  0.96500  1.0000
  H   H1754     1.0  0.14490  0.08752  0.84010  1.0000
  H   H1755     1.0  0.99397  0.09129  0.80713  1.0000
  H   H1756     1.0  0.12937  0.12561  0.78480  1.0000
  H   H1757     1.0  0.29241  0.34867  0.82715  1.0000
  S   S224      1.0  0.42787  0.38931  0.85144  1.0000
  N   N55       1.0  0.27957  0.32232  0.81432  1.0000
  C   C1014     1.0  0.20940  0.37746  0.95427  1.0000
  H   H1758     1.0  0.01266  0.06023  0.87399  1.0000
  H   H1759     1.0  0.39039  0.46306  0.78069  1.0000
  H   H1760     1.0  0.02193  0.26262  0.81394  1.0000
  H   H1761     1.0  0.19845  0.20043  0.81551  1.0000
  H   H1762     1.0  0.44250  0.30471  0.95315  1.0000
  Fe  Fe108     1.0  0.09626  0.02304  0.80303  1.0000
  H   H1763     1.0  0.05816  0.03329  0.79658  1.0000
  C   C1015     1.0  0.36405  0.31128  0.93298  1.0000
  H   H1764     1.0  0.07668  0.99000  0.85964  1.0000
  H   H1765     1.0  0.10116  0.40839  0.91913  1.0000
  C   C1016     1.0  0.04723  0.39165  0.84318  1.0000
  C   C1017     1.0  0.37966  0.30497  0.91803  1.0000
  H   H1766     1.0  0.05421  0.40115  0.83249  1.0000
  Fe  Fe109     1.0  0.12542  0.04266  0.78054  1.0000
  H   H1767     1.0  0.11322  0.40947  0.89634  1.0000
  H   H1768     1.0  0.41437  0.38261  0.93254  1.0000
  H   H1769     1.0  0.01260  0.22270  0.87729  1.0000
  H   H1770     1.0  0.31833  0.28660  0.91625  1.0000
  H   H1771     1.0  0.16610  0.20814  0.81574  1.0000
  Fe  Fe110     1.0  0.04940  0.19884  0.81747  1.0000
  N   N56       1.0  0.39596  0.35724  0.95900  1.0000
  H   H1772     1.0  0.00132  0.16342  0.83081  1.0000
  H   H1773     1.0  0.39511  0.31591  0.89251  1.0000
  H   H1774     1.0  0.40240  0.35560  0.92094  1.0000
  H   H1775     1.0  0.12644  0.10333  0.78992  1.0000
  H   H1776     1.0  0.03329  0.06918  0.84564  1.0000
  S   S225      1.0  0.09772  0.04352  0.77760  1.0000
  H   H1777     1.0  0.44280  0.43033  0.80077  1.0000
  C   C1018     1.0  0.18916  0.20896  0.82458  1.0000
  H   H1778     1.0  0.33836  0.33366  0.95281  1.0000
  H   H1779     1.0  0.08408  0.06008  0.80898  1.0000
  H   H1780     1.0  0.43772  0.41881  0.78647  1.0000
  H   H1781     1.0  0.02677  0.06519  0.88604  1.0000
  H   H1782     1.0  0.10101  0.06729  0.81516  1.0000
  S   S226      1.0  0.08566  0.37126  0.95364  1.0000
  H   H1783     1.0  0.32204  0.29819  0.94008  1.0000
  C   C1019     1.0  0.99402  0.40854  0.87982  1.0000
  H   H1784     1.0  0.38004  0.29414  0.95943  1.0000
  S   S227      1.0  0.47129  0.37352  0.95083  1.0000
  C   C1020     1.0  0.22433  0.20555  0.77857  1.0000
  Fe  Fe111     1.0  0.48350  0.35308  0.97251  1.0000
  C   C1021     1.0  0.31507  0.32685  0.97174  1.0000
  H   H1785     1.0  0.21366  0.38272  0.96342  1.0000
  H   H1786     1.0  0.99185  0.35133  0.86131  1.0000
  H   H1787     1.0  0.03691  0.98673  0.86274  1.0000
  H   H1788     1.0  0.22555  0.34901  0.92552  1.0000
  C   C1022     1.0  0.38913  0.37577  0.94911  1.0000
  H   H1789     1.0  0.06672  0.25062  0.81704  1.0000
  H   H1790     1.0  0.47215  0.31123  0.94728  1.0000
  H   H1791     1.0  0.28864  0.34740  0.85902  1.0000
  H   H1792     1.0  0.17708  0.33826  0.96318  1.0000
  H   H1793     1.0  0.44918  0.39232  0.92585  1.0000
  H   H1794     1.0  0.42762  0.32437  0.80595  1.0000
  H   H1795     1.0  0.26948  0.29914  0.83090  1.0000
  C   C1023     1.0  0.44964  0.43666  0.90087  1.0000
  C   C1024     1.0  0.36891  0.27058  0.97222  1.0000
  H   H1796     1.0  0.24166  0.32786  0.82395  1.0000
  H   H1797     1.0  0.00501  0.30573  0.78516  1.0000
  H   H1798     1.0  0.48688  0.26602  0.92607  1.0000
  H   H1799     1.0  0.44769  0.45045  0.89276  1.0000
  H   H1800     1.0  0.47215  0.39067  0.83674  1.0000
  H   H1801     1.0  0.01080  0.08092  0.83117  1.0000
  H   H1802     1.0  0.18852  0.22450  0.79049  1.0000
  S   S228      1.0  0.33883  0.29152  0.78181  1.0000
  C   C1025     1.0  0.41021  0.34649  0.94689  1.0000
  H   H1803     1.0  0.26316  0.34148  0.79701  1.0000
  S   S229      1.0  0.10616  0.99987  0.78906  1.0000
  H   H1804     1.0  0.39221  0.33765  0.93497  1.0000
  H   H1805     1.0  0.30647  0.33994  0.96727  1.0000
  H   H1806     1.0  0.48735  0.38130  0.89377  1.0000
  H   H1807     1.0  0.11499  0.26935  0.81732  1.0000
  H   H1808     1.0  0.35260  0.40190  0.79776  1.0000
  H   H1809     1.0  0.03414  0.27957  0.80112  1.0000
  H   H1810     1.0  0.06791  0.46731  0.95458  1.0000
  H   H1811     1.0  0.07415  0.41224  0.95333  1.0000
  H   H1812     1.0  0.40212  0.47908  0.80754  1.0000
  H   H1813     1.0  0.34561  0.42022  0.78026  1.0000
  C   C1026     1.0  0.38241  0.45345  0.78047  1.0000
  C   C1027     1.0  0.40317  0.35785  0.97474  1.0000
  H   H1814     1.0  0.47185  0.41338  0.85380  1.0000
  H   H1815     1.0  0.02192  0.26629  0.78255  1.0000
  H   H1816     1.0  0.38301  0.35320  0.78160  1.0000
  C   C1028     1.0  0.99389  0.13028  0.86713  1.0000
  N   N57       1.0  0.16183  0.24042  0.78947  1.0000
  H   H1817     1.0  0.07383  0.43848  0.96452  1.0000
  H   H1818     1.0  0.99725  0.28560  0.89854  1.0000
  H   H1819     1.0  0.11678  0.98721  0.85700  1.0000
  H   H1820     1.0  0.17628  0.20396  0.78562  1.0000
  H   H1821     1.0  0.00071  0.37349  0.83746  1.0000
  Fe  Fe112     1.0  0.10611  0.37406  0.96781  1.0000
  S   S230      1.0  0.13381  0.35762  0.96815  1.0000
  H   H1822     1.0  0.09264  0.46754  0.96885  1.0000
  C   C1029     1.0  0.13155  0.26314  0.79209  1.0000
  C   C1030     1.0  0.06498  0.41482  0.96604  1.0000
  H   H1823     1.0  0.05257  0.41008  0.96725  1.0000
  H   H1824     1.0  0.13456  0.47364  0.94689  1.0000
  H   H1825     1.0  0.38515  0.33319  0.96940  1.0000
  H   H1826     1.0  0.14890  0.19212  0.78914  1.0000
  C   C1031     1.0  0.15312  0.22675  0.78673  1.0000
  H   H1827     1.0  0.99494  0.37307  0.88727  1.0000
  C   C1032     1.0  0.99591  0.35309  0.87304  1.0000
  C   C1033     1.0  0.99138  0.38458  0.84338  1.0000
  H   H1828     1.0  0.99261  0.41543  0.85212  1.0000
  H   H1829     1.0  0.99205  0.32676  0.88766  1.0000
  H   H1830     1.0  0.09977  0.10815  0.77735  1.0000
  H   H1831     1.0  0.45346  0.29265  0.97138  1.0000
  H   H1832     1.0  0.14323  0.23330  0.77802  1.0000
  H   H1833     1.0  0.99162  0.43725  0.86937  1.0000
  H   H1834     1.0  0.18439  0.31656  0.97635  1.0000
  C   C1034     1.0  0.09074  0.98245  0.85724  1.0000
  H   H1835     1.0  0.48926  0.28117  0.89423  1.0000
  H   H1836     1.0  0.48911  0.37043  0.83783  1.0000
  C   C1035     1.0  0.16597  0.21167  0.77780  1.0000
  C   C1036     1.0  0.17929  0.33093  0.97667  1.0000
  H   H1837     1.0  0.44254  0.90244  0.07582  1.0000
  S   S231      1.0  0.09175  0.51677  0.08163  1.0000
  H   H1838     1.0  0.12240  0.53122  0.00235  1.0000
  H   H1839     1.0  0.00796  0.83421  0.01113  1.0000
  S   S232      1.0  0.13009  0.49671  0.06074  1.0000
  Fe  Fe113     1.0  0.13555  0.62042  0.11149  1.0000
  S   S233      1.0  0.15297  0.62265  0.08410  1.0000
  S   S234      1.0  0.10606  0.63238  0.11498  1.0000
  Fe  Fe114     1.0  0.16622  0.59950  0.12986  1.0000
  S   S235      1.0  0.18578  0.60079  0.10374  1.0000
  S   S236      1.0  0.18002  0.58075  0.15119  1.0000
  Fe  Fe115     1.0  0.17194  0.62934  0.09710  1.0000
  S   S237      1.0  0.18727  0.65110  0.08231  1.0000
  Fe  Fe116     1.0  0.16501  0.59387  0.09368  1.0000
  S   S238      1.0  0.17403  0.56988  0.08079  1.0000
  S   S239      1.0  0.15381  0.62881  0.12409  1.0000
  S   S240      1.0  0.14601  0.59115  0.12012  1.0000
  Fe  Fe117     1.0  0.19934  0.76372  0.09165  1.0000
  S   S241      1.0  0.20339  0.74980  0.11917  1.0000
  S   S242      1.0  0.17284  0.78220  0.08818  1.0000
  Fe  Fe118     1.0  0.23673  0.74747  0.07480  1.0000
  S   S243      1.0  0.24394  0.73176  0.10095  1.0000
  S   S244      1.0  0.25637  0.74595  0.04869  1.0000
  Fe  Fe119     1.0  0.21639  0.72561  0.10721  1.0000
  S   S245      1.0  0.20841  0.69952  0.12295  1.0000
  Fe  Fe120     1.0  0.23044  0.75714  0.11075  1.0000
  S   S246      1.0  0.23920  0.76860  0.12988  1.0000
  S   S247      1.0  0.21045  0.73907  0.08018  1.0000
  S   S248      1.0  0.22518  0.77329  0.08422  1.0000
  Fe  Fe121     1.0  0.07967  0.77448  0.02982  1.0000
  S   S249      1.0  0.09039  0.78678  0.04631  1.0000
  S   S250      1.0  0.06841  0.75067  0.04645  1.0000
  Fe  Fe122     1.0  0.08785  0.80308  0.99643  1.0000
  S   S251      1.0  0.09907  0.81734  0.01063  1.0000
  C   C1037     1.0  0.19116  0.50445  0.10018  1.0000
  Fe  Fe123     1.0  0.11280  0.78995  0.02250  1.0000
  S   S252      1.0  0.14247  0.78142  0.02200  1.0000
  Fe  Fe124     1.0  0.07539  0.81271  0.03290  1.0000
  S   S253      1.0  0.05855  0.83441  0.04752  1.0000
  S   S254      1.0  0.10313  0.77579  0.00677  1.0000
  S   S255      1.0  0.06324  0.80023  0.01790  1.0000
  Fe  Fe125     1.0  0.40104  0.86691  0.00904  1.0000
  S   S256      1.0  0.40597  0.84085  0.02847  1.0000
  S   S257      1.0  0.37738  0.88895  0.01450  1.0000
  Fe  Fe126     1.0  0.34808  0.83340  0.12307  1.0000
  S   S258      1.0  0.31835  0.84180  0.12598  1.0000
  S   S259      1.0  0.36412  0.85305  0.10493  1.0000
  Fe  Fe127     1.0  0.34541  0.80031  0.15267  1.0000
  H   H1840     1.0  0.41917  0.90506  0.05880  1.0000
  H   H1841     1.0  0.14548  0.53388  0.01724  1.0000
  Fe  Fe128     1.0  0.31892  0.81285  0.12788  1.0000
  S   S260      1.0  0.30786  0.80301  0.10916  1.0000
  C   C1038     1.0  0.13091  0.51935  0.99711  1.0000
  H   H1842     1.0  0.36813  0.91804  0.03796  1.0000
  S   S261      1.0  0.34901  0.80497  0.12291  1.0000
  S   S262      1.0  0.34787  0.82793  0.15226  1.0000
  C   C1039     1.0  0.04374  0.59974  0.02737  1.0000
  H   H1843     1.0  0.15024  0.55841  0.15707  1.0000
  H   H1844     1.0  0.10399  0.49859  0.00897  1.0000
  H   H1845     1.0  0.18078  0.49801  0.11018  1.0000
  N   N58       1.0  0.19381  0.81413  0.00237  1.0000
  S   S263      1.0  0.15850  0.49679  0.15043  1.0000
  C   C1040     1.0  0.44474  0.92694  0.01572  1.0000
  H   H1846     1.0  0.05876  0.59257  0.05492  1.0000
  Fe  Fe129     1.0  0.00947  0.66587  0.07287  1.0000
  C   C1041     1.0  0.01454  0.86682  0.00944  1.0000
  H   H1847     1.0  0.35277  0.94674  0.12072  1.0000
  Fe  Fe130     1.0  0.04322  0.64501  0.05322  1.0000
  S   S264      1.0  0.03448  0.65505  0.02693  1.0000
  S   S265      1.0  0.06961  0.62586  0.05520  1.0000
  Fe  Fe131     1.0  0.02604  0.68164  0.03515  1.0000
  S   S266      1.0  0.03181  0.70672  0.01541  1.0000
  Fe  Fe132     1.0  0.00742  0.65039  0.04253  1.0000
  H   H1848     1.0  0.47462  0.92220  0.98358  1.0000
  S   S267      1.0  0.03670  0.67184  0.06038  1.0000
  S   S268      1.0  0.01697  0.63798  0.06814  1.0000
  H   H1849     1.0  0.43763  0.91342  0.10263  1.0000
  C   C1042     1.0  0.99579  0.88992  0.16748  1.0000
  S   S269      1.0  0.40851  0.91100  0.13286  1.0000
  H   H1850     1.0  0.41019  0.94233  0.14416  1.0000
  C   C1043     1.0  0.03970  0.56667  0.01746  1.0000
  C   C1044     1.0  0.20410  0.77947  0.00757  1.0000
  H   H1851     1.0  0.02834  0.87021  0.15236  1.0000
  H   H1852     1.0  0.09810  0.49422  0.15927  1.0000
  H   H1853     1.0  0.41999  0.92803  0.04957  1.0000
  H   H1854     1.0  0.44361  0.92571  0.06632  1.0000
  C   C1045     1.0  0.03084  0.86926  0.97817  1.0000
  H   H1855     1.0  0.02656  0.56440  0.02576  1.0000
  H   H1856     1.0  0.37655  0.91891  0.10111  1.0000
  H   H1857     1.0  0.01363  0.74639  0.06448  1.0000
  C   C1046     1.0  0.39489  0.84378  0.05000  1.0000
  C   C1047     1.0  0.39132  0.86058  0.05420  1.0000
  C   C1048     1.0  0.38201  0.86310  0.07123  1.0000
  C   C1049     1.0  0.37577  0.84900  0.08393  1.0000
  C   C1050     1.0  0.37942  0.83211  0.07985  1.0000
  C   C1051     1.0  0.38927  0.82943  0.06292  1.0000
  H   H1858     1.0  0.39602  0.87158  0.04442  1.0000
  H   H1859     1.0  0.37955  0.87600  0.07460  1.0000
  H   H1860     1.0  0.37490  0.82111  0.08977  1.0000
  H   H1861     1.0  0.39238  0.81635  0.05977  1.0000
  C   C1052     1.0  0.03507  0.83672  0.05255  1.0000
  C   C1053     1.0  0.02709  0.82405  0.04986  1.0000
  C   C1054     1.0  0.00838  0.82688  0.05262  1.0000
  S   S270      1.0  0.48696  0.95897  0.05301  1.0000
  C   C1055     1.0  0.00538  0.85445  0.06191  1.0000
  C   C1056     1.0  0.02415  0.85184  0.05874  1.0000
  H   H1862     1.0  0.03531  0.81217  0.04550  1.0000
  H   H1863     1.0  0.00229  0.81733  0.05002  1.0000
  H   H1864     1.0  0.03024  0.86164  0.06095  1.0000
  C   C1057     1.0  0.05720  0.73992  0.03729  1.0000
  C   C1058     1.0  0.05803  0.74309  0.01894  1.0000
  C   C1059     1.0  0.04989  0.73311  0.01220  1.0000
  C   C1060     1.0  0.04079  0.72016  0.02383  1.0000
  C   C1061     1.0  0.03935  0.71769  0.04217  1.0000
  C   C1062     1.0  0.04773  0.72733  0.04884  1.0000
  H   H1865     1.0  0.06531  0.75284  0.00994  1.0000
  H   H1866     1.0  0.05091  0.73517  0.99797  1.0000
  H   H1867     1.0  0.03162  0.70845  0.05127  1.0000
  H   H1868     1.0  0.04685  0.72494  0.06302  1.0000
  C   C1063     1.0  0.25832  0.77813  0.12377  1.0000
  C   C1064     1.0  0.27205  0.77439  0.10926  1.0000
  C   C1065     1.0  0.28721  0.78205  0.10503  1.0000
  C   C1066     1.0  0.28879  0.79343  0.11528  1.0000
  C   C1067     1.0  0.27506  0.79718  0.12976  1.0000
  C   C1068     1.0  0.25988  0.78957  0.13396  1.0000
  H   H1869     1.0  0.27101  0.76552  0.10139  1.0000
  H   H1870     1.0  0.29784  0.77904  0.09383  1.0000
  H   H1871     1.0  0.01259  0.63926  0.00355  1.0000
  H   H1872     1.0  0.27603  0.80615  0.13756  1.0000
  C   C1069     1.0  0.16422  0.78160  0.07004  1.0000
  C   C1070     1.0  0.17453  0.77203  0.05705  1.0000
  C   C1071     1.0  0.16748  0.77184  0.04259  1.0000
  C   C1072     1.0  0.15021  0.78134  0.04090  1.0000
  C   C1073     1.0  0.13984  0.79094  0.05385  1.0000
  C   C1074     1.0  0.14686  0.79108  0.06841  1.0000
  H   H1873     1.0  0.18799  0.76492  0.05802  1.0000
  H   H1874     1.0  0.17542  0.76420  0.03272  1.0000
  H   H1875     1.0  0.12651  0.79841  0.05257  1.0000
  H   H1876     1.0  0.13887  0.79860  0.07839  1.0000
  C   C1075     1.0  0.25493  0.76585  0.03251  1.0000
  C   C1076     1.0  0.24114  0.78056  0.03544  1.0000
  C   C1077     1.0  0.24088  0.79675  0.02305  1.0000
  C   C1078     1.0  0.25390  0.79814  0.00728  1.0000
  C   C1079     1.0  0.26741  0.78331  0.00401  1.0000
  C   C1080     1.0  0.26799  0.76720  0.01670  1.0000
  H   H1877     1.0  0.23074  0.77950  0.04727  1.0000
  H   H1878     1.0  0.23048  0.80820  0.02564  1.0000
  C   C1081     1.0  0.99748  0.84201  0.05869  1.0000
  H   H1879     1.0  0.27863  0.75580  0.01433  1.0000
  C   C1082     1.0  0.19314  0.66423  0.09396  1.0000
  C   C1083     1.0  0.20444  0.67611  0.08453  1.0000
  C   C1084     1.0  0.20890  0.68726  0.09321  1.0000
  C   C1085     1.0  0.20234  0.68636  0.11149  1.0000
  C   C1086     1.0  0.19110  0.67442  0.12097  1.0000
  C   C1087     1.0  0.18644  0.66344  0.11223  1.0000
  H   H1880     1.0  0.20975  0.67670  0.07041  1.0000
  H   H1881     1.0  0.21774  0.69627  0.08584  1.0000
  H   H1882     1.0  0.18585  0.67380  0.13507  1.0000
  H   H1883     1.0  0.17765  0.65441  0.11960  1.0000
  C   C1088     1.0  0.09601  0.63024  0.09848  1.0000
  C   C1089     1.0  0.07830  0.63909  0.09796  1.0000
  C   C1090     1.0  0.07002  0.63760  0.08487  1.0000
  C   C1091     1.0  0.07934  0.62705  0.07238  1.0000
  C   C1092     1.0  0.09685  0.61768  0.07329  1.0000
  C   C1093     1.0  0.10527  0.61947  0.08614  1.0000
  H   H1884     1.0  0.07099  0.64723  0.10764  1.0000
  H   H1885     1.0  0.05639  0.64458  0.08452  1.0000
  H   H1886     1.0  0.10409  0.60943  0.06372  1.0000
  H   H1887     1.0  0.11887  0.61239  0.08658  1.0000
  C   C1094     1.0  0.13385  0.55602  0.05679  1.0000
  C   C1095     1.0  0.14750  0.54267  0.06316  1.0000
  C   C1096     1.0  0.16004  0.54716  0.07011  1.0000
  C   C1097     1.0  0.15857  0.56485  0.07133  1.0000
  C   C1098     1.0  0.14488  0.57818  0.06500  1.0000
  C   C1099     1.0  0.13272  0.57379  0.05749  1.0000
  H   H1888     1.0  0.17071  0.53689  0.07481  1.0000
  H   H1889     1.0  0.14381  0.59188  0.06572  1.0000
  H   H1890     1.0  0.12233  0.58413  0.05229  1.0000
  H   H1891     1.0  0.01016  0.79236  0.07506  1.0000
  C   C1100     1.0  0.13097  0.49510  0.11457  1.0000
  C   C1101     1.0  0.14062  0.50086  0.12386  1.0000
  H   H1892     1.0  0.00328  0.81357  0.09503  1.0000
  H   H1893     1.0  0.11381  0.76560  0.07033  1.0000
  H   H1894     1.0  0.10982  0.73499  0.08893  1.0000
  H   H1895     1.0  0.12498  0.50441  0.10404  1.0000
  H   H1896     1.0  0.14213  0.51459  0.12042  1.0000
  H   H1897     1.0  0.38224  0.85518  0.15205  1.0000
  H   H1898     1.0  0.19194  0.77712  0.00477  1.0000
  H   H1899     1.0  0.35577  0.81715  0.00311  1.0000
  C   C1102     1.0  0.01256  0.77250  0.04813  1.0000
  H   H1900     1.0  0.05968  0.49847  0.13398  1.0000
  H   H1901     1.0  0.23232  0.76632  0.00455  1.0000
  H   H1902     1.0  0.09405  0.60168  0.14383  1.0000
  C   C1103     1.0  0.38241  0.82171  0.99289  1.0000
  C   C1104     1.0  0.99699  0.58314  0.06527  1.0000
  H   H1903     1.0  0.16181  0.70635  0.06012  1.0000
  H   H1904     1.0  0.23015  0.51142  0.17344  1.0000
  N   N59       1.0  0.29705  0.74775  0.16626  1.0000
  H   H1905     1.0  0.06617  0.56626  0.02115  1.0000
  H   H1906     1.0  0.05151  0.52973  0.15449  1.0000
  C   C1105     1.0  0.42134  0.91733  0.06153  1.0000
  C   C1106     1.0  0.22200  0.61770  0.13880  1.0000
  H   H1907     1.0  0.45548  0.95721  0.14714  1.0000
  H   H1908     1.0  0.04632  0.85982  0.01725  1.0000
  C   C1107     1.0  0.44052  0.91357  0.06424  1.0000
  H   H1909     1.0  0.02767  0.80501  0.01093  1.0000
  S   S271      1.0  0.99339  0.67109  0.09943  1.0000
  H   H1910     1.0  0.04696  0.83451  0.99151  1.0000
  C   C1108     1.0  0.14609  0.83068  0.99099  1.0000
  H   H1911     1.0  0.04737  0.61435  0.98990  1.0000
  H   H1912     1.0  0.30103  0.84945  0.00445  1.0000
  C   C1109     1.0  0.42263  0.92640  0.12420  1.0000
  S   S272      1.0  0.42013  0.88528  0.99590  1.0000
  H   H1913     1.0  0.45002  0.90970  0.05218  1.0000
  H   H1914     1.0  0.20933  0.79816  0.98296  1.0000
  C   C1110     1.0  0.42075  0.94049  0.13259  1.0000
  H   H1915     1.0  0.16474  0.84316  0.99598  1.0000
  C   C1111     1.0  0.20166  0.83051  0.99343  1.0000
  H   H1916     1.0  0.45277  0.91049  0.98130  1.0000
  H   H1917     1.0  0.08361  0.49258  0.13208  1.0000
  H   H1918     1.0  0.06150  0.58412  0.15144  1.0000
  Fe  Fe133     1.0  0.10851  0.48907  0.08400  1.0000
  N   N60       1.0  0.25681  0.82344  0.06808  1.0000
  C   C1112     1.0  0.24544  0.83039  0.05410  1.0000
  C   C1113     1.0  0.24575  0.81480  0.08506  1.0000
  C   C1114     1.0  0.26293  0.83891  0.07085  1.0000
  C   C1115     1.0  0.27311  0.80975  0.06229  1.0000
  C   C1116     1.0  0.26946  0.79316  0.05801  1.0000
  C   C1117     1.0  0.25548  0.83642  0.03469  1.0000
  C   C1118     1.0  0.27304  0.83475  0.08632  1.0000
  C   C1119     1.0  0.22931  0.82736  0.09407  1.0000
  C   C1120     1.0  0.21922  0.81700  0.11106  1.0000
  C   C1121     1.0  0.28688  0.78141  0.05026  1.0000
  C   C1122     1.0  0.24236  0.84675  0.02258  1.0000
  C   C1123     1.0  0.27813  0.85146  0.08813  1.0000
  H   H1919     1.0  0.23486  0.84204  0.05756  1.0000
  H   H1920     1.0  0.23799  0.82026  0.05393  1.0000
  H   H1921     1.0  0.24043  0.80419  0.08255  1.0000
  H   H1922     1.0  0.25419  0.80780  0.09503  1.0000
  H   H1923     1.0  0.25142  0.85025  0.07296  1.0000
  H   H1924     1.0  0.27217  0.84428  0.05864  1.0000
  H   H1925     1.0  0.28226  0.81601  0.05056  1.0000
  H   H1926     1.0  0.28104  0.80441  0.07289  1.0000
  H   H1927     1.0  0.26072  0.79701  0.04821  1.0000
  H   H1928     1.0  0.26296  0.78484  0.07028  1.0000
  H   H1929     1.0  0.26454  0.84527  0.03399  1.0000
  H   H1930     1.0  0.26361  0.82467  0.02907  1.0000
  H   H1931     1.0  0.28567  0.82483  0.08380  1.0000
  H   H1932     1.0  0.26481  0.82956  0.09932  1.0000
  H   H1933     1.0  0.23340  0.83802  0.09786  1.0000
  H   H1934     1.0  0.21976  0.83365  0.08505  1.0000
  H   H1935     1.0  0.22787  0.81122  0.12104  1.0000
  H   H1936     1.0  0.20720  0.82610  0.11699  1.0000
  H   H1937     1.0  0.21479  0.80604  0.10810  1.0000
  H   H1938     1.0  0.29622  0.77715  0.05963  1.0000
  H   H1939     1.0  0.28396  0.76926  0.04805  1.0000
  H   H1940     1.0  0.29338  0.78868  0.03723  1.0000
  H   H1941     1.0  0.23282  0.83858  0.02270  1.0000
  H   H1942     1.0  0.23474  0.85933  0.02692  1.0000
  H   H1943     1.0  0.24986  0.85020  0.00866  1.0000
  H   H1944     1.0  0.28696  0.85694  0.07564  1.0000
  H   H1945     1.0  0.26596  0.86182  0.09127  1.0000
  H   H1946     1.0  0.28551  0.84796  0.09916  1.0000
  H   H1947     1.0  0.05863  0.49343  0.04443  1.0000
  H   H1948     1.0  0.33212  0.84659  0.00769  1.0000
  C   C1124     1.0  0.18990  0.81193  0.02249  1.0000
  H   H1949     1.0  0.36987  0.92915  0.12965  1.0000
  H   H1950     1.0  0.20242  0.77793  0.02216  1.0000
  H   H1951     1.0  0.99561  0.70288  0.07161  1.0000
  H   H1952     1.0  0.40703  0.91029  0.08865  1.0000
  H   H1953     1.0  0.99203  0.76045  0.06802  1.0000
  C   C1125     1.0  0.18454  0.82915  0.03020  1.0000
  C   C1126     1.0  0.17822  0.82493  0.05046  1.0000
  H   H1954     1.0  0.15986  0.50769  0.99166  1.0000
  H   H1955     1.0  0.12045  0.72025  0.00849  1.0000
  C   C1127     1.0  0.07187  0.60634  0.16529  1.0000
  H   H1956     1.0  0.07360  0.49444  0.00896  1.0000
  H   H1957     1.0  0.32415  0.76088  0.11337  1.0000
  H   H1958     1.0  0.17931  0.80399  0.02876  1.0000
  H   H1959     1.0  0.20185  0.80408  0.02799  1.0000
  N   N61       1.0  0.03195  0.86032  0.99728  1.0000
  H   H1960     1.0  0.35409  0.92144  0.07710  1.0000
  H   H1961     1.0  0.42860  0.96969  0.02139  1.0000
  H   H1962     1.0  0.07543  0.65981  0.00089  1.0000
  N   N62       1.0  0.01016  0.76408  0.08254  1.0000
  H   H1963     1.0  0.22874  0.60491  0.14621  1.0000
  C   C1128     1.0  0.38802  0.94967  0.06259  1.0000
  C   C1129     1.0  0.40743  0.92265  0.07807  1.0000
  C   C1130     1.0  0.07970  0.86356  0.00060  1.0000
  H   H1964     1.0  0.41110  0.79054  0.14180  1.0000
  H   H1965     1.0  0.19631  0.83545  0.02726  1.0000
  H   H1966     1.0  0.17369  0.83907  0.02453  1.0000
  H   H1967     1.0  0.17562  0.83720  0.05581  1.0000
  H   H1968     1.0  0.13626  0.55328  0.14518  1.0000
  H   H1969     1.0  0.21700  0.75150  0.00984  1.0000
  H   H1970     1.0  0.01866  0.62146  0.98009  1.0000
  H   H1971     1.0  0.99204  0.77008  0.03548  1.0000
  H   H1972     1.0  0.39140  0.91885  0.05274  1.0000
  H   H1973     1.0  0.99255  0.88911  0.14074  1.0000
  H   H1974     1.0  0.99673  0.86770  0.15523  1.0000
  H   H1975     1.0  0.24523  0.67951  0.16074  1.0000
  C   C1131     1.0  0.40126  0.96093  0.06323  1.0000
  C   C1132     1.0  0.06427  0.55261  0.14509  1.0000
  H   H1976     1.0  0.08232  0.55431  0.08318  1.0000
  C   C1133     1.0  0.06014  0.60464  0.01279  1.0000
  H   H1977     1.0  0.00143  0.53391  0.03311  1.0000
  C   C1134     1.0  0.06611  0.85913  0.99260  1.0000
  H   H1978     1.0  0.20409  0.49466  0.09891  1.0000
  C   C1135     1.0  0.43263  0.95224  0.12605  1.0000
  C   C1136     1.0  0.00661  0.76010  0.06625  1.0000
  Fe  Fe134     1.0  0.46420  0.96809  0.03837  1.0000
  C   C1137     1.0  0.00998  0.73121  0.09934  1.0000
  C   C1138     1.0  0.39806  0.79766  0.14851  1.0000
  C   C1139     1.0  0.21972  0.76466  0.00198  1.0000
  H   H1979     1.0  0.34561  0.91855  0.05053  1.0000
  H   H1980     1.0  0.21348  0.82985  0.99899  1.0000
  C   C1140     1.0  0.11353  0.76165  0.08486  1.0000
  H   H1981     1.0  0.01660  0.53856  0.05474  1.0000
  H   H1982     1.0  0.31408  0.82719  0.00435  1.0000
  C   C1141     1.0  0.42953  0.92350  0.01227  1.0000
  H   H1983     1.0  0.17181  0.73225  0.12588  1.0000
  H   H1984     1.0  0.05131  0.56194  0.14405  1.0000
  H   H1985     1.0  0.07670  0.55336  0.05445  1.0000
  C   C1142     1.0  0.12013  0.74154  0.09026  1.0000
  H   H1986     1.0  0.32882  0.72101  0.17099  1.0000
  N   N63       1.0  0.34744  0.82757  0.03733  1.0000
  C   C1143     1.0  0.34340  0.84202  0.04800  1.0000
  C   C1144     1.0  0.35443  0.81004  0.04892  1.0000
  C   C1145     1.0  0.36205  0.83087  0.02098  1.0000
  C   C1146     1.0  0.33070  0.82595  0.03261  1.0000
  C   C1147     1.0  0.32214  0.84206  0.01954  1.0000
  C   C1148     1.0  0.34506  0.86112  0.03752  1.0000
  H   H1987     1.0  0.19213  0.84286  0.99642  1.0000
  C   C1149     1.0  0.34272  0.80516  0.06781  1.0000
  C   C1150     1.0  0.35206  0.78789  0.07846  1.0000
  H   H1988     1.0  0.40170  0.96121  0.07698  1.0000
  C   C1151     1.0  0.33822  0.87458  0.04976  1.0000
  H   H1989     1.0  0.45726  0.87193  0.97734  1.0000
  H   H1990     1.0  0.35282  0.83874  0.05727  1.0000
  H   H1991     1.0  0.32978  0.84272  0.05670  1.0000
  H   H1992     1.0  0.35610  0.79870  0.04240  1.0000
  H   H1993     1.0  0.36801  0.80991  0.05073  1.0000
  H   H1994     1.0  0.37435  0.83131  0.02513  1.0000
  H   H1995     1.0  0.35851  0.84415  0.01233  1.0000
  H   H1996     1.0  0.33325  0.81374  0.02708  1.0000
  H   H1997     1.0  0.32007  0.82395  0.04481  1.0000
  H   H1998     1.0  0.13411  0.84071  0.99541  1.0000
  H   H1999     1.0  0.31553  0.85331  0.02647  1.0000
  H   H2000     1.0  0.35940  0.86127  0.03175  1.0000
  H   H2001     1.0  0.33769  0.86570  0.02650  1.0000
  C   C1152     1.0  0.36705  0.94303  0.12186  1.0000
  H   H2002     1.0  0.37222  0.80349  0.01583  1.0000
  H   H2003     1.0  0.34015  0.81564  0.07565  1.0000
  H   H2004     1.0  0.32963  0.80310  0.06691  1.0000
  H   H2005     1.0  0.36500  0.78947  0.08030  1.0000
  H   H2006     1.0  0.35445  0.77662  0.07164  1.0000
  C   C1153     1.0  0.29236  0.73156  0.16324  1.0000
  C   C1154     1.0  0.28141  0.73499  0.14852  1.0000
  C   C1155     1.0  0.00117  0.78328  0.08348  1.0000
  H   H2007     1.0  0.33992  0.88805  0.04190  1.0000
  H   H2008     1.0  0.32379  0.87516  0.05576  1.0000
  H   H2009     1.0  0.34592  0.87092  0.06056  1.0000
  C   C1156     1.0  0.01393  0.52515  0.03541  1.0000
  C   C1157     1.0  0.42887  0.95682  0.01887  1.0000
  H   H2010     1.0  0.99239  0.91852  0.13878  1.0000
  N   N64       1.0  0.19915  0.53045  0.13252  1.0000
  C   C1158     1.0  0.20272  0.54732  0.11936  1.0000
  C   C1159     1.0  0.18141  0.53455  0.14516  1.0000
  C   C1160     1.0  0.21342  0.52443  0.14362  1.0000
  C   C1161     1.0  0.19971  0.51557  0.12354  1.0000
  C   C1162     1.0  0.19307  0.52090  0.10568  1.0000
  C   C1163     1.0  0.22190  0.54599  0.10764  1.0000
  C   C1164     1.0  0.21110  0.50827  0.15940  1.0000
  C   C1165     1.0  0.16463  0.54266  0.13691  1.0000
  C   C1166     1.0  0.14826  0.54792  0.15121  1.0000
  H   H2011     1.0  0.17937  0.48572  0.04360  1.0000
  C   C1167     1.0  0.22294  0.56155  0.09161  1.0000
  C   C1168     1.0  0.04304  0.60591  0.10448  1.0000
  H   H2012     1.0  0.20043  0.55839  0.12649  1.0000
  H   H2013     1.0  0.19309  0.55210  0.11032  1.0000
  H   H2014     1.0  0.17837  0.52225  0.15480  1.0000
  H   H2015     1.0  0.18218  0.54380  0.15327  1.0000
  H   H2016     1.0  0.21426  0.53568  0.14925  1.0000
  H   H2017     1.0  0.22681  0.52059  0.13512  1.0000
  H   H2018     1.0  0.21362  0.50772  0.12050  1.0000
  H   H2019     1.0  0.19197  0.50580  0.13286  1.0000
  H   H2020     1.0  0.20277  0.52741  0.09480  1.0000
  H   H2021     1.0  0.18004  0.53039  0.10635  1.0000
  H   H2022     1.0  0.23144  0.54639  0.11561  1.0000
  H   H2023     1.0  0.22649  0.53336  0.10267  1.0000
  H   H2024     1.0  0.20841  0.49715  0.15505  1.0000
  S   S273      1.0  0.46211  0.96375  0.10402  1.0000
  H   H2025     1.0  0.16631  0.55475  0.12645  1.0000
  H   H2026     1.0  0.16155  0.53272  0.13119  1.0000
  H   H2027     1.0  0.14581  0.53611  0.16194  1.0000
  S   S274      1.0  0.99816  0.67791  0.04833  1.0000
  H   H2028     1.0  0.31347  0.87803  0.98305  1.0000
  H   H2029     1.0  0.01289  0.80888  0.99586  1.0000
  H   H2030     1.0  0.40844  0.81170  0.16188  1.0000
  H   H2031     1.0  0.20773  0.62545  0.11688  1.0000
  H   H2032     1.0  0.23677  0.56007  0.08347  1.0000
  H   H2033     1.0  0.21367  0.56185  0.08306  1.0000
  H   H2034     1.0  0.21948  0.57439  0.09613  1.0000
  H   H2035     1.0  0.01897  0.88942  0.01787  1.0000
  H   H2036     1.0  0.99820  0.58548  0.07810  1.0000
  H   H2037     1.0  0.07889  0.85651  0.01476  1.0000
  C   C1169     1.0  0.02250  0.52771  0.04775  1.0000
  S   S275      1.0  0.30153  0.85205  0.17455  1.0000
  H   H2038     1.0  0.23985  0.49743  0.15706  1.0000
  H   H2039     1.0  0.06738  0.57570  0.08333  1.0000
  H   H2040     1.0  0.39056  0.94853  0.04839  1.0000
  C   C1170     1.0  0.46893  0.87672  0.97835  1.0000
  H   H2041     1.0  0.03255  0.60128  0.02070  1.0000
  C   C1171     1.0  0.42355  0.86131  0.17062  1.0000
  H   H2042     1.0  0.00490  0.72269  0.12834  1.0000
  C   C1172     1.0  0.41546  0.84532  0.15089  1.0000
  H   H2043     1.0  0.05356  0.55348  0.03890  1.0000
  H   H2044     1.0  0.25596  0.66052  0.15052  1.0000
  H   H2045     1.0  0.15133  0.50978  0.02348  1.0000
  H   H2046     1.0  0.42977  0.91052  0.01017  1.0000
  H   H2047     1.0  0.36173  0.89797  0.12538  1.0000
  C   C1173     1.0  0.01212  0.58901  0.05020  1.0000
  H   H2048     1.0  0.99706  0.86615  0.06664  1.0000
  H   H2049     1.0  0.27176  0.76493  0.16143  1.0000
  H   H2050     1.0  0.46895  0.95992  0.16071  1.0000
  H   H2051     1.0  0.46771  0.91012  0.13574  1.0000
  C   C1174     1.0  0.21418  0.61312  0.12522  1.0000
  C   C1175     1.0  0.27865  0.71750  0.14592  1.0000
  H   H2052     1.0  0.43943  0.89977  0.15214  1.0000
  S   S276      1.0  0.25237  0.81848  0.99181  1.0000
  Fe  Fe135     1.0  0.99202  0.53115  0.99845  1.0000
  H   H2053     1.0  0.00662  0.78670  0.04846  1.0000
  H   H2054     1.0  0.28836  0.74171  0.13547  1.0000
  H   H2055     1.0  0.04492  0.59308  0.13134  1.0000
  H   H2056     1.0  0.22499  0.60555  0.11628  1.0000
  H   H2057     1.0  0.18024  0.81508  0.98147  1.0000
  H   H2058     1.0  0.33832  0.85754  0.16941  1.0000
  C   C1176     1.0  0.36322  0.92476  0.06404  1.0000
  H   H2059     1.0  0.00301  0.86444  0.00539  1.0000
  C   C1177     1.0  0.04676  0.86518  0.00272  1.0000
  N   N65       1.0  0.40774  0.84588  0.13516  1.0000
  C   C1178     1.0  0.40852  0.82681  0.13439  1.0000
  C   C1179     1.0  0.41955  0.85385  0.11830  1.0000
  H   H2060     1.0  0.13072  0.70714  0.07285  1.0000
  C   C1180     1.0  0.38427  0.87561  0.12780  1.0000
  C   C1181     1.0  0.39988  0.81519  0.15184  1.0000
  C   C1182     1.0  0.41614  0.85152  0.10067  1.0000
  C   C1183     1.0  0.42358  0.86489  0.08458  1.0000
  H   H2061     1.0  0.05927  0.53495  0.13066  1.0000
  H   H2062     1.0  0.42269  0.81976  0.13058  1.0000
  H   H2063     1.0  0.40172  0.82652  0.12379  1.0000
  C   C1184     1.0  0.99481  0.78806  0.10225  1.0000
  H   H2064     1.0  0.43390  0.84765  0.11847  1.0000
  H   H2065     1.0  0.42884  0.83612  0.15025  1.0000
  H   H2066     1.0  0.38655  0.87662  0.11322  1.0000
  H   H2067     1.0  0.39274  0.88352  0.13014  1.0000
  H   H2068     1.0  0.07513  0.52434  0.14506  1.0000
  C   C1185     1.0  0.24343  0.61533  0.17136  1.0000
  H   H2069     1.0  0.42274  0.83787  0.09838  1.0000
  H   H2070     1.0  0.40169  0.85314  0.10125  1.0000
  H   H2071     1.0  0.43814  0.86363  0.08348  1.0000
  H   H2072     1.0  0.42154  0.86230  0.07220  1.0000
  H   H2073     1.0  0.41645  0.87870  0.08579  1.0000
  H   H2074     1.0  0.16799  0.48328  0.06665  1.0000
  C   C1186     1.0  0.27964  0.76022  0.17209  1.0000
  C   C1187     1.0  0.24327  0.67040  0.15317  1.0000
  S   S277      1.0  0.09813  0.51691  0.03866  1.0000
  N   N66       1.0  0.04702  0.58161  0.03955  1.0000
  Fe  Fe136     1.0  0.39405  0.91345  0.16083  1.0000
  C   C1188     1.0  0.16102  0.82992  0.00034  1.0000
  H   H2075     1.0  0.37623  0.95890  0.09657  1.0000
  C   C1189     1.0  0.10421  0.48781  0.17107  1.0000
  H   H2076     1.0  0.36321  0.90006  0.05658  1.0000
  H   H2077     1.0  0.06213  0.74422  0.09173  1.0000
  H   H2078     1.0  0.15776  0.74015  0.09975  1.0000
  C   C1190     1.0  0.15077  0.52003  0.99528  1.0000
  H   H2079     1.0  0.04566  0.63116  0.00230  1.0000
  H   H2080     1.0  0.27746  0.78424  0.99182  1.0000
  H   H2081     1.0  0.38001  0.84897  0.13329  1.0000
  H   H2082     1.0  0.22143  0.76476  0.98764  1.0000
  C   C1191     1.0  0.15411  0.52160  0.01292  1.0000
  S   S278      1.0  0.39443  0.93260  0.00845  1.0000
  C   C1192     1.0  0.06248  0.53428  0.14370  1.0000
  H   H2083     1.0  0.39439  0.82186  0.99770  1.0000
  H   H2084     1.0  0.03141  0.58359  0.06628  1.0000
  C   C1193     1.0  0.16299  0.72399  0.12458  1.0000
  H   H2085     1.0  0.38641  0.82231  0.15763  1.0000
  H   H2086     1.0  0.06022  0.55340  0.99806  1.0000
  H   H2087     1.0  0.12344  0.70640  0.09621  1.0000
  H   H2088     1.0  0.27135  0.71029  0.15852  1.0000
  C   C1194     1.0  0.00208  0.75143  0.09859  1.0000
  H   H2089     1.0  0.03773  0.57933  0.00751  1.0000
  H   H2090     1.0  0.12820  0.50785  0.00806  1.0000
  Fe  Fe137     1.0  0.07881  0.50853  0.06378  1.0000
  H   H2091     1.0  0.41868  0.86823  0.11749  1.0000
  C   C1195     1.0  0.04712  0.55175  0.00698  1.0000
  H   H2092     1.0  0.16804  0.70989  0.13070  1.0000
  H   H2093     1.0  0.06881  0.60952  0.01874  1.0000
  H   H2094     1.0  0.45671  0.91656  0.01609  1.0000
  H   H2095     1.0  0.38510  0.90543  0.07417  1.0000
  C   C1196     1.0  0.32897  0.86788  0.17557  1.0000
  Fe  Fe138     1.0  0.11444  0.48914  0.04490  1.0000
  N   N67       1.0  0.10051  0.67337  0.03564  1.0000
  C   C1197     1.0  0.08467  0.67657  0.05072  1.0000
  C   C1198     1.0  0.09479  0.66865  0.02090  1.0000
  C   C1199     1.0  0.11385  0.65745  0.04292  1.0000
  C   C1200     1.0  0.10974  0.68902  0.02860  1.0000
  C   C1201     1.0  0.09790  0.70752  0.02290  1.0000
  C   C1202     1.0  0.08884  0.68003  0.06749  1.0000
  C   C1203     1.0  0.13001  0.64996  0.02901  1.0000
  C   C1204     1.0  0.07599  0.67814  0.01701  1.0000
  C   C1205     1.0  0.07362  0.67439  0.99987  1.0000
  C   C1206     1.0  0.10824  0.72242  0.01906  1.0000
  C   C1207     1.0  0.07170  0.68571  0.08072  1.0000
  C   C1208     1.0  0.14254  0.63413  0.03812  1.0000
  H   H2096     1.0  0.07814  0.66483  0.05515  1.0000
  H   H2097     1.0  0.07406  0.68788  0.04628  1.0000
  H   H2098     1.0  0.10483  0.67077  0.00819  1.0000
  H   H2099     1.0  0.09441  0.65415  0.02412  1.0000
  H   H2100     1.0  0.10696  0.64628  0.05018  1.0000
  H   H2101     1.0  0.11961  0.66060  0.05289  1.0000
  H   H2102     1.0  0.11686  0.69016  0.03856  1.0000
  H   H2103     1.0  0.12043  0.68679  0.01668  1.0000
  H   H2104     1.0  0.08599  0.71060  0.03342  1.0000
  H   H2105     1.0  0.09368  0.70813  0.01044  1.0000
  H   H2106     1.0  0.09660  0.66767  0.07455  1.0000
  H   H2107     1.0  0.09656  0.69074  0.06392  1.0000
  H   H2108     1.0  0.13797  0.66023  0.02164  1.0000
  H   H2109     1.0  0.12552  0.64517  0.01925  1.0000
  H   H2110     1.0  0.06552  0.67302  0.02804  1.0000
  H   H2111     1.0  0.07342  0.69274  0.01571  1.0000
  C   C1209     1.0  0.17866  0.58514  0.17211  1.0000
  H   H2112     1.0  0.02422  0.89164  0.13728  1.0000
  H   H2113     1.0  0.05991  0.68086  0.99762  1.0000
  H   H2114     1.0  0.09960  0.73542  0.01441  1.0000
  H   H2115     1.0  0.05712  0.60747  0.16881  1.0000
  H   H2116     1.0  0.07728  0.87816  0.99984  1.0000
  H   H2117     1.0  0.06447  0.69910  0.07511  1.0000
  H   H2118     1.0  0.06273  0.67611  0.08390  1.0000
  H   H2119     1.0  0.07508  0.68631  0.09328  1.0000
  H   H2120     1.0  0.13519  0.62347  0.04604  1.0000
  H   H2121     1.0  0.15353  0.62845  0.02793  1.0000
  H   H2122     1.0  0.14858  0.63851  0.04702  1.0000
  C   C1210     1.0  0.19343  0.71917  0.04974  1.0000
  H   H2123     1.0  0.17712  0.73396  0.06941  1.0000
  H   H2124     1.0  0.19215  0.71136  0.04050  1.0000
  H   H2125     1.0  0.19985  0.73047  0.04179  1.0000
  H   H2126     1.0  0.20225  0.71059  0.05884  1.0000
  C   C1211     1.0  0.41373  0.95347  0.01509  1.0000
  S   S279      1.0  0.39520  0.86500  0.98361  1.0000
  H   H2127     1.0  0.16832  0.52231  0.01131  1.0000
  Fe  Fe139     1.0  0.11197  0.52363  0.05666  1.0000
  C   C1212     1.0  0.02128  0.51099  0.02648  1.0000
  C   C1213     1.0  0.22405  0.64896  0.15345  1.0000
  H   H2128     1.0  0.45836  0.93455  0.09067  1.0000
  C   C1214     1.0  0.07701  0.56704  0.07465  1.0000
  S   S280      1.0  0.46362  0.94674  0.02425  1.0000
  H   H2129     1.0  0.37420  0.95784  0.06513  1.0000
  H   H2130     1.0  0.16560  0.81992  0.05406  1.0000
  H   H2131     1.0  0.26788  0.74325  0.15212  1.0000
  H   H2132     1.0  0.34627  0.74968  0.11700  1.0000
  C   C1215     1.0  0.01884  0.83296  0.99913  1.0000
  H   H2133     1.0  0.23998  0.67847  0.14027  1.0000
  H   H2134     1.0  0.23700  0.64253  0.14603  1.0000
  H   H2135     1.0  0.03755  0.83429  0.01412  1.0000
  C   C1216     1.0  0.99944  0.60517  0.99457  1.0000
  C   C1217     1.0  0.06216  0.58101  0.04818  1.0000
  S   S281      1.0  0.36017  0.77586  0.16878  1.0000
  H   H2136     1.0  0.46406  0.94552  0.97900  1.0000
  H   H2137     1.0  0.15538  0.82751  0.01491  1.0000
  C   C1218     1.0  0.30732  0.75755  0.14944  1.0000
  H   H2138     1.0  0.44741  0.82504  0.97861  1.0000
  C   C1219     1.0  0.02018  0.87853  0.14251  1.0000
  H   H2139     1.0  0.22102  0.79892  0.99895  1.0000
  C   C1220     1.0  0.20771  0.79814  0.99729  1.0000
  H   H2140     1.0  0.06784  0.86639  0.97850  1.0000
  C   C1221     1.0  0.36733  0.81716  0.00865  1.0000
  Fe  Fe140     1.0  0.31816  0.83446  0.15537  1.0000
  S   S282      1.0  0.44457  0.97969  0.06073  1.0000
  H   H2141     1.0  0.10246  0.49174  0.98970  1.0000
  H   H2142     1.0  0.29765  0.83216  0.02402  1.0000
  H   H2143     1.0  0.43720  0.85286  0.17033  1.0000
  H   H2144     1.0  0.42777  0.86899  0.14203  1.0000
  H   H2145     1.0  0.01025  0.58665  0.03772  1.0000
  H   H2146     1.0  0.01435  0.85904  0.02334  1.0000
  H   H2147     1.0  0.36249  0.88616  0.14782  1.0000
  Fe  Fe141     1.0  0.37266  0.88825  0.98803  1.0000
  H   H2148     1.0  0.38615  0.81159  0.98443  1.0000
  H   H2149     1.0  0.47861  0.89687  0.15351  1.0000
  S   S283      1.0  0.37039  0.93503  0.16780  1.0000
  H   H2150     1.0  0.18961  0.65692  0.16615  1.0000
  H   H2151     1.0  0.07476  0.61935  0.16530  1.0000
  H   H2152     1.0  0.07466  0.58266  0.03808  1.0000
  H   H2153     1.0  0.30454  0.72142  0.15969  1.0000
  H   H2154     1.0  0.01180  0.89544  0.99682  1.0000
  H   H2155     1.0  0.18704  0.50840  0.08711  1.0000
  C   C1222     1.0  0.45821  0.92069  0.16033  1.0000
  H   H2156     1.0  0.01281  0.75387  0.03198  1.0000
  H   H2157     1.0  0.03918  0.61037  0.03539  1.0000
  H   H2158     1.0  0.36939  0.95213  0.12920  1.0000
  C   C1223     1.0  0.43606  0.92440  0.10899  1.0000
  H   H2159     1.0  0.42367  0.87463  0.17263  1.0000
  H   H2160     1.0  0.01329  0.84055  0.98722  1.0000
  H   H2161     1.0  0.03561  0.77124  0.06877  1.0000
  C   C1224     1.0  0.06751  0.56357  0.06174  1.0000
  H   H2162     1.0  0.11204  0.72318  0.03135  1.0000
  H   H2163     1.0  0.03759  0.55205  0.99870  1.0000
  H   H2164     1.0  0.01161  0.77668  0.02019  1.0000
  H   H2165     1.0  0.39332  0.94134  0.10542  1.0000
  C   C1225     1.0  0.38833  0.85576  0.13763  1.0000
  H   H2166     1.0  0.29883  0.76324  0.13934  1.0000
  C   C1226     1.0  0.10561  0.51960  0.98455  1.0000
  C   C1227     1.0  0.22788  0.50121  0.16737  1.0000
  N   N68       1.0  0.08212  0.57796  0.12849  1.0000
  C   C1228     1.0  0.07603  0.58361  0.14628  1.0000
  C   C1229     1.0  0.08003  0.55899  0.13058  1.0000
  C   C1230     1.0  0.10178  0.57845  0.12200  1.0000
  C   C1231     1.0  0.07225  0.59068  0.11474  1.0000
  H   H2167     1.0  0.03156  0.75489  0.10893  1.0000
  H   H2168     1.0  0.40474  0.87302  0.15360  1.0000
  C   C1232     1.0  0.11164  0.56984  0.10552  1.0000
  H   H2169     1.0  0.13310  0.48903  0.98763  1.0000
  H   H2170     1.0  0.31075  0.76930  0.15200  1.0000
  H   H2171     1.0  0.35549  0.87653  0.13300  1.0000
  C   C1233     1.0  0.30785  0.83735  0.01275  1.0000
  C   C1234     1.0  0.12657  0.55373  0.10983  1.0000
  H   H2172     1.0  0.08288  0.57341  0.15631  1.0000
  C   C1235     1.0  0.07096  0.48762  0.13778  1.0000
  H   H2173     1.0  0.07890  0.55669  0.11766  1.0000
  H   H2174     1.0  0.09217  0.54929  0.13417  1.0000
  H   H2175     1.0  0.10912  0.57226  0.13308  1.0000
  H   H2176     1.0  0.10366  0.59249  0.11812  1.0000
  H   H2177     1.0  0.07386  0.60447  0.11331  1.0000
  H   H2178     1.0  0.07839  0.58779  0.10125  1.0000
  Fe  Fe142     1.0  0.39591  0.90738  0.99917  1.0000
  H   H2179     1.0  0.41508  0.95533  0.05673  1.0000
  H   H2180     1.0  0.24920  0.79262  0.14510  1.0000
  H   H2181     1.0  0.11782  0.57993  0.09488  1.0000
  H   H2182     1.0  0.10263  0.56577  0.09940  1.0000
  H   H2183     1.0  0.99724  0.56877  0.06661  1.0000
  H   H2184     1.0  0.07313  0.61294  0.13718  1.0000
  S   S284      1.0  0.01050  0.50718  0.01132  1.0000
  H   H2185     1.0  0.34348  0.78464  0.09184  1.0000
  N   N69       1.0  0.38885  0.93144  0.07481  1.0000
  C   C1236     1.0  0.20707  0.62755  0.15196  1.0000
  H   H2186     1.0  0.02735  0.77085  0.04459  1.0000
  C   C1237     1.0  0.07949  0.60189  0.14680  1.0000
  H   H2187     1.0  0.12204  0.54434  0.12222  1.0000
  H   H2188     1.0  0.13097  0.54634  0.09882  1.0000
  H   H2189     1.0  0.13825  0.55822  0.11123  1.0000
  H   H2190     1.0  0.33564  0.77009  0.12478  1.0000
  H   H2191     1.0  0.35947  0.93925  0.05849  1.0000
  H   H2192     1.0  0.00404  0.90013  0.16448  1.0000
  C   C1238     1.0  0.03015  0.76147  0.08042  1.0000
  H   H2193     1.0  0.36220  0.93791  0.09086  1.0000
  C   C1239     1.0  0.09855  0.50306  0.99667  1.0000
  H   H2194     1.0  0.02295  0.87168  0.13119  1.0000
  H   H2195     1.0  0.46690  0.87935  0.99192  1.0000
  H   H2196     1.0  0.06833  0.59311  0.00698  1.0000
  H   H2197     1.0  0.45790  0.88183  0.14703  1.0000
  C   C1240     1.0  0.03070  0.57906  0.05431  1.0000
  H   H2198     1.0  0.40681  0.83987  0.16357  1.0000
  H   H2199     1.0  0.04310  0.61913  0.10680  1.0000
  C   C1241     1.0  0.12994  0.67294  0.08986  1.0000
  C   C1242     1.0  0.00555  0.62866  0.00552  1.0000
  C   C1243     1.0  0.33326  0.75754  0.12288  1.0000
  H   H2200     1.0  0.41288  0.93119  0.08351  1.0000
  C   C1244     1.0  0.46032  0.95121  0.15984  1.0000
  C   C1245     1.0  0.38299  0.91940  0.06633  1.0000
  H   H2201     1.0  0.40176  0.96383  0.01468  1.0000
  C   C1246     1.0  0.32524  0.74672  0.14072  1.0000
  H   H2202     1.0  0.21716  0.65809  0.14286  1.0000
  C   C1247     1.0  0.05203  0.59094  0.11782  1.0000
  C   C1248     1.0  0.41764  0.86339  0.15314  1.0000
  H   H2203     1.0  0.24991  0.62620  0.17134  1.0000
  H   H2204     1.0  0.29171  0.70881  0.14145  1.0000
  C   C1249     1.0  0.46568  0.90490  0.15039  1.0000
  H   H2205     1.0  0.03695  0.74824  0.07722  1.0000
  H   H2206     1.0  0.17726  0.72225  0.09797  1.0000
  H   H2207     1.0  0.45231  0.91536  0.17449  1.0000
  H   H2208     1.0  0.03028  0.56461  0.05905  1.0000
  C   C1250     1.0  0.02424  0.81322  0.99816  1.0000
  C   C1251     1.0  0.45267  0.89234  0.15510  1.0000
  H   H2209     1.0  0.44659  0.92865  0.15434  1.0000
  H   H2210     1.0  0.00334  0.75410  0.11121  1.0000
  H   H2211     1.0  0.05590  0.55776  0.06982  1.0000
  H   H2212     1.0  0.07812  0.59595  0.17553  1.0000
  H   H2213     1.0  0.00478  0.78201  0.11079  1.0000
  H   H2214     1.0  0.38796  0.80016  0.14017  1.0000
  H   H2215     1.0  0.45105  0.88580  0.16942  1.0000
  C   C1252     1.0  0.17509  0.72641  0.06041  1.0000
  C   C1253     1.0  0.41396  0.93674  0.01201  1.0000
  C   C1254     1.0  0.15221  0.71330  0.10249  1.0000
  S   S285      1.0  0.00370  0.59301  0.97772  1.0000
  N   N70       1.0  0.47098  0.93245  0.15937  1.0000
  H   H2216     1.0  0.16729  0.73581  0.05077  1.0000
  H   H2217     1.0  0.14924  0.72864  0.13195  1.0000
  C   C1255     1.0  0.44781  0.93630  0.10229  1.0000
  C   C1256     1.0  0.17718  0.81469  0.99604  1.0000
  H   H2218     1.0  0.16018  0.69960  0.10612  1.0000
  H   H2219     1.0  0.04484  0.87990  0.00079  1.0000
  H   H2220     1.0  0.00737  0.72675  0.08827  1.0000
  C   C1257     1.0  0.43404  0.97287  0.17383  1.0000
  C   C1258     1.0  0.01011  0.88685  0.01037  1.0000
  S   S286      1.0  0.11835  0.55104  0.04736  1.0000
  S   S287      1.0  0.04936  0.52036  0.06605  1.0000
  H   H2221     1.0  0.04871  0.53860  0.01624  1.0000
  H   H2222     1.0  0.14857  0.52896  0.06247  1.0000
  H   H2223     1.0  0.06793  0.49383  0.16346  1.0000
  H   H2224     1.0  0.12664  0.67579  0.07649  1.0000
  H   H2225     1.0  0.43112  0.96310  0.13259  1.0000
  C   C1259     1.0  0.44437  0.94348  0.01932  1.0000
  H   H2226     1.0  0.08335  0.67987  0.98821  1.0000
  H   H2227     1.0  0.03309  0.77766  0.09765  1.0000
  C   C1260     1.0  0.16311  0.72589  0.10487  1.0000
  C   C1261     1.0  0.03691  0.76351  0.09628  1.0000
  H   H2228     1.0  0.08833  0.57371  0.06728  1.0000
  C   C1262     1.0  0.05451  0.61935  0.99736  1.0000
  H   H2229     1.0  0.39362  0.78891  0.16144  1.0000
  C   C1263     1.0  0.03873  0.51642  0.05090  1.0000
  C   C1264     1.0  0.04619  0.50229  0.04194  1.0000
  C   C1265     1.0  0.03734  0.49946  0.02993  1.0000
  Fe  Fe143     1.0  0.46791  0.97261  0.07414  1.0000
  H   H2230     1.0  0.13573  0.65848  0.09341  1.0000
  C   C1266     1.0  0.16486  0.71133  0.07071  1.0000
  H   H2231     1.0  0.20393  0.56731  0.17494  1.0000
  H   H2232     1.0  0.18852  0.81469  0.05686  1.0000
  H   H2233     1.0  0.11749  0.67602  0.09993  1.0000
  H   H2234     1.0  0.12214  0.76888  0.08820  1.0000
  H   H2235     1.0  0.17438  0.70005  0.07708  1.0000
  H   H2236     1.0  0.00650  0.70557  0.11642  1.0000
  H   H2237     1.0  0.17213  0.80217  0.00226  1.0000
  C   C1267     1.0  0.35993  0.91469  0.05153  1.0000
  H   H2238     1.0  0.06655  0.62351  0.98804  1.0000
  H   H2239     1.0  0.02463  0.72806  0.09866  1.0000
  H   H2240     1.0  0.14680  0.74494  0.07657  1.0000
  H   H2241     1.0  0.06343  0.76703  0.08083  1.0000
  H   H2242     1.0  0.23202  0.62582  0.13111  1.0000
  S   S288      1.0  0.34443  0.88841  0.98653  1.0000
  C   C1268     1.0  0.37938  0.94472  0.10344  1.0000
  C   C1269     1.0  0.00147  0.71998  0.11669  1.0000
  H   H2243     1.0  0.11862  0.50917  0.16557  1.0000
  H   H2244     1.0  0.33511  0.74356  0.14939  1.0000
  C   C1270     1.0  0.05244  0.56664  0.02944  1.0000
  C   C1271     1.0  0.44631  0.95003  0.11103  1.0000
  H   H2245     1.0  0.06956  0.84456  0.99314  1.0000
  C   C1272     1.0  0.37623  0.93255  0.09258  1.0000
  N   N71       1.0  0.14798  0.71623  0.08430  1.0000
  C   C1273     1.0  0.13838  0.73516  0.07820  1.0000
  H   H2246     1.0  0.13974  0.71378  0.11297  1.0000
  C   C1274     1.0  0.00686  0.76798  0.03308  1.0000
  H   H2247     1.0  0.15560  0.67995  0.07954  1.0000
  H   H2248     1.0  0.01073  0.60357  0.04889  1.0000
  H   H2249     1.0  0.27054  0.72043  0.13555  1.0000
  S   S289      1.0  0.31544  0.80619  0.15781  1.0000
  C   C1275     1.0  0.36478  0.88453  0.13391  1.0000
  H   H2250     1.0  0.13587  0.73683  0.06458  1.0000
  H   H2251     1.0  0.09959  0.76564  0.09216  1.0000
  H   H2252     1.0  0.09344  0.85919  0.99305  1.0000
  H   H2253     1.0  0.06197  0.76006  0.10458  1.0000
  C   C1276     1.0  0.03479  0.84025  0.00055  1.0000
  H   H2254     1.0  0.32353  0.73424  0.13812  1.0000
  C   C1277     1.0  0.07820  0.50709  0.00227  1.0000
  H   H2255     1.0  0.04996  0.60498  0.09054  1.0000
  H   H2256     1.0  0.05016  0.57816  0.11599  1.0000
  C   C1278     1.0  0.05735  0.75836  0.09313  1.0000
  H   H2257     1.0  0.02889  0.60497  0.10618  1.0000
  H   H2258     1.0  0.19984  0.51222  0.17030  1.0000
  C   C1279     1.0  0.00891  0.61863  0.99228  1.0000
  C   C1280     1.0  0.13558  0.70407  0.08555  1.0000
  C   C1281     1.0  0.14352  0.68370  0.08971  1.0000
  H   H2259     1.0  0.12104  0.73859  0.10447  1.0000
  H   H2260     1.0  0.14720  0.67948  0.10298  1.0000
  H   H2261     1.0  0.43418  0.94532  0.17591  1.0000
  C   C1282     1.0  0.48447  0.93320  0.14190  1.0000
  C   C1283     1.0  0.47988  0.92612  0.17523  1.0000
  H   H2262     1.0  0.47729  0.93716  0.13065  1.0000
  H   H2263     1.0  0.19880  0.61754  0.15961  1.0000
  H   H2264     1.0  0.39586  0.98079  0.03938  1.0000
  H   H2265     1.0  0.07394  0.51612  0.01187  1.0000
  H   H2266     1.0  0.04300  0.48840  0.02319  1.0000
  H   H2267     1.0  0.15295  0.60311  0.17345  1.0000
  H   H2268     1.0  0.42399  0.83059  0.98836  1.0000
  C   C1284     1.0  0.44393  0.95337  0.17552  1.0000
  H   H2269     1.0  0.15455  0.53166  0.98505  1.0000
  H   H2270     1.0  0.20414  0.60474  0.13211  1.0000
  N   N72       1.0  0.12568  0.51787  0.98060  1.0000
  H   H2271     1.0  0.06673  0.55132  0.15860  1.0000
  N   N73       1.0  0.21302  0.63538  0.16440  1.0000
  H   H2272     1.0  0.28671  0.78657  0.16477  1.0000
  H   H2273     1.0  0.07178  0.51330  0.99060  1.0000
  H   H2274     1.0  0.21599  0.67153  0.16701  1.0000
  H   H2275     1.0  0.09878  0.53111  0.99114  1.0000
  H   H2276     1.0  0.19828  0.63824  0.14402  1.0000
  C   C1285     1.0  0.22806  0.66099  0.16399  1.0000
  C   C1286     1.0  0.99252  0.62536  0.02097  1.0000
  H   H2277     1.0  0.03587  0.81084  0.98704  1.0000
  H   H2278     1.0  0.24755  0.61238  0.15783  1.0000
  C   C1287     1.0  0.14805  0.48897  0.13778  1.0000
  H   H2279     1.0  0.00726  0.48564  0.98347  1.0000
  H   H2280     1.0  0.14217  0.81752  0.99426  1.0000
  C   C1288     1.0  0.39624  0.98024  0.05342  1.0000
  C   C1289     1.0  0.00025  0.88108  0.15105  1.0000
  C   C1290     1.0  0.99084  0.89241  0.02028  1.0000
  H   H2281     1.0  0.12851  0.55387  0.97922  1.0000
  C   C1291     1.0  0.19635  0.64520  0.17505  1.0000
  H   H2282     1.0  0.37801  0.83495  0.98457  1.0000
  C   C1292     1.0  0.99087  0.80823  0.10098  1.0000
  H   H2283     1.0  0.48997  0.96022  0.13652  1.0000
  H   H2284     1.0  0.25375  0.79124  0.17581  1.0000
  H   H2285     1.0  0.28459  0.72485  0.17591  1.0000
  H   H2286     1.0  0.42783  0.97716  0.16191  1.0000
  H   H2287     1.0  0.48773  0.93581  0.17554  1.0000
  H   H2288     1.0  0.44327  0.98171  0.17281  1.0000
  H   H2289     1.0  0.23170  0.65318  0.17679  1.0000
  H   H2290     1.0  0.17509  0.63124  0.17663  1.0000
  C   C1293     1.0  0.10924  0.50258  0.17679  1.0000
  C   C1294     1.0  0.46183  0.82480  0.25007  1.0000
  Fe  Fe144     1.0  0.30157  0.62705  0.32669  1.0000
  S   S290      1.0  0.31673  0.59893  0.32706  1.0000
  S   S291      1.0  0.27722  0.63237  0.34850  1.0000
  Fe  Fe145     1.0  0.32915  0.64203  0.29529  1.0000
  S   S292      1.0  0.34590  0.61466  0.29342  1.0000
  S   S293      1.0  0.34024  0.66515  0.27604  1.0000
  Fe  Fe146     1.0  0.31947  0.60663  0.29728  1.0000
  S   S294      1.0  0.31509  0.58693  0.28317  1.0000
  Fe  Fe147     1.0  0.34105  0.60996  0.32325  1.0000
  S   S295      1.0  0.35970  0.59994  0.34255  1.0000
  S   S296      1.0  0.30298  0.63440  0.29704  1.0000
  S   S297      1.0  0.32581  0.63767  0.32486  1.0000
  Fe  Fe148     1.0  0.45992  0.58082  0.32814  1.0000
  C   C1295     1.0  0.40868  0.82229  0.24302  1.0000
  S   S298      1.0  0.44232  0.57860  0.31081  1.0000
  Fe  Fe149     1.0  0.21116  0.55100  0.27471  1.0000
  S   S299      1.0  0.23991  0.54799  0.26066  1.0000
  S   S300      1.0  0.20760  0.53775  0.30385  1.0000
  Fe  Fe150     1.0  0.19807  0.57415  0.24136  1.0000
  S   S301      1.0  0.22598  0.57314  0.22513  1.0000
  Fe  Fe151     1.0  0.22983  0.54398  0.23814  1.0000
  S   S302      1.0  0.24452  0.52183  0.22345  1.0000
  Fe  Fe152     1.0  0.23292  0.57730  0.24942  1.0000
  S   S303      1.0  0.24640  0.59923  0.24991  1.0000
  S   S304      1.0  0.20154  0.54471  0.25311  1.0000
  S   S305      1.0  0.20445  0.58056  0.26471  1.0000
  H   H2291     1.0  0.48716  0.83079  0.29591  1.0000
  S   S306      1.0  0.12758  0.53893  0.34437  1.0000
  Fe  Fe153     1.0  0.35949  0.91295  0.18851  1.0000
  Fe  Fe154     1.0  0.45563  0.88703  0.27698  1.0000
  S   S307      1.0  0.42653  0.89915  0.28309  1.0000
  S   S308      1.0  0.46693  0.89029  0.24737  1.0000
  Fe  Fe155     1.0  0.45611  0.87259  0.31615  1.0000
  S   S309      1.0  0.42658  0.88302  0.32505  1.0000
  H   H2292     1.0  0.01557  0.93021  0.27776  1.0000
  Fe  Fe156     1.0  0.42371  0.87318  0.30193  1.0000
  S   S310      1.0  0.40108  0.86173  0.29973  1.0000
  Fe  Fe157     1.0  0.43219  0.90789  0.30534  1.0000
  C   C1296     1.0  0.43739  0.52422  0.36795  1.0000
  S   S311      1.0  0.45271  0.86043  0.29483  1.0000
  S   S312      1.0  0.46188  0.89811  0.29762  1.0000
  Fe  Fe158     1.0  0.40542  0.76531  0.28812  1.0000
  S   S313      1.0  0.41388  0.77117  0.25836  1.0000
  S   S314      1.0  0.41574  0.77819  0.30476  1.0000
  Fe  Fe159     1.0  0.38641  0.73606  0.28782  1.0000
  S   S315      1.0  0.39385  0.73953  0.25802  1.0000
  S   S316      1.0  0.36916  0.71696  0.30587  1.0000
  Fe  Fe160     1.0  0.42076  0.74151  0.26126  1.0000
  S   S317      1.0  0.44699  0.72936  0.24539  1.0000
  Fe  Fe161     1.0  0.38629  0.76881  0.25808  1.0000
  S   S318      1.0  0.36829  0.78936  0.24137  1.0000
  S   S319      1.0  0.41403  0.73550  0.29104  1.0000
  S   S320      1.0  0.37713  0.76541  0.28782  1.0000
  N   N74       1.0  0.48718  0.67044  0.26124  1.0000
  C   C1297     1.0  0.48342  0.72882  0.27392  1.0000
  H   H2293     1.0  0.41556  0.97987  0.34402  1.0000
  C   C1298     1.0  0.41491  0.67746  0.27915  1.0000
  H   H2294     1.0  0.40077  0.82420  0.25642  1.0000
  H   H2295     1.0  0.45189  0.61215  0.30311  1.0000
  H   H2296     1.0  0.16269  0.55410  0.24294  1.0000
  Fe  Fe162     1.0  0.39508  0.89617  0.19935  1.0000
  S   S321      1.0  0.37165  0.91632  0.20993  1.0000
  S   S322      1.0  0.40844  0.87246  0.21719  1.0000
  H   H2297     1.0  0.35890  0.65806  0.33272  1.0000
  C   C1299     1.0  0.47718  0.92342  0.35415  1.0000
  C   C1300     1.0  0.42094  0.84079  0.36092  1.0000
  H   H2298     1.0  0.13897  0.55101  0.21827  1.0000
  C   C1301     1.0  0.00202  0.92995  0.27619  1.0000
  C   C1302     1.0  0.21604  0.50897  0.22003  1.0000
  C   C1303     1.0  0.20700  0.52333  0.37650  1.0000
  H   H2299     1.0  0.42490  0.55169  0.36746  1.0000
  Fe  Fe163     1.0  0.38458  0.93645  0.18839  1.0000
  C   C1304     1.0  0.31980  0.72380  0.18362  1.0000
  H   H2300     1.0  0.37210  0.85316  0.18552  1.0000
  C   C1305     1.0  0.36707  0.78572  0.22077  1.0000
  C   C1306     1.0  0.37738  0.77065  0.21423  1.0000
  C   C1307     1.0  0.37535  0.76774  0.19814  1.0000
  H   H2301     1.0  0.46437  0.69493  0.23730  1.0000
  C   C1308     1.0  0.35326  0.79526  0.19481  1.0000
  C   C1309     1.0  0.35508  0.79803  0.21097  1.0000
  H   H2302     1.0  0.38681  0.76120  0.22160  1.0000
  H   H2303     1.0  0.47889  0.65869  0.36670  1.0000
  H   H2304     1.0  0.34688  0.80959  0.21601  1.0000
  C   C1310     1.0  0.46641  0.73073  0.25158  1.0000
  C   C1311     1.0  0.16748  0.53992  0.21354  1.0000
  H   H2305     1.0  0.36314  0.55819  0.33983  1.0000
  H   H2306     1.0  0.46876  0.77668  0.32597  1.0000
  C   C1312     1.0  0.46714  0.72921  0.26942  1.0000
  S   S323      1.0  0.39006  0.96224  0.19065  1.0000
  C   C1313     1.0  0.37187  0.97743  0.32761  1.0000
  H   H2307     1.0  0.45532  0.72794  0.27979  1.0000
  C   C1314     1.0  0.40566  0.83864  0.30010  1.0000
  C   C1315     1.0  0.39394  0.83134  0.29478  1.0000
  C   C1316     1.0  0.39711  0.81283  0.29564  1.0000
  C   C1317     1.0  0.41174  0.80153  0.30233  1.0000
  C   C1318     1.0  0.42343  0.80886  0.30761  1.0000
  C   C1319     1.0  0.42060  0.82736  0.30618  1.0000
  H   H2308     1.0  0.38227  0.83996  0.29019  1.0000
  H   H2309     1.0  0.38798  0.80725  0.29164  1.0000
  H   H2310     1.0  0.43472  0.80018  0.31281  1.0000
  H   H2311     1.0  0.42968  0.83290  0.31022  1.0000
  C   C1320     1.0  0.45183  0.88429  0.23824  1.0000
  C   C1321     1.0  0.43918  0.87479  0.24954  1.0000
  C   C1322     1.0  0.42614  0.87106  0.24289  1.0000
  C   C1323     1.0  0.42555  0.87679  0.22483  1.0000
  C   C1324     1.0  0.43855  0.88581  0.21323  1.0000
  C   C1325     1.0  0.45180  0.88945  0.21993  1.0000
  H   H2312     1.0  0.43924  0.87037  0.26355  1.0000
  H   H2313     1.0  0.41632  0.86397  0.25196  1.0000
  H   H2314     1.0  0.43817  0.89020  0.19925  1.0000
  H   H2315     1.0  0.46155  0.89680  0.21113  1.0000
  H   H2316     1.0  0.15104  0.54447  0.27566  1.0000
  H   H2317     1.0  0.45663  0.63410  0.29823  1.0000
  C   C1326     1.0  0.47924  0.79781  0.35484  1.0000
  H   H2318     1.0  0.18839  0.62113  0.19345  1.0000
  H   H2319     1.0  0.45640  0.80193  0.28104  1.0000
  C   C1327     1.0  0.18530  0.53904  0.31520  1.0000
  C   C1328     1.0  0.17132  0.54683  0.30610  1.0000
  C   C1329     1.0  0.15355  0.54709  0.31530  1.0000
  C   C1330     1.0  0.14978  0.53955  0.33352  1.0000
  C   C1331     1.0  0.16377  0.53204  0.34268  1.0000
  C   C1332     1.0  0.18154  0.53176  0.33349  1.0000
  H   H2320     1.0  0.17423  0.55249  0.29199  1.0000
  H   H2321     1.0  0.14266  0.55280  0.30834  1.0000
  H   H2322     1.0  0.16090  0.52630  0.35680  1.0000
  H   H2323     1.0  0.19239  0.52570  0.34051  1.0000
  C   C1333     1.0  0.23414  0.50554  0.22110  1.0000
  S   S324      1.0  0.48894  0.69309  0.35046  1.0000
  C   C1334     1.0  0.19242  0.57602  0.18124  1.0000
  H   H2324     1.0  0.19203  0.54564  0.36115  1.0000
  C   C1335     1.0  0.15764  0.52095  0.25228  1.0000
  C   C1336     1.0  0.29613  0.59078  0.27356  1.0000
  C   C1337     1.0  0.29350  0.57722  0.26665  1.0000
  C   C1338     1.0  0.27815  0.57946  0.25971  1.0000
  C   C1339     1.0  0.26558  0.59555  0.25906  1.0000
  C   C1340     1.0  0.26851  0.60935  0.26540  1.0000
  C   C1341     1.0  0.28359  0.60691  0.27282  1.0000
  H   H2325     1.0  0.30329  0.56481  0.26687  1.0000
  H   H2326     1.0  0.27627  0.56893  0.25442  1.0000
  H   H2327     1.0  0.25899  0.62194  0.26471  1.0000
  H   H2328     1.0  0.28557  0.61758  0.27780  1.0000
  C   C1342     1.0  0.34822  0.67935  0.28462  1.0000
  C   C1343     1.0  0.36066  0.68923  0.27328  1.0000
  C   C1344     1.0  0.36732  0.70066  0.27971  1.0000
  C   C1345     1.0  0.36120  0.70268  0.29739  1.0000
  C   C1346     1.0  0.34858  0.69297  0.30869  1.0000
  C   C1347     1.0  0.34216  0.68129  0.30236  1.0000
  H   H2329     1.0  0.36545  0.68769  0.25959  1.0000
  H   H2330     1.0  0.37729  0.70781  0.27107  1.0000
  H   H2331     1.0  0.34379  0.69445  0.32242  1.0000
  H   H2332     1.0  0.33234  0.67399  0.31115  1.0000
  C   C1348     1.0  0.38254  0.59517  0.33287  1.0000
  C   C1349     1.0  0.39504  0.59607  0.34215  1.0000
  C   C1350     1.0  0.41341  0.59089  0.33549  1.0000
  C   C1351     1.0  0.41937  0.58506  0.31935  1.0000
  C   C1352     1.0  0.40687  0.58448  0.30988  1.0000
  C   C1353     1.0  0.38844  0.58959  0.31661  1.0000
  H   H2333     1.0  0.39054  0.60069  0.35456  1.0000
  H   H2334     1.0  0.42294  0.59125  0.34295  1.0000
  H   H2335     1.0  0.41146  0.57987  0.29744  1.0000
  H   H2336     1.0  0.37883  0.58876  0.30944  1.0000
  H   H2337     1.0  0.42325  0.97436  0.18583  1.0000
  H   H2338     1.0  0.17441  0.49568  0.34328  1.0000
  H   H2339     1.0  0.32767  0.97244  0.30637  1.0000
  H   H2340     1.0  0.46927  0.67841  0.21316  1.0000
  H   H2341     1.0  0.12869  0.55556  0.27292  1.0000
  H   H2342     1.0  0.01592  0.96003  0.25931  1.0000
  C   C1354     1.0  0.22278  0.62082  0.17720  1.0000
  C   C1355     1.0  0.48949  0.67471  0.34165  1.0000
  C   C1356     1.0  0.16793  0.64390  0.19899  1.0000
  H   H2343     1.0  0.14179  0.50339  0.29892  1.0000
  H   H2344     1.0  0.14757  0.50107  0.33640  1.0000
  H   H2345     1.0  0.46177  0.75321  0.29694  1.0000
  H   H2346     1.0  0.47813  0.76666  0.29360  1.0000
  H   H2347     1.0  0.29558  0.90508  0.19786  1.0000
  H   H2348     1.0  0.08943  0.53414  0.25908  1.0000
  C   C1357     1.0  0.48805  0.81633  0.29702  1.0000
  H   H2349     1.0  0.16071  0.50318  0.23380  1.0000
  H   H2350     1.0  0.46583  0.61974  0.28219  1.0000
  C   C1358     1.0  0.14829  0.55340  0.24748  1.0000
  H   H2351     1.0  0.16921  0.48500  0.27054  1.0000
  H   H2352     1.0  0.44647  0.77505  0.27496  1.0000
  H   H2353     1.0  0.25888  0.48611  0.21989  1.0000
  C   C1359     1.0  0.47371  0.88053  0.37408  1.0000
  H   H2354     1.0  0.00305  0.92221  0.31106  1.0000
  C   C1360     1.0  0.19359  0.48438  0.36843  1.0000
  H   H2355     1.0  0.46555  0.69339  0.26490  1.0000
  H   H2356     1.0  0.46984  0.76797  0.26531  1.0000
  S   S325      1.0  0.45445  0.60434  0.34096  1.0000
  H   H2357     1.0  0.41563  0.83307  0.37422  1.0000
  C   C1361     1.0  0.24489  0.48881  0.21925  1.0000
  C   C1362     1.0  0.47888  0.91437  0.33850  1.0000
  C   C1363     1.0  0.46027  0.77591  0.27475  1.0000
  H   H2358     1.0  0.43234  0.79733  0.25844  1.0000
  H   H2359     1.0  0.44111  0.67732  0.30367  1.0000
  H   H2360     1.0  0.24779  0.60137  0.19797  1.0000
  H   H2361     1.0  0.11701  0.54915  0.25196  1.0000
  H   H2362     1.0  0.41618  0.97027  0.31628  1.0000
  H   H2363     1.0  0.00720  0.95381  0.29258  1.0000
  C   C1364     1.0  0.16369  0.59617  0.18040  1.0000
  H   H2364     1.0  0.17155  0.52339  0.24831  1.0000
  N   N75       1.0  0.48161  0.91137  0.37128  1.0000
  H   H2365     1.0  0.34589  0.93935  0.28225  1.0000
  H   H2366     1.0  0.09715  0.51282  0.18048  1.0000
  C   C1365     1.0  0.32443  0.65027  0.36539  1.0000
  C   C1366     1.0  0.48515  0.84385  0.24292  1.0000
  H   H2367     1.0  0.46962  0.92569  0.18784  1.0000
  C   C1367     1.0  0.36070  0.96289  0.33712  1.0000
  H   H2368     1.0  0.15063  0.60586  0.20462  1.0000
  H   H2369     1.0  0.48600  0.93697  0.31765  1.0000
  H   H2370     1.0  0.44224  0.76293  0.33879  1.0000
  C   C1368     1.0  0.32069  0.56492  0.37534  1.0000
  H   H2371     1.0  0.48235  0.76943  0.22062  1.0000
  C   C1369     1.0  0.38232  0.55488  0.36560  1.0000
  H   H2372     1.0  0.34371  0.80470  0.18758  1.0000
  C   C1370     1.0  0.41812  0.96044  0.32826  1.0000
  H   H2373     1.0  0.11596  0.49700  0.18833  1.0000
  H   H2374     1.0  0.36010  0.97443  0.29816  1.0000
  S   S326      1.0  0.38189  0.89127  0.17975  1.0000
  H   H2375     1.0  0.48932  0.78787  0.34798  1.0000
  C   C1371     1.0  0.15095  0.57609  0.35085  1.0000
  C   C1372     1.0  0.01576  0.91065  0.25293  1.0000
  H   H2376     1.0  0.39415  0.94041  0.22727  1.0000
  H   H2377     1.0  0.00439  0.97826  0.27011  1.0000
  H   H2378     1.0  0.09239  0.51505  0.24935  1.0000
  C   C1373     1.0  0.48209  0.82482  0.24692  1.0000
  C   C1374     1.0  0.42051  0.69055  0.26191  1.0000
  H   H2379     1.0  0.48027  0.79186  0.23786  1.0000
  C   C1375     1.0  0.20894  0.49566  0.21681  1.0000
  H   H2380     1.0  0.14006  0.58451  0.25974  1.0000
  C   C1376     1.0  0.99388  0.95005  0.29740  1.0000
  H   H2381     1.0  0.47797  0.88168  0.35952  1.0000
  H   H2382     1.0  0.46228  0.93681  0.32372  1.0000
  H   H2383     1.0  0.42638  0.92492  0.37069  1.0000
  C   C1377     1.0  0.43326  0.82828  0.34898  1.0000
  C   C1378     1.0  0.25278  0.52944  0.36277  1.0000
  H   H2384     1.0  0.47766  0.79387  0.26819  1.0000
  H   H2385     1.0  0.34326  0.81135  0.26940  1.0000
  H   H2386     1.0  0.40802  0.95263  0.23202  1.0000
  C   C1379     1.0  0.31407  0.87460  0.23725  1.0000
  H   H2387     1.0  0.99307  0.90824  0.36755  1.0000
  C   C1380     1.0  0.29865  0.88165  0.18749  1.0000
  H   H2388     1.0  0.41847  0.91411  0.22682  1.0000
  C   C1381     1.0  0.45449  0.75792  0.34452  1.0000
  H   H2389     1.0  0.47743  0.81460  0.29119  1.0000
  C   C1382     1.0  0.34503  0.84616  0.25205  1.0000
  C   C1383     1.0  0.17613  0.58834  0.20721  1.0000
  H   H2390     1.0  0.47463  0.66227  0.24436  1.0000
  H   H2391     1.0  0.48392  0.89705  0.17958  1.0000
  H   H2392     1.0  0.31489  0.65486  0.35621  1.0000
  C   C1384     1.0  0.43687  0.80997  0.25604  1.0000
  H   H2393     1.0  0.36793  0.94074  0.24381  1.0000
  H   H2394     1.0  0.18588  0.49246  0.25144  1.0000
  C   C1385     1.0  0.44991  0.68703  0.30057  1.0000
  C   C1386     1.0  0.26939  0.61280  0.36004  1.0000
  C   C1387     1.0  0.44965  0.81727  0.35719  1.0000
  H   H2395     1.0  0.14097  0.56558  0.23956  1.0000
  C   C1388     1.0  0.37243  0.94576  0.34541  1.0000
  C   C1389     1.0  0.15701  0.56872  0.36862  1.0000
  H   H2396     1.0  0.19516  0.49837  0.21553  1.0000
  H   H2397     1.0  0.42469  0.64565  0.30535  1.0000
  H   H2398     1.0  0.40143  0.57160  0.37635  1.0000
  H   H2399     1.0  0.46264  0.76699  0.21480  1.0000
  H   H2400     1.0  0.16193  0.57230  0.33967  1.0000
  H   H2401     1.0  0.33455  0.89030  0.23072  1.0000
  H   H2402     1.0  0.37208  0.53622  0.33492  1.0000
  H   H2403     1.0  0.33705  0.92005  0.26707  1.0000
  C   C1390     1.0  0.30500  0.89470  0.19172  1.0000
  N   N76       1.0  0.45701  0.80686  0.25283  1.0000
  H   H2404     1.0  0.43752  0.83681  0.33585  1.0000
  H   H2405     1.0  0.39213  0.56178  0.35526  1.0000
  H   H2406     1.0  0.38224  0.97172  0.31689  1.0000
  H   H2407     1.0  0.26459  0.79996  0.18810  1.0000
  H   H2408     1.0  0.32070  0.94052  0.26858  1.0000
  H   H2409     1.0  0.32288  0.72372  0.21022  1.0000
  H   H2410     1.0  0.27334  0.57015  0.35603  1.0000
  H   H2411     1.0  0.15432  0.51924  0.26704  1.0000
  H   H2412     1.0  0.45472  0.83128  0.26165  1.0000
  H   H2413     1.0  0.45725  0.83405  0.23820  1.0000
  H   H2414     1.0  0.42792  0.83717  0.24202  1.0000
  H   H2415     1.0  0.40793  0.80923  0.24089  1.0000
  H   H2416     1.0  0.18705  0.60605  0.36904  1.0000
  H   H2417     1.0  0.48588  0.80928  0.35258  1.0000
  H   H2418     1.0  0.42681  0.91545  0.34298  1.0000
  N   N77       1.0  0.24667  0.56494  0.31894  1.0000
  C   C1391     1.0  0.25226  0.55572  0.33643  1.0000
  C   C1392     1.0  0.25423  0.58165  0.31175  1.0000
  C   C1393     1.0  0.22649  0.56925  0.32222  1.0000
  C   C1394     1.0  0.25368  0.55314  0.30540  1.0000
  C   C1395     1.0  0.27415  0.54537  0.30216  1.0000
  C   C1396     1.0  0.24856  0.53660  0.34416  1.0000
  C   C1397     1.0  0.21818  0.58071  0.30615  1.0000
  C   C1398     1.0  0.24615  0.59673  0.32250  1.0000
  C   C1399     1.0  0.25482  0.61291  0.31402  1.0000
  C   C1400     1.0  0.27961  0.53327  0.28862  1.0000
  C   C1401     1.0  0.36004  0.87587  0.25860  1.0000
  C   C1402     1.0  0.19779  0.58568  0.31166  1.0000
  H   H2419     1.0  0.24536  0.56374  0.34683  1.0000
  H   H2420     1.0  0.26679  0.55492  0.33527  1.0000
  H   H2421     1.0  0.26893  0.57847  0.31117  1.0000
  H   H2422     1.0  0.25287  0.58732  0.29767  1.0000
  H   H2423     1.0  0.22075  0.57595  0.33378  1.0000
  H   H2424     1.0  0.22116  0.55680  0.32608  1.0000
  H   H2425     1.0  0.24655  0.54185  0.30906  1.0000
  H   H2426     1.0  0.25073  0.56069  0.29218  1.0000
  H   H2427     1.0  0.27858  0.53737  0.31450  1.0000
  H   H2428     1.0  0.28173  0.55619  0.29701  1.0000
  C   C1403     1.0  0.41782  0.96584  0.34392  1.0000
  H   H2429     1.0  0.28163  0.59853  0.33884  1.0000
  H   H2430     1.0  0.22149  0.57309  0.29539  1.0000
  H   H2431     1.0  0.22310  0.59330  0.30054  1.0000
  H   H2432     1.0  0.23157  0.60144  0.32307  1.0000
  H   H2433     1.0  0.24825  0.59202  0.33635  1.0000
  H   H2434     1.0  0.24999  0.62285  0.32275  1.0000
  H   H2435     1.0  0.26963  0.60897  0.31219  1.0000
  H   H2436     1.0  0.25126  0.61931  0.30084  1.0000
  H   H2437     1.0  0.27585  0.54069  0.27575  1.0000
  H   H2438     1.0  0.29434  0.52833  0.28613  1.0000
  H   H2439     1.0  0.27301  0.52162  0.29374  1.0000
  H   H2440     1.0  0.30321  0.90287  0.22803  1.0000
  H   H2441     1.0  0.01113  0.93916  0.24725  1.0000
  C   C1404     1.0  0.20895  0.49874  0.27953  1.0000
  H   H2442     1.0  0.19210  0.59370  0.29994  1.0000
  H   H2443     1.0  0.19204  0.57348  0.31673  1.0000
  H   H2444     1.0  0.19382  0.59375  0.32214  1.0000
  N   N78       1.0  0.32759  0.74630  0.25610  1.0000
  C   C1405     1.0  0.31699  0.75505  0.24165  1.0000
  C   C1406     1.0  0.31908  0.73161  0.26925  1.0000
  C   C1407     1.0  0.32697  0.76038  0.26612  1.0000
  C   C1408     1.0  0.34699  0.73927  0.24854  1.0000
  C   C1409     1.0  0.35066  0.72619  0.23590  1.0000
  C   C1410     1.0  0.32392  0.77057  0.22737  1.0000
  C   C1411     1.0  0.33577  0.75368  0.28273  1.0000
  C   C1412     1.0  0.30876  0.72154  0.26218  1.0000
  C   C1413     1.0  0.30159  0.70687  0.27692  1.0000
  C   C1414     1.0  0.37070  0.72079  0.22842  1.0000
  C   C1415     1.0  0.31302  0.77706  0.21269  1.0000
  C   C1416     1.0  0.33152  0.76821  0.29354  1.0000
  H   H2445     1.0  0.30285  0.76034  0.24778  1.0000
  H   H2446     1.0  0.31635  0.74517  0.23426  1.0000
  H   H2447     1.0  0.32930  0.72142  0.27590  1.0000
  H   H2448     1.0  0.30901  0.73710  0.28028  1.0000
  H   H2449     1.0  0.31282  0.76714  0.27050  1.0000
  H   H2450     1.0  0.33397  0.77102  0.25735  1.0000
  H   H2451     1.0  0.35395  0.75046  0.24145  1.0000
  H   H2452     1.0  0.35417  0.73219  0.25949  1.0000
  H   H2453     1.0  0.34412  0.73233  0.22437  1.0000
  H   H2454     1.0  0.34591  0.71382  0.24321  1.0000
  H   H2455     1.0  0.32279  0.78215  0.23331  1.0000
  H   H2456     1.0  0.33806  0.76619  0.22093  1.0000
  H   H2457     1.0  0.35054  0.74999  0.27850  1.0000
  H   H2458     1.0  0.33113  0.74183  0.29184  1.0000
  H   H2459     1.0  0.29695  0.73082  0.25747  1.0000
  H   H2460     1.0  0.31730  0.71533  0.25103  1.0000
  H   H2461     1.0  0.29485  0.69945  0.27140  1.0000
  H   H2462     1.0  0.31263  0.69723  0.28258  1.0000
  H   H2463     1.0  0.29176  0.71267  0.28781  1.0000
  H   H2464     1.0  0.37616  0.73260  0.22039  1.0000
  H   H2465     1.0  0.37813  0.71438  0.23932  1.0000
  H   H2466     1.0  0.37294  0.71114  0.21969  1.0000
  H   H2467     1.0  0.30545  0.62404  0.36987  1.0000
  C   C1417     1.0  0.47822  0.68737  0.21264  1.0000
  H   H2468     1.0  0.31484  0.76632  0.20535  1.0000
  H   H2469     1.0  0.31686  0.77214  0.29841  1.0000
  H   H2470     1.0  0.33795  0.76307  0.30531  1.0000
  H   H2471     1.0  0.33680  0.78010  0.28531  1.0000
  H   H2472     1.0  0.12440  0.52917  0.26680  1.0000
  H   H2473     1.0  0.14108  0.57526  0.28273  1.0000
  S   S327      1.0  0.16373  0.48834  0.19967  1.0000
  C   C1418     1.0  0.46307  0.79535  0.26948  1.0000
  H   H2474     1.0  0.46038  0.94746  0.37597  1.0000
  H   H2475     1.0  0.45864  0.67256  0.27119  1.0000
  C   C1419     1.0  0.14309  0.55547  0.26727  1.0000
  C   C1420     1.0  0.42810  0.82346  0.24111  1.0000
  H   H2476     1.0  0.31569  0.75263  0.17948  1.0000
  C   C1421     1.0  0.46626  0.79871  0.23670  1.0000
  H   H2477     1.0  0.29593  0.89456  0.25163  1.0000
  H   H2478     1.0  0.12474  0.51320  0.24052  1.0000
  C   C1422     1.0  0.26303  0.78752  0.18519  1.0000
  H   H2479     1.0  0.11301  0.53460  0.23110  1.0000
  C   C1423     1.0  0.11630  0.52587  0.24376  1.0000
  H   H2480     1.0  0.15780  0.63566  0.20617  1.0000
  H   H2481     1.0  0.43557  0.82162  0.22759  1.0000
  H   H2482     1.0  0.37951  0.97848  0.33719  1.0000
  H   H2483     1.0  0.28694  0.88888  0.23556  1.0000
  S   S328      1.0  0.17416  0.58983  0.22939  1.0000
  H   H2484     1.0  0.44415  0.81046  0.37091  1.0000
  C   C1424     1.0  0.00432  0.92865  0.25642  1.0000
  H   H2485     1.0  0.45712  0.81312  0.32023  1.0000
  H   H2486     1.0  0.46695  0.82757  0.32660  1.0000
  H   H2487     1.0  0.16111  0.55402  0.37024  1.0000
  C   C1425     1.0  0.42072  0.95306  0.35932  1.0000
  H   H2488     1.0  0.39682  0.66421  0.31088  1.0000
  H   H2489     1.0  0.40268  0.83296  0.23283  1.0000
  H   H2490     1.0  0.18336  0.54137  0.18664  1.0000
  H   H2491     1.0  0.32807  0.88060  0.25371  1.0000
  C   C1426     1.0  0.36319  0.77999  0.18847  1.0000
  H   H2492     1.0  0.30926  0.86383  0.24804  1.0000
  H   H2493     1.0  0.14532  0.49834  0.25486  1.0000
  C   C1427     1.0  0.12565  0.53553  0.25237  1.0000
  H   H2494     1.0  0.40900  0.69694  0.25526  1.0000
  S   S329      1.0  0.46506  0.56010  0.35256  1.0000
  H   H2495     1.0  0.48013  0.64626  0.27905  1.0000
  C   C1428     1.0  0.17282  0.48823  0.25576  1.0000
  H   H2496     1.0  0.41752  0.54119  0.35383  1.0000
  C   C1429     1.0  0.14657  0.57302  0.26894  1.0000
  C   C1430     1.0  0.19121  0.57766  0.19869  1.0000
  H   H2497     1.0  0.20613  0.48249  0.37319  1.0000
  S   S330      1.0  0.47068  0.85604  0.33778  1.0000
  H   H2498     1.0  0.43076  0.81512  0.26854  1.0000
  H   H2499     1.0  0.31584  0.87118  0.22413  1.0000
  H   H2500     1.0  0.37459  0.88338  0.27436  1.0000
  C   C1431     1.0  0.16236  0.59763  0.19804  1.0000
  C   C1432     1.0  0.34782  0.94262  0.26752  1.0000
  C   C1433     1.0  0.32336  0.89436  0.18816  1.0000
  H   H2501     1.0  0.34207  0.85486  0.21636  1.0000
  H   H2502     1.0  0.14489  0.52760  0.22029  1.0000
  H   H2503     1.0  0.47813  0.85037  0.25439  1.0000
  H   H2504     1.0  0.29016  0.77454  0.18657  1.0000
  H   H2505     1.0  0.33715  0.64266  0.35875  1.0000
  H   H2506     1.0  0.99899  0.91714  0.28488  1.0000
  H   H2507     1.0  0.12944  0.51769  0.31432  1.0000
  C   C1434     1.0  0.45362  0.78880  0.34870  1.0000
  H   H2508     1.0  0.35481  0.95940  0.32753  1.0000
  C   C1435     1.0  0.27428  0.59777  0.35238  1.0000
  H   H2509     1.0  0.28440  0.88206  0.19044  1.0000
  H   H2510     1.0  0.44438  0.79203  0.22860  1.0000
  C   C1436     1.0  0.15308  0.49971  0.32232  1.0000
  H   H2511     1.0  0.14663  0.59085  0.34853  1.0000
  C   C1437     1.0  0.46871  0.67928  0.29112  1.0000
  H   H2512     1.0  0.27111  0.75296  0.18375  1.0000
  H   H2513     1.0  0.46844  0.90632  0.34169  1.0000
  C   C1438     1.0  0.36730  0.93553  0.25830  1.0000
  H   H2514     1.0  0.38408  0.88714  0.25073  1.0000
  H   H2515     1.0  0.24544  0.58722  0.18437  1.0000
  C   C1439     1.0  0.37086  0.84724  0.21417  1.0000
  H   H2516     1.0  0.99750  0.95293  0.33044  1.0000
  C   C1440     1.0  0.25100  0.59879  0.18423  1.0000
  H   H2517     1.0  0.31157  0.71339  0.18887  1.0000
  N   N79       1.0  0.38185  0.94037  0.26414  1.0000
  C   C1441     1.0  0.39968  0.93135  0.25457  1.0000
  C   C1442     1.0  0.38072  0.93411  0.28399  1.0000
  H   H2518     1.0  0.18077  0.50239  0.29048  1.0000
  C   C1443     1.0  0.37993  0.96036  0.25954  1.0000
  C   C1444     1.0  0.39426  0.96752  0.26434  1.0000
  H   H2519     1.0  0.20681  0.50224  0.26563  1.0000
  H   H2520     1.0  0.35791  0.83832  0.25582  1.0000
  C   C1445     1.0  0.37855  0.91452  0.29179  1.0000
  C   C1446     1.0  0.37985  0.90909  0.31145  1.0000
  H   H2521     1.0  0.29858  0.78136  0.21839  1.0000
  C   C1447     1.0  0.42113  0.94231  0.32788  1.0000
  H   H2522     1.0  0.45450  0.77439  0.24415  1.0000
  H   H2523     1.0  0.40001  0.91690  0.25607  1.0000
  H   H2524     1.0  0.41075  0.93158  0.26074  1.0000
  H   H2525     1.0  0.39299  0.93545  0.28758  1.0000
  H   H2526     1.0  0.36952  0.94285  0.29147  1.0000
  H   H2527     1.0  0.36944  0.92078  0.25998  1.0000
  C   C1448     1.0  0.48621  0.64412  0.34533  1.0000
  C   C1449     1.0  0.30741  0.74261  0.18111  1.0000
  H   H2528     1.0  0.99744  0.91418  0.18641  1.0000
  H   H2529     1.0  0.40805  0.96042  0.25957  1.0000
  H   H2530     1.0  0.39209  0.96588  0.27905  1.0000
  H   H2531     1.0  0.38661  0.86474  0.26422  1.0000
  H   H2532     1.0  0.32800  0.61497  0.37220  1.0000
  H   H2533     1.0  0.37545  0.85815  0.24100  1.0000
  H   H2534     1.0  0.33995  0.70815  0.19880  1.0000
  H   H2535     1.0  0.36534  0.91274  0.29098  1.0000
  H   H2536     1.0  0.38897  0.90514  0.28448  1.0000
  H   H2537     1.0  0.39299  0.91037  0.31308  1.0000
  H   H2538     1.0  0.36900  0.91757  0.31948  1.0000
  H   H2539     1.0  0.37862  0.89494  0.31663  1.0000
  C   C1450     1.0  0.35910  0.96939  0.21562  1.0000
  H   H2540     1.0  0.39126  0.52887  0.35720  1.0000
  H   H2541     1.0  0.42683  0.67140  0.28511  1.0000
  H   H2542     1.0  0.17716  0.52795  0.21840  1.0000
  H   H2543     1.0  0.42509  0.93326  0.21110  1.0000
  H   H2544     1.0  0.43301  0.92569  0.23181  1.0000
  H   H2545     1.0  0.33569  0.97693  0.28259  1.0000
  C   C1451     1.0  0.45731  0.78527  0.23260  1.0000
  H   H2546     1.0  0.10149  0.51248  0.26866  1.0000
  H   H2547     1.0  0.02918  0.90860  0.25603  1.0000
  H   H2548     1.0  0.48572  0.93362  0.34934  1.0000
  C   C1452     1.0  0.42420  0.93487  0.35881  1.0000
  H   H2549     1.0  0.07964  0.48873  0.19040  1.0000
  H   H2550     1.0  0.00512  0.92953  0.33896  1.0000
  C   C1453     1.0  0.09883  0.52170  0.25601  1.0000
  H   H2551     1.0  0.17131  0.55187  0.21497  1.0000
  H   H2552     1.0  0.46755  0.80935  0.22440  1.0000
  H   H2553     1.0  0.36722  0.88005  0.22982  1.0000
  H   H2554     1.0  0.44822  0.94932  0.18849  1.0000
  H   H2555     1.0  0.34963  0.96730  0.34785  1.0000
  H   H2556     1.0  0.38525  0.83181  0.19395  1.0000
  C   C1454     1.0  0.19292  0.49189  0.29235  1.0000
  H   H2557     1.0  0.44796  0.78369  0.36295  1.0000
  C   C1455     1.0  0.46406  0.76705  0.29330  1.0000
  H   H2558     1.0  0.20780  0.52200  0.22114  1.0000
  H   H2559     1.0  0.19994  0.65071  0.18494  1.0000
  H   H2560     1.0  0.22042  0.62472  0.19030  1.0000
  H   H2561     1.0  0.16119  0.57263  0.26587  1.0000
  H   H2562     1.0  0.36834  0.64085  0.34963  1.0000
  H   H2563     1.0  0.41407  0.85530  0.18221  1.0000
  H   H2564     1.0  0.34423  0.95730  0.26322  1.0000
  H   H2565     1.0  0.36950  0.56488  0.36649  1.0000
  C   C1456     1.0  0.16928  0.54105  0.19363  1.0000
  C   C1457     1.0  0.46734  0.81326  0.32754  1.0000
  C   C1458     1.0  0.47828  0.68897  0.23142  1.0000
  H   H2566     1.0  0.37976  0.96549  0.24514  1.0000
  Fe  Fe164     1.0  0.46135  0.58362  0.36488  1.0000
  C   C1459     1.0  0.48462  0.67049  0.24298  1.0000
  C   C1460     1.0  0.37926  0.53981  0.35827  1.0000
  H   H2567     1.0  0.01757  0.91027  0.23865  1.0000
  C   C1461     1.0  0.00346  0.97038  0.26075  1.0000
  C   C1462     1.0  0.99541  0.93518  0.31442  1.0000
  H   H2568     1.0  0.26580  0.59531  0.17997  1.0000
  C   C1463     1.0  0.48183  0.73225  0.23832  1.0000
  H   H2569     1.0  0.32716  0.66221  0.36824  1.0000
  C   C1464     1.0  0.42444  0.92948  0.34314  1.0000
  C   C1465     1.0  0.00480  0.94002  0.32661  1.0000
  H   H2570     1.0  0.00911  0.89960  0.26117  1.0000
  C   C1466     1.0  0.34776  0.97907  0.22827  1.0000
  H   H2571     1.0  0.33583  0.93801  0.24763  1.0000
  H   H2572     1.0  0.25683  0.52712  0.33565  1.0000
  H   H2573     1.0  0.20170  0.57016  0.20572  1.0000
  H   H2574     1.0  0.26681  0.52978  0.36257  1.0000
  H   H2575     1.0  0.35098  0.88923  0.25764  1.0000
  H   H2576     1.0  0.35402  0.86652  0.27025  1.0000
  H   H2577     1.0  0.21071  0.51086  0.28290  1.0000
  C   C1467     1.0  0.42149  0.92733  0.22550  1.0000
  H   H2578     1.0  0.37291  0.83512  0.22478  1.0000
  H   H2579     1.0  0.34710  0.82579  0.23701  1.0000
  C   C1468     1.0  0.17239  0.57725  0.36930  1.0000
  C   C1469     1.0  0.40495  0.93922  0.23430  1.0000
  H   H2580     1.0  0.38324  0.75603  0.19314  1.0000
  H   H2581     1.0  0.45487  0.77438  0.30339  1.0000
  C   C1470     1.0  0.15811  0.50269  0.24832  1.0000
  H   H2582     1.0  0.20778  0.48492  0.34136  1.0000
  H   H2583     1.0  0.43157  0.68366  0.25261  1.0000
  H   H2584     1.0  0.35305  0.87292  0.20971  1.0000
  H   H2585     1.0  0.23442  0.53638  0.34517  1.0000
  H   H2586     1.0  0.42525  0.81948  0.34723  1.0000
  H   H2587     1.0  0.31769  0.78864  0.20301  1.0000
  H   H2588     1.0  0.21717  0.60854  0.18040  1.0000
  C   C1471     1.0  0.18213  0.63399  0.18577  1.0000
  H   H2589     1.0  0.48021  0.85189  0.23078  1.0000
  H   H2590     1.0  0.38197  0.85420  0.21212  1.0000
  H   H2591     1.0  0.32520  0.83906  0.24084  1.0000
  H   H2592     1.0  0.32689  0.80840  0.25884  1.0000
  H   H2593     1.0  0.30841  0.56631  0.37028  1.0000
  C   C1472     1.0  0.37517  0.97440  0.20606  1.0000
  H   H2594     1.0  0.29809  0.74294  0.19432  1.0000
  S   S331      1.0  0.33053  0.91067  0.19473  1.0000
  H   H2595     1.0  0.12000  0.48644  0.29484  1.0000
  H   H2596     1.0  0.32062  0.82445  0.27308  1.0000
  C   C1473     1.0  0.37742  0.87794  0.26211  1.0000
  C   C1474     1.0  0.42095  0.53939  0.36698  1.0000
  H   H2597     1.0  0.32392  0.59166  0.36353  1.0000
  N   N80       1.0  0.14495  0.53677  0.24393  1.0000
  N   N81       1.0  0.40400  0.64754  0.29116  1.0000
  C   C1475     1.0  0.40728  0.66282  0.27562  1.0000
  C   C1476     1.0  0.39532  0.63505  0.28616  1.0000
  C   C1477     1.0  0.39094  0.65535  0.30620  1.0000
  C   C1478     1.0  0.42084  0.63757  0.29789  1.0000
  C   C1479     1.0  0.43751  0.63142  0.28393  1.0000
  C   C1480     1.0  0.38455  0.64164  0.32305  1.0000
  C   C1481     1.0  0.40116  0.63226  0.26663  1.0000
  C   C1482     1.0  0.39360  0.61730  0.26429  1.0000
  C   C1483     1.0  0.45396  0.62398  0.29238  1.0000
  C   C1484     1.0  0.37150  0.65099  0.33733  1.0000
  H   H2598     1.0  0.39458  0.66949  0.27100  1.0000
  H   H2599     1.0  0.41649  0.65798  0.26391  1.0000
  H   H2600     1.0  0.39730  0.62172  0.29519  1.0000
  H   H2601     1.0  0.38049  0.63998  0.28817  1.0000
  H   H2602     1.0  0.37883  0.66389  0.30144  1.0000
  H   H2603     1.0  0.41838  0.62522  0.30785  1.0000
  H   H2604     1.0  0.44078  0.64249  0.27269  1.0000
  H   H2605     1.0  0.43545  0.62047  0.27885  1.0000
  H   H2606     1.0  0.39600  0.63338  0.32905  1.0000
  H   H2607     1.0  0.37758  0.63275  0.31983  1.0000
  H   H2608     1.0  0.39595  0.64463  0.25747  1.0000
  H   H2609     1.0  0.41585  0.62895  0.26227  1.0000
  H   H2610     1.0  0.39826  0.61540  0.25031  1.0000
  H   H2611     1.0  0.39815  0.60453  0.27328  1.0000
  H   H2612     1.0  0.37875  0.62078  0.26716  1.0000
  H   H2613     1.0  0.37747  0.66069  0.34061  1.0000
  H   H2614     1.0  0.48716  0.69821  0.23007  1.0000
  H   H2615     1.0  0.42528  0.70119  0.26506  1.0000
  C   C1485     1.0  0.36332  0.86910  0.24107  1.0000
  H   H2616     1.0  0.48208  0.63215  0.35371  1.0000
  C   C1486     1.0  0.19947  0.54333  0.37190  1.0000
  C   C1487     1.0  0.35261  0.85992  0.21930  1.0000
  C   C1488     1.0  0.47597  0.92836  0.32161  1.0000
  H   H2617     1.0  0.48410  0.72716  0.28772  1.0000
  H   H2618     1.0  0.44184  0.79367  0.34226  1.0000
  S   S332      1.0  0.41967  0.93630  0.30844  1.0000
  C   C1489     1.0  0.33701  0.83268  0.24690  1.0000
  H   H2619     1.0  0.47142  0.78700  0.20486  1.0000
  H   H2620     1.0  0.35546  0.95803  0.21332  1.0000
  C   C1490     1.0  0.14816  0.53881  0.22393  1.0000
  N   N82       1.0  0.34792  0.86286  0.23818  1.0000
  H   H2621     1.0  0.45061  0.68977  0.31341  1.0000
  H   H2622     1.0  0.33639  0.84978  0.26465  1.0000
  N   N83       1.0  0.46270  0.80395  0.34689  1.0000
  C   C1491     1.0  0.46508  0.77264  0.34063  1.0000
  C   C1492     1.0  0.33159  0.87775  0.24008  1.0000
  H   H2623     1.0  0.36775  0.53418  0.36702  1.0000
  H   H2624     1.0  0.48140  0.73331  0.22455  1.0000
  H   H2625     1.0  0.25100  0.51543  0.36762  1.0000
  H   H2626     1.0  0.46308  0.93097  0.35642  1.0000
  C   C1493     1.0  0.37241  0.84144  0.19677  1.0000
  H   H2627     1.0  0.44399  0.69973  0.29234  1.0000
  H   H2628     1.0  0.47271  0.66561  0.29879  1.0000
  H   H2629     1.0  0.45670  0.82697  0.35900  1.0000
  C   C1494     1.0  0.33160  0.81839  0.26311  1.0000
  C   C1495     1.0  0.29917  0.89128  0.23820  1.0000
  H   H2630     1.0  0.24358  0.53752  0.37229  1.0000
  H   H2631     1.0  0.34954  0.88034  0.17759  1.0000
  H   H2632     1.0  0.40472  0.68535  0.28827  1.0000
  H   H2633     1.0  0.21098  0.55002  0.36654  1.0000
  H   H2634     1.0  0.38663  0.55175  0.33008  1.0000
  C   C1496     1.0  0.37500  0.54698  0.33966  1.0000
  C   C1497     1.0  0.26925  0.58176  0.36202  1.0000
  H   H2635     1.0  0.38308  0.94015  0.33491  1.0000
  H   H2636     1.0  0.19343  0.50094  0.31540  1.0000
  H   H2637     1.0  0.47760  0.68774  0.29186  1.0000
  C   C1498     1.0  0.47634  0.78956  0.37509  1.0000
  H   H2638     1.0  0.13940  0.57043  0.35106  1.0000
  C   C1499     1.0  0.46943  0.67915  0.27138  1.0000
  H   H2639     1.0  0.18304  0.57603  0.35710  1.0000
  H   H2640     1.0  0.22616  0.48914  0.17792  1.0000
  H   H2641     1.0  0.48771  0.81768  0.25885  1.0000
  H   H2642     1.0  0.42830  0.85028  0.36258  1.0000
  C   C1500     1.0  0.33537  0.88086  0.18013  1.0000
  C   C1501     1.0  0.46922  0.77670  0.21725  1.0000
  H   H2643     1.0  0.17410  0.64631  0.20904  1.0000
  H   H2644     1.0  0.47748  0.92161  0.31050  1.0000
  H   H2645     1.0  0.25712  0.77925  0.19786  1.0000
  H   H2646     1.0  0.16142  0.50981  0.31580  1.0000
  H   H2647     1.0  0.16573  0.52928  0.19132  1.0000
  H   H2648     1.0  0.36680  0.96698  0.26655  1.0000
  H   H2649     1.0  0.47322  0.70077  0.20486  1.0000
  C   C1502     1.0  0.48428  0.65914  0.35263  1.0000
  H   H2650     1.0  0.36129  0.83483  0.19776  1.0000
  C   C1503     1.0  0.48616  0.80664  0.31653  1.0000
  C   C1504     1.0  0.33141  0.72177  0.19705  1.0000
  H   H2651     1.0  0.43426  0.51151  0.36740  1.0000
  H   H2652     1.0  0.01879  0.94106  0.31986  1.0000
  H   H2653     1.0  0.16053  0.55343  0.18781  1.0000
  C   C1505     1.0  0.33459  0.93477  0.26235  1.0000
  H   H2654     1.0  0.37879  0.94836  0.35521  1.0000
  H   H2655     1.0  0.16668  0.59180  0.36796  1.0000
  C   C1506     1.0  0.13717  0.50399  0.31326  1.0000
  H   H2656     1.0  0.18715  0.49877  0.36653  1.0000
  H   H2657     1.0  0.34029  0.73161  0.19220  1.0000
  H   H2658     1.0  0.46285  0.74656  0.33841  1.0000
  H   H2659     1.0  0.36415  0.93564  0.35242  1.0000
  H   H2660     1.0  0.44687  0.87848  0.37358  1.0000
  S   S333      1.0  0.40919  0.91643  0.17980  1.0000
  Fe  Fe165     1.0  0.12521  0.52260  0.37231  1.0000
  H   H2661     1.0  0.44837  0.52738  0.35643  1.0000
  H   H2662     1.0  0.22141  0.48836  0.28013  1.0000
  H   H2663     1.0  0.12815  0.49448  0.31999  1.0000
  H   H2664     1.0  0.16107  0.65684  0.19191  1.0000
  H   H2665     1.0  0.47737  0.76675  0.34613  1.0000
  H   H2666     1.0  0.21461  0.51837  0.36426  1.0000
  S   S334      1.0  0.48888  0.58172  0.31720  1.0000
  H   H2667     1.0  0.40948  0.84861  0.35465  1.0000
  C   C1507     1.0  0.19506  0.48771  0.31204  1.0000
  H   H2668     1.0  0.48894  0.79220  0.31689  1.0000
  H   H2669     1.0  0.33246  0.55938  0.36573  1.0000
  H   H2670     1.0  0.00165  0.97601  0.23272  1.0000
  H   H2671     1.0  0.20606  0.57625  0.37187  1.0000
  H   H2672     1.0  0.00094  0.87954  0.17848  1.0000
  H   H2673     1.0  0.45065  0.75290  0.35912  1.0000
  C   C1508     1.0  0.31052  0.86823  0.17928  1.0000
  H   H2674     1.0  0.33536  0.97514  0.23571  1.0000
  H   H2675     1.0  0.48985  0.81854  0.23550  1.0000
  H   H2676     1.0  0.21886  0.60253  0.37127  1.0000
  Fe  Fe166     1.0  0.48395  0.60336  0.33241  1.0000
  H   H2677     1.0  0.99145  0.93032  0.25250  1.0000
  H   H2678     1.0  0.45514  0.90572  0.37642  1.0000
  C   C1509     1.0  0.28130  0.77743  0.17695  1.0000
  Fe  Fe167     1.0  0.05722  0.57053  0.53999  1.0000
  S   S335      1.0  0.05458  0.57852  0.51133  1.0000
  S   S336      1.0  0.04145  0.55144  0.56019  1.0000
  Fe  Fe168     1.0  0.08102  0.59693  0.53538  1.0000
  S   S337      1.0  0.07996  0.60671  0.50653  1.0000
  S   S338      1.0  0.09429  0.61295  0.54597  1.0000
  Fe  Fe169     1.0  0.05090  0.60638  0.51509  1.0000
  S   S339      1.0  0.03116  0.62974  0.50395  1.0000
  Fe  Fe170     1.0  0.08397  0.57800  0.50556  1.0000
  S   S340      1.0  0.10529  0.56749  0.48359  1.0000
  S   S341      1.0  0.05139  0.59863  0.54407  1.0000
  S   S342      1.0  0.08717  0.56793  0.53409  1.0000
  S   S343      1.0  0.24307  0.60721  0.52394  1.0000
  Fe  Fe171     1.0  0.37752  0.51534  0.51019  1.0000
  S   S344      1.0  0.40321  0.52444  0.49653  1.0000
  H   H2679     1.0  0.08512  0.56562  0.57494  1.0000
  Fe  Fe172     1.0  0.35479  0.54739  0.49028  1.0000
  S   S345      1.0  0.37850  0.55941  0.47537  1.0000
  S   S346      1.0  0.32808  0.56387  0.48522  1.0000
  Fe  Fe173     1.0  0.39196  0.53170  0.47164  1.0000
  S   S347      1.0  0.40853  0.52540  0.44525  1.0000
  Fe  Fe174     1.0  0.38758  0.55138  0.50138  1.0000
  S   S348      1.0  0.40081  0.56960  0.50889  1.0000
  S   S349      1.0  0.36749  0.52005  0.48490  1.0000
  S   S350      1.0  0.36263  0.54200  0.51669  1.0000
  H   H2680     1.0  0.14928  0.63210  0.46538  1.0000
  Fe  Fe175     1.0  0.10548  0.52068  0.41069  1.0000
  S   S351      1.0  0.08299  0.53571  0.42887  1.0000
  H   H2681     1.0  0.13804  0.61563  0.46495  1.0000
  H   H2682     1.0  0.34628  0.58468  0.42952  1.0000
  S   S352      1.0  0.02022  0.86493  0.49357  1.0000
  H   H2683     1.0  0.99158  0.64332  0.51779  1.0000
  S   S353      1.0  0.04467  0.72601  0.55238  1.0000
  C   C1510     1.0  0.32253  0.58309  0.37710  1.0000
  H   H2684     1.0  0.23559  0.53106  0.50289  1.0000
  Fe  Fe176     1.0  0.03692  0.70279  0.54729  1.0000
  S   S354      1.0  0.04002  0.70134  0.51872  1.0000
  H   H2685     1.0  0.20546  0.56921  0.54156  1.0000
  H   H2686     1.0  0.99971  0.71918  0.49080  1.0000
  Fe  Fe177     1.0  0.24250  0.55934  0.42016  1.0000
  S   S355      1.0  0.24055  0.53327  0.43944  1.0000
  H   H2687     1.0  0.40243  0.52214  0.38206  1.0000
  Fe  Fe178     1.0  0.22617  0.58134  0.44838  1.0000
  S   S356      1.0  0.22271  0.55738  0.47004  1.0000
  S   S357      1.0  0.21581  0.60834  0.45547  1.0000
  Fe  Fe179     1.0  0.25031  0.54509  0.45719  1.0000
  S   S358      1.0  0.26991  0.52791  0.47415  1.0000
  Fe  Fe180     1.0  0.21324  0.54773  0.45067  1.0000
  S   S359      1.0  0.18766  0.53750  0.46028  1.0000
  S   S360      1.0  0.25469  0.56995  0.43685  1.0000
  S   S361      1.0  0.21437  0.57284  0.42990  1.0000
  C   C1511     1.0  0.17626  0.50825  0.42295  1.0000
  C   C1512     1.0  0.16218  0.51673  0.43467  1.0000
  C   C1513     1.0  0.16586  0.52519  0.44649  1.0000
  C   C1514     1.0  0.18351  0.52591  0.44608  1.0000
  C   C1515     1.0  0.19756  0.51768  0.43415  1.0000
  H   H2688     1.0  0.40066  0.62071  0.56770  1.0000
  H   H2689     1.0  0.33503  0.58137  0.38182  1.0000
  H   H2690     1.0  0.29139  0.62830  0.40952  1.0000
  H   H2691     1.0  0.21122  0.51800  0.43388  1.0000
  H   H2692     1.0  0.00969  0.74345  0.54054  1.0000
  C   C1516     1.0  0.41733  0.54277  0.42940  1.0000
  C   C1517     1.0  0.43145  0.53874  0.41518  1.0000
  H   H2693     1.0  0.99528  0.60545  0.51468  1.0000
  C   C1518     1.0  0.43302  0.57007  0.40506  1.0000
  C   C1519     1.0  0.41865  0.57409  0.41897  1.0000
  C   C1520     1.0  0.41076  0.56054  0.43103  1.0000
  H   H2694     1.0  0.43666  0.52499  0.41386  1.0000
  N   N84       1.0  0.06506  0.50317  0.48706  1.0000
  H   H2695     1.0  0.41370  0.58780  0.42045  1.0000
  H   H2696     1.0  0.39972  0.56389  0.44164  1.0000
  C   C1521     1.0  0.39818  0.57136  0.53115  1.0000
  C   C1522     1.0  0.38242  0.56940  0.54392  1.0000
  C   C1523     1.0  0.38076  0.57190  0.56133  1.0000
  H   H2697     1.0  0.28209  0.56456  0.56898  1.0000
  C   C1524     1.0  0.41067  0.57784  0.55318  1.0000
  C   C1525     1.0  0.41215  0.57577  0.53582  1.0000
  H   H2698     1.0  0.37142  0.56641  0.54025  1.0000
  H   H2699     1.0  0.00134  0.64204  0.53640  1.0000
  H   H2700     1.0  0.42423  0.57757  0.52597  1.0000
  C   C1526     1.0  0.31226  0.55359  0.48196  1.0000
  C   C1527     1.0  0.31402  0.53505  0.48637  1.0000
  C   C1528     1.0  0.30091  0.52729  0.48397  1.0000
  C   C1529     1.0  0.28621  0.53799  0.47685  1.0000
  C   C1530     1.0  0.28452  0.55652  0.47239  1.0000
  C   C1531     1.0  0.29743  0.56431  0.47508  1.0000
  H   H2701     1.0  0.32536  0.52671  0.49175  1.0000
  H   H2702     1.0  0.30223  0.51295  0.48749  1.0000
  H   H2703     1.0  0.27315  0.56487  0.46709  1.0000
  H   H2704     1.0  0.29593  0.57865  0.47178  1.0000
  S   S362      1.0  0.37461  0.49136  0.53270  1.0000
  H   H2705     1.0  0.36021  0.55090  0.39647  1.0000
  H   H2706     1.0  0.05165  0.87180  0.49910  1.0000
  H   H2707     1.0  0.05047  0.50895  0.51276  1.0000
  C   C1532     1.0  0.40303  0.59842  0.46155  1.0000
  H   H2708     1.0  0.30967  0.57998  0.42678  1.0000
  H   H2709     1.0  0.36947  0.58664  0.37905  1.0000
  N   N85       1.0  0.18020  0.57017  0.38584  1.0000
  C   C1533     1.0  0.23562  0.60799  0.50471  1.0000
  C   C1534     1.0  0.22112  0.62115  0.49978  1.0000
  C   C1535     1.0  0.21530  0.62154  0.48435  1.0000
  C   C1536     1.0  0.22361  0.60844  0.47421  1.0000
  C   C1537     1.0  0.23806  0.59528  0.47920  1.0000
  C   C1538     1.0  0.24431  0.59530  0.49418  1.0000
  H   H2710     1.0  0.21464  0.63118  0.50770  1.0000
  H   H2711     1.0  0.20430  0.63188  0.48034  1.0000
  H   H2712     1.0  0.24453  0.58517  0.47139  1.0000
  H   H2713     1.0  0.25566  0.58524  0.49779  1.0000
  C   C1539     1.0  0.09884  0.55969  0.46778  1.0000
  C   C1540     1.0  0.08093  0.56302  0.46640  1.0000
  C   C1541     1.0  0.07624  0.55607  0.45401  1.0000
  C   C1542     1.0  0.08938  0.54556  0.44316  1.0000
  C   C1543     1.0  0.10729  0.54248  0.44438  1.0000
  C   C1544     1.0  0.11199  0.54966  0.45656  1.0000
  H   H2714     1.0  0.07073  0.57095  0.47481  1.0000
  H   H2715     1.0  0.06238  0.55869  0.45295  1.0000
  H   H2716     1.0  0.11748  0.53438  0.43609  1.0000
  H   H2717     1.0  0.21040  0.54203  0.56445  1.0000
  H   H2718     1.0  0.11329  0.61534  0.48696  1.0000
  H   H2719     1.0  0.01270  0.57533  0.52012  1.0000
  H   H2720     1.0  0.16389  0.95589  0.51822  1.0000
  C   C1545     1.0  0.03353  0.64945  0.50854  1.0000
  C   C1546     1.0  0.03851  0.64935  0.52432  1.0000
  C   C1547     1.0  0.04017  0.66531  0.52781  1.0000
  C   C1548     1.0  0.03745  0.68124  0.51522  1.0000
  C   C1549     1.0  0.03263  0.68129  0.49942  1.0000
  C   C1550     1.0  0.03033  0.66550  0.49625  1.0000
  H   H2721     1.0  0.04081  0.63705  0.53397  1.0000
  H   H2722     1.0  0.04382  0.66519  0.54008  1.0000
  H   H2723     1.0  0.03051  0.69358  0.48966  1.0000
  H   H2724     1.0  0.02650  0.66563  0.48405  1.0000
  C   C1551     1.0  0.00778  0.53022  0.53447  1.0000
  C   C1552     1.0  0.12614  0.66372  0.56316  1.0000
  C   C1553     1.0  0.01312  0.53694  0.56065  1.0000
  C   C1554     1.0  0.02880  0.54264  0.55052  1.0000
  C   C1555     1.0  0.12577  0.97140  0.52269  1.0000
  H   H2725     1.0  0.34750  0.54103  0.42890  1.0000
  H   H2726     1.0  0.44714  0.95453  0.40537  1.0000
  H   H2727     1.0  0.45325  0.51048  0.46877  1.0000
  H   H2728     1.0  0.14852  0.51637  0.43494  1.0000
  C   C1556     1.0  0.07515  0.49332  0.45654  1.0000
  C   C1557     1.0  0.05568  0.83449  0.57500  1.0000
  C   C1558     1.0  0.43928  0.55237  0.40299  1.0000
  H   H2729     1.0  0.00993  0.72903  0.50263  1.0000
  H   H2730     1.0  0.07735  0.53224  0.49401  1.0000
  H   H2731     1.0  0.20490  0.50158  0.41422  1.0000
  H   H2732     1.0  0.19556  0.59883  0.52327  1.0000
  H   H2733     1.0  0.46046  0.93447  0.41599  1.0000
  H   H2734     1.0  0.37739  0.54964  0.42078  1.0000
  C   C1559     1.0  0.16564  0.57415  0.40175  1.0000
  C   C1560     1.0  0.99107  0.71312  0.51976  1.0000
  C   C1561     1.0  0.32166  0.60212  0.40785  1.0000
  S   S363      1.0  0.44324  0.58748  0.39132  1.0000
  C   C1562     1.0  0.19395  0.50850  0.42294  1.0000
  C   C1563     1.0  0.17187  0.57153  0.41942  1.0000
  C   C1564     1.0  0.12970  0.80712  0.56787  1.0000
  N   N86       1.0  0.38812  0.54931  0.38326  1.0000
  H   H2735     1.0  0.18015  0.60376  0.39284  1.0000
  H   H2736     1.0  0.02684  0.51762  0.48890  1.0000
  C   C1565     1.0  0.15589  0.57346  0.43500  1.0000
  H   H2737     1.0  0.15573  0.56548  0.40454  1.0000
  H   H2738     1.0  0.15781  0.58806  0.39890  1.0000
  H   H2739     1.0  0.20270  0.57278  0.39523  1.0000
  H   H2740     1.0  0.47821  0.55652  0.51538  1.0000
  C   C1566     1.0  0.32290  0.58330  0.42031  1.0000
  C   C1567     1.0  0.46172  0.93637  0.38774  1.0000
  H   H2741     1.0  0.36852  0.57069  0.57108  1.0000
  H   H2742     1.0  0.01171  0.96336  0.45670  1.0000
  H   H2743     1.0  0.05169  0.97868  0.51175  1.0000
  H   H2744     1.0  0.36850  0.60672  0.39793  1.0000
  C   C1568     1.0  0.06753  0.48868  0.47692  1.0000
  H   H2745     1.0  0.08799  0.95233  0.50653  1.0000
  C   C1569     1.0  0.12564  0.61546  0.55251  1.0000
  H   H2746     1.0  0.11106  0.62232  0.50723  1.0000
  C   C1570     1.0  0.05462  0.49768  0.50567  1.0000
  H   H2747     1.0  0.00439  0.75964  0.51059  1.0000
  C   C1571     1.0  0.10710  0.94672  0.54720  1.0000
  H   H2748     1.0  0.24572  0.59510  0.40040  1.0000
  H   H2749     1.0  0.11095  0.52140  0.48647  1.0000
  C   C1572     1.0  0.07449  0.95722  0.51421  1.0000
  C   C1573     1.0  0.23657  0.53915  0.53389  1.0000
  H   H2750     1.0  0.32512  0.63630  0.39239  1.0000
  H   H2751     1.0  0.14784  0.56330  0.43678  1.0000
  H   H2752     1.0  0.16072  0.57139  0.44751  1.0000
  H   H2753     1.0  0.14721  0.58696  0.43272  1.0000
  H   H2754     1.0  0.45038  0.92950  0.39070  1.0000
  H   H2755     1.0  0.05287  0.53110  0.48603  1.0000
  H   H2756     1.0  0.04337  0.83567  0.54224  1.0000
  C   C1574     1.0  0.99740  0.76616  0.55286  1.0000
  H   H2757     1.0  0.45317  0.86946  0.39511  1.0000
  C   C1575     1.0  0.39169  0.56541  0.38753  1.0000
  H   H2758     1.0  0.01419  0.53824  0.46419  1.0000
  H   H2759     1.0  0.44630  0.58262  0.48587  1.0000
  H   H2760     1.0  0.09007  0.51145  0.47361  1.0000
  H   H2761     1.0  0.07565  0.95750  0.52778  1.0000
  H   H2762     1.0  0.00898  0.80968  0.55459  1.0000
  H   H2763     1.0  0.42068  0.56500  0.47497  1.0000
  H   H2764     1.0  0.30164  0.58129  0.40096  1.0000
  Fe  Fe181     1.0  0.14470  0.50356  0.40228  1.0000
  H   H2765     1.0  0.23621  0.51205  0.52062  1.0000
  S   S364      1.0  0.11221  0.88239  0.56284  1.0000
  H   H2766     1.0  0.09344  0.98229  0.47962  1.0000
  S   S365      1.0  0.14234  0.49534  0.37802  1.0000
  H   H2767     1.0  0.30559  0.52821  0.53308  1.0000
  H   H2768     1.0  0.06568  0.50422  0.44974  1.0000
  H   H2769     1.0  0.17962  0.58166  0.41854  1.0000
  H   H2770     1.0  0.17522  0.97825  0.56778  1.0000
  H   H2771     1.0  0.07996  0.81475  0.57605  1.0000
  H   H2772     1.0  0.11395  0.67445  0.56247  1.0000
  H   H2773     1.0  0.24571  0.55593  0.50765  1.0000
  C   C1576     1.0  0.26180  0.61544  0.42884  1.0000
  H   H2774     1.0  0.24748  0.67112  0.56967  1.0000
  C   C1577     1.0  0.28068  0.60534  0.42222  1.0000
  H   H2775     1.0  0.39814  0.61297  0.46104  1.0000
  H   H2776     1.0  0.30836  0.52590  0.56372  1.0000
  C   C1578     1.0  0.12657  0.95489  0.51877  1.0000
  C   C1579     1.0  0.15867  0.90141  0.54238  1.0000
  C   C1580     1.0  0.00297  0.75732  0.53859  1.0000
  H   H2777     1.0  0.11375  0.70660  0.54427  1.0000
  S   S366      1.0  0.16911  0.58133  0.56863  1.0000
  C   C1581     1.0  0.21275  0.51915  0.50878  1.0000
  C   C1582     1.0  0.06579  0.97591  0.50449  1.0000
  C   C1583     1.0  0.10648  0.96317  0.55121  1.0000
  H   H2778     1.0  0.08328  0.64508  0.49712  1.0000
  N   N87       1.0  0.30821  0.60746  0.39588  1.0000
  H   H2779     1.0  0.08882  0.63843  0.47579  1.0000
  H   H2780     1.0  0.08699  0.66131  0.47673  1.0000
  H   H2781     1.0  0.03670  0.51031  0.46818  1.0000
  C   C1584     1.0  0.02768  0.53860  0.46568  1.0000
  H   H2782     1.0  0.46091  0.57629  0.51221  1.0000
  Fe  Fe182     1.0  0.99439  0.85891  0.49147  1.0000
  H   H2783     1.0  0.36713  0.53555  0.55388  1.0000
  C   C1585     1.0  0.04602  0.79615  0.54902  1.0000
  C   C1586     1.0  0.36009  0.53093  0.42991  1.0000
  C   C1587     1.0  0.42985  0.57273  0.46460  1.0000
  S   S367      1.0  0.12085  0.49301  0.41971  1.0000
  H   H2784     1.0  0.46918  0.60213  0.42292  1.0000
  C   C1588     1.0  0.11680  0.94275  0.53076  1.0000
  H   H2785     1.0  0.13575  0.63191  0.51255  1.0000
  H   H2786     1.0  0.08014  0.64459  0.56748  1.0000
  C   C1589     1.0  0.37348  0.54185  0.39730  1.0000
  H   H2787     1.0  0.32166  0.50651  0.55539  1.0000
  H   H2788     1.0  0.15505  0.53132  0.45591  1.0000
  C   C1590     1.0  0.46857  0.89900  0.37945  1.0000
  H   H2789     1.0  0.46959  0.51764  0.44914  1.0000
  H   H2790     1.0  0.04136  0.75386  0.57478  1.0000
  H   H2791     1.0  0.13493  0.55704  0.50623  1.0000
  H   H2792     1.0  0.14073  0.56530  0.52274  1.0000
  H   H2793     1.0  0.15621  0.56341  0.50162  1.0000
  H   H2794     1.0  0.42166  0.58109  0.55664  1.0000
  H   H2795     1.0  0.19596  0.51607  0.38252  1.0000
  H   H2796     1.0  0.14768  0.95235  0.55255  1.0000
  C   C1591     1.0  0.19570  0.57887  0.38389  1.0000
  H   H2797     1.0  0.10276  0.52812  0.50763  1.0000
  H   H2798     1.0  0.08810  0.49754  0.45373  1.0000
  C   C1592     1.0  0.16509  0.97067  0.53752  1.0000
  C   C1593     1.0  0.14177  0.59978  0.50329  1.0000
  H   H2799     1.0  0.17226  0.62933  0.48625  1.0000
  H   H2800     1.0  0.38156  0.63892  0.56610  1.0000
  H   H2801     1.0  0.29476  0.59621  0.38222  1.0000
  C   C1594     1.0  0.99989  0.76646  0.52164  1.0000
  C   C1595     1.0  0.31816  0.53026  0.53531  1.0000
  C   C1596     1.0  0.01286  0.88776  0.53634  1.0000
  H   H2802     1.0  0.20284  0.53104  0.50401  1.0000
  H   H2803     1.0  0.46861  0.79983  0.38295  1.0000
  C   C1597     1.0  0.99124  0.78445  0.51889  1.0000
  H   H2804     1.0  0.47576  0.56962  0.45556  1.0000
  C   C1598     1.0  0.04862  0.76488  0.56814  1.0000
  C   C1599     1.0  0.46011  0.94482  0.40353  1.0000
  H   H2805     1.0  0.21604  0.52042  0.38599  1.0000
  H   H2806     1.0  0.33544  0.60242  0.39976  1.0000
  H   H2807     1.0  0.27944  0.59261  0.41986  1.0000
  H   H2808     1.0  0.46239  0.85746  0.37722  1.0000
  C   C1600     1.0  0.08330  0.50572  0.48729  1.0000
  H   H2809     1.0  0.27515  0.55655  0.51313  1.0000
  C   C1601     1.0  0.25144  0.54554  0.51819  1.0000
  H   H2810     1.0  0.11291  0.65308  0.49085  1.0000
  H   H2811     1.0  0.06185  0.94225  0.50312  1.0000
  C   C1602     1.0  0.04080  0.87602  0.50962  1.0000
  H   H2812     1.0  0.26211  0.62856  0.43123  1.0000
  H   H2813     1.0  0.45514  0.55452  0.52033  1.0000
  H   H2814     1.0  0.03715  0.97930  0.38322  1.0000
  C   C1603     1.0  0.09477  0.69481  0.52576  1.0000
  N   N88       1.0  0.03535  0.81258  0.53896  1.0000
  H   H2815     1.0  0.10915  0.50471  0.50690  1.0000
  C   C1604     1.0  0.04592  0.82736  0.53213  1.0000
  C   C1605     1.0  0.01842  0.81882  0.55185  1.0000
  C   C1606     1.0  0.02977  0.80848  0.52386  1.0000
  C   C1607     1.0  0.04500  0.80211  0.50879  1.0000
  H   H2816     1.0  0.41008  0.53244  0.39507  1.0000
  H   H2817     1.0  0.05016  0.79982  0.55979  1.0000
  C   C1608     1.0  0.06668  0.82168  0.52744  1.0000
  C   C1609     1.0  0.07541  0.83774  0.51856  1.0000
  C   C1610     1.0  0.03750  0.79690  0.49534  1.0000
  H   H2818     1.0  0.36222  0.52829  0.44375  1.0000
  H   H2819     1.0  0.39145  0.60039  0.38678  1.0000
  H   H2820     1.0  0.39838  0.56140  0.39911  1.0000
  H   H2821     1.0  0.05864  0.79081  0.54029  1.0000
  H   H2822     1.0  0.04130  0.83677  0.52030  1.0000
  C   C1611     1.0  0.38016  0.59540  0.39678  1.0000
  C   C1612     1.0  0.37602  0.53769  0.41683  1.0000
  H   H2823     1.0  0.48497  0.87180  0.38015  1.0000
  H   H2824     1.0  0.02113  0.79843  0.52901  1.0000
  H   H2825     1.0  0.02117  0.82048  0.51721  1.0000
  H   H2826     1.0  0.05470  0.79032  0.51404  1.0000
  H   H2827     1.0  0.05205  0.81312  0.50142  1.0000
  C   C1613     1.0  0.25877  0.61191  0.37729  1.0000
  C   C1614     1.0  0.46518  0.56203  0.51114  1.0000
  H   H2828     1.0  0.00170  0.70093  0.52118  1.0000
  H   H2829     1.0  0.14918  0.89850  0.53583  1.0000
  H   H2830     1.0  0.17589  0.97382  0.50905  1.0000
  H   H2831     1.0  0.07121  0.81214  0.51837  1.0000
  H   H2832     1.0  0.09021  0.83340  0.51657  1.0000
  H   H2833     1.0  0.44217  0.52250  0.38041  1.0000
  H   H2834     1.0  0.07113  0.84788  0.52707  1.0000
  H   H2835     1.0  0.04850  0.79327  0.48413  1.0000
  H   H2836     1.0  0.03104  0.78528  0.50175  1.0000
  H   H2837     1.0  0.02746  0.80822  0.48980  1.0000
  H   H2838     1.0  0.16239  0.70026  0.57425  1.0000
  S   S368      1.0  0.17231  0.49709  0.40826  1.0000
  C   C1615     1.0  0.18421  0.81251  0.56167  1.0000
  H   H2839     1.0  0.19477  0.54552  0.39941  1.0000
  C   C1616     1.0  0.18035  0.83272  0.56004  1.0000
  H   H2840     1.0  0.07015  0.93011  0.52288  1.0000
  C   C1617     1.0  0.03414  0.54159  0.53254  1.0000
  H   H2841     1.0  0.14144  0.64472  0.49056  1.0000
  C   C1618     1.0  0.00932  0.88070  0.52327  1.0000
  H   H2842     1.0  0.15634  0.59429  0.50214  1.0000
  H   H2843     1.0  0.02743  0.53557  0.51046  1.0000
  H   H2844     1.0  0.18092  0.52039  0.57332  1.0000
  H   H2845     1.0  0.21491  0.55727  0.50569  1.0000
  H   H2846     1.0  0.11880  0.64642  0.46962  1.0000
  C   C1619     1.0  0.11542  0.97576  0.53873  1.0000
  N   N89       1.0  0.13815  0.61812  0.49159  1.0000
  H   H2847     1.0  0.07643  0.51438  0.51324  1.0000
  S   S369      1.0  0.01006  0.70643  0.56570  1.0000
  H   H2848     1.0  0.12048  0.62966  0.54968  1.0000
  H   H2849     1.0  0.00087  0.56729  0.50813  1.0000
  H   H2850     1.0  0.06278  0.52564  0.46501  1.0000
  C   C1620     1.0  0.13894  0.57873  0.55946  1.0000
  H   H2851     1.0  0.00198  0.89242  0.54663  1.0000
  H   H2852     1.0  0.04184  0.49449  0.50520  1.0000
  C   C1621     1.0  0.39204  0.51959  0.55969  1.0000
  S   S370      1.0  0.09957  0.51394  0.38717  1.0000
  H   H2853     1.0  0.13673  0.60058  0.51759  1.0000
  C   C1622     1.0  0.32057  0.52101  0.55429  1.0000
  C   C1623     1.0  0.00786  0.83807  0.54596  1.0000
  H   H2854     1.0  0.34878  0.51819  0.54814  1.0000
  N   N90       1.0  0.44882  0.56560  0.46740  1.0000
  C   C1624     1.0  0.29021  0.61652  0.40513  1.0000
  C   C1625     1.0  0.45424  0.54574  0.46765  1.0000
  C   C1626     1.0  0.44924  0.56821  0.48551  1.0000
  C   C1627     1.0  0.46186  0.57555  0.45357  1.0000
  S   S371      1.0  0.22117  0.62776  0.56661  1.0000
  H   H2855     1.0  0.04656  0.54514  0.52482  1.0000
  C   C1628     1.0  0.46718  0.56018  0.49195  1.0000
  C   C1629     1.0  0.44625  0.53843  0.45573  1.0000
  C   C1630     1.0  0.45508  0.51895  0.45515  1.0000
  H   H2856     1.0  0.16394  0.60825  0.44015  1.0000
  C   C1631     1.0  0.99721  0.72569  0.50230  1.0000
  H   H2857     1.0  0.21704  0.51391  0.55015  1.0000
  H   H2858     1.0  0.48835  0.58366  0.42372  1.0000
  H   H2859     1.0  0.46909  0.54156  0.46419  1.0000
  H   H2860     1.0  0.45006  0.53795  0.48137  1.0000
  H   H2861     1.0  0.43855  0.56241  0.49583  1.0000
  C   C1632     1.0  0.19114  0.59944  0.38195  1.0000
  H   H2862     1.0  0.01272  0.58637  0.47990  1.0000
  H   H2863     1.0  0.13069  0.80180  0.55630  1.0000
  H   H2864     1.0  0.13452  0.58650  0.48553  1.0000
  C   C1633     1.0  0.14704  0.61845  0.47219  1.0000
  C   C1634     1.0  0.11813  0.62399  0.49295  1.0000
  C   C1635     1.0  0.09141  0.64723  0.48333  1.0000
  H   H2865     1.0  0.38814  0.52714  0.41853  1.0000
  H   H2866     1.0  0.09860  0.96636  0.56377  1.0000
  H   H2867     1.0  0.43173  0.53899  0.46131  1.0000
  H   H2868     1.0  0.44778  0.54617  0.44188  1.0000
  H   H2869     1.0  0.15307  0.98105  0.53496  1.0000
  H   H2870     1.0  0.10127  0.65829  0.53796  1.0000
  H   H2871     1.0  0.25953  0.53408  0.51207  1.0000
  C   C1636     1.0  0.14188  0.56671  0.50820  1.0000
  C   C1637     1.0  0.16504  0.60507  0.46809  1.0000
  C   C1638     1.0  0.10281  0.51806  0.50009  1.0000
  H   H2872     1.0  0.09974  0.93732  0.55665  1.0000
  C   C1639     1.0  0.37208  0.52703  0.56575  1.0000
  H   H2873     1.0  0.15011  0.61773  0.55838  1.0000
  C   C1640     1.0  0.33771  0.52426  0.55806  1.0000
  N   N91       1.0  0.09517  0.71322  0.51427  1.0000
  C   C1641     1.0  0.07738  0.72067  0.50868  1.0000
  C   C1642     1.0  0.19506  0.58655  0.51936  1.0000
  H   H2874     1.0  0.31748  0.54483  0.53302  1.0000
  C   C1643     1.0  0.11088  0.71284  0.49862  1.0000
  C   C1644     1.0  0.10784  0.70975  0.48112  1.0000
  C   C1645     1.0  0.07368  0.74079  0.49988  1.0000
  C   C1646     1.0  0.11590  0.73320  0.54288  1.0000
  C   C1647     1.0  0.09325  0.68034  0.51660  1.0000
  H   H2875     1.0  0.17241  0.89875  0.53420  1.0000
  C   C1648     1.0  0.12554  0.70616  0.46782  1.0000
  C   C1649     1.0  0.05753  0.74570  0.49101  1.0000
  C   C1650     1.0  0.11551  0.60388  0.55120  1.0000
  H   H2876     1.0  0.06633  0.71880  0.52043  1.0000
  H   H2877     1.0  0.07541  0.71311  0.49960  1.0000
  H   H2878     1.0  0.09072  0.65261  0.52316  1.0000
  H   H2879     1.0  0.28095  0.62166  0.39560  1.0000
  H   H2880     1.0  0.08487  0.98151  0.52699  1.0000
  H   H2881     1.0  0.27029  0.54270  0.53499  1.0000
  H   H2882     1.0  0.11557  0.72569  0.49477  1.0000
  H   H2883     1.0  0.12251  0.70249  0.50258  1.0000
  H   H2884     1.0  0.09919  0.72176  0.47461  1.0000
  H   H2885     1.0  0.10124  0.69840  0.48341  1.0000
  H   H2886     1.0  0.07047  0.74899  0.51020  1.0000
  H   H2887     1.0  0.08545  0.74451  0.48976  1.0000
  H   H2888     1.0  0.33416  0.56788  0.44326  1.0000
  H   H2889     1.0  0.17559  0.83899  0.54738  1.0000
  H   H2890     1.0  0.08183  0.68465  0.50972  1.0000
  H   H2891     1.0  0.10588  0.67695  0.50693  1.0000
  H   H2892     1.0  0.22205  0.57501  0.52235  1.0000
  H   H2893     1.0  0.33037  0.57289  0.41254  1.0000
  H   H2894     1.0  0.13445  0.69374  0.47336  1.0000
  H   H2895     1.0  0.12294  0.70449  0.45529  1.0000
  H   H2896     1.0  0.13245  0.71752  0.46458  1.0000
  H   H2897     1.0  0.04535  0.74273  0.50103  1.0000
  H   H2898     1.0  0.05503  0.76016  0.48495  1.0000
  H   H2899     1.0  0.05998  0.73811  0.48032  1.0000
  H   H2900     1.0  0.16832  0.61360  0.50718  1.0000
  H   H2901     1.0  0.20558  0.50997  0.51965  1.0000
  C   C1651     1.0  0.18711  0.55022  0.38850  1.0000
  H   H2902     1.0  0.07732  0.66544  0.53933  1.0000
  H   H2903     1.0  0.44879  0.51403  0.44684  1.0000
  C   C1652     1.0  0.03657  0.78019  0.55779  1.0000
  H   H2904     1.0  0.33734  0.53888  0.55406  1.0000
  C   C1653     1.0  0.22723  0.52455  0.51521  1.0000
  S   S372      1.0  0.12973  0.53171  0.39503  1.0000
  H   H2905     1.0  0.23261  0.54860  0.54307  1.0000
  C   C1654     1.0  0.17320  0.96289  0.52073  1.0000
  H   H2906     1.0  0.07186  0.84384  0.50534  1.0000
  C   C1655     1.0  0.26423  0.55292  0.52452  1.0000
  C   C1656     1.0  0.33272  0.58168  0.43513  1.0000
  H   H2907     1.0  0.03048  0.57208  0.49039  1.0000
  H   H2908     1.0  0.15276  0.65780  0.54657  1.0000
  C   C1657     1.0  0.40508  0.53512  0.38255  1.0000
  Fe  Fe183     1.0  0.19169  0.63675  0.56792  1.0000
  H   H2909     1.0  0.24678  0.65056  0.56444  1.0000
  H   H2910     1.0  0.46636  0.89605  0.39429  1.0000
  H   H2911     1.0  0.11467  0.57649  0.55317  1.0000
  S   S373      1.0  0.07457  0.91325  0.56384  1.0000
  H   H2912     1.0  0.28809  0.60266  0.43309  1.0000
  C   C1658     1.0  0.14392  0.63107  0.49889  1.0000
  H   H2913     1.0  0.15291  0.83745  0.57359  1.0000
  H   H2914     1.0  0.03869  0.97607  0.44236  1.0000
  H   H2915     1.0  0.17186  0.80811  0.56194  1.0000
  H   H2916     1.0  0.47178  0.54578  0.49164  1.0000
  Fe  Fe184     1.0  0.09920  0.90491  0.54368  1.0000
  C   C1659     1.0  0.03044  0.88872  0.53620  1.0000
  C   C1660     1.0  0.22118  0.50922  0.49346  1.0000
  C   C1661     1.0  0.00255  0.53077  0.55262  1.0000
  C   C1662     1.0  0.02337  0.87468  0.50993  1.0000
  Fe  Fe185     1.0  0.09749  0.86546  0.55571  1.0000
  H   H2917     1.0  0.41048  0.48357  0.51069  1.0000
  H   H2918     1.0  0.02142  0.81825  0.56499  1.0000
  H   H2919     1.0  0.18561  0.59841  0.44550  1.0000
  C   C1663     1.0  0.17336  0.60873  0.44819  1.0000
  C   C1664     1.0  0.01901  0.58358  0.49162  1.0000
  S   S374      1.0  0.19150  0.62319  0.54631  1.0000
  H   H2920     1.0  0.14373  0.68129  0.54610  1.0000
  H   H2921     1.0  0.35872  0.51830  0.42726  1.0000
  C   C1665     1.0  0.42223  0.59289  0.46452  1.0000
  H   H2922     1.0  0.42176  0.59614  0.47744  1.0000
  H   H2923     1.0  0.25701  0.56508  0.52986  1.0000
  H   H2924     1.0  0.40229  0.59554  0.44882  1.0000
  C   C1666     1.0  0.46238  0.57591  0.43383  1.0000
  H   H2925     1.0  0.10383  0.73613  0.55342  1.0000
  N   N92       1.0  0.22048  0.53664  0.52859  1.0000
  H   H2926     1.0  0.37223  0.52908  0.39479  1.0000
  H   H2927     1.0  0.21174  0.60071  0.39514  1.0000
  C   C1667     1.0  0.14038  0.66838  0.54654  1.0000
  C   C1668     1.0  0.16710  0.64005  0.50969  1.0000
  H   H2928     1.0  0.17084  0.94407  0.55287  1.0000
  C   C1669     1.0  0.12232  0.58550  0.55435  1.0000
  N   N93       1.0  0.30520  0.60316  0.51607  1.0000
  C   C1670     1.0  0.32453  0.59439  0.51643  1.0000
  C   C1671     1.0  0.29374  0.58966  0.52600  1.0000
  C   C1672     1.0  0.30316  0.60803  0.49683  1.0000
  C   C1673     1.0  0.29902  0.61998  0.52365  1.0000
  C   C1674     1.0  0.30851  0.62136  0.53805  1.0000
  C   C1675     1.0  0.33855  0.60476  0.50341  1.0000
  C   C1676     1.0  0.28372  0.61423  0.49374  1.0000
  C   C1677     1.0  0.29447  0.58210  0.54589  1.0000
  C   C1678     1.0  0.28196  0.56902  0.55453  1.0000
  C   C1679     1.0  0.29951  0.63810  0.54572  1.0000
  C   C1680     1.0  0.35700  0.59770  0.50815  1.0000
  C   C1681     1.0  0.28323  0.62226  0.47411  1.0000
  H   H2929     1.0  0.32766  0.58097  0.51304  1.0000
  H   H2930     1.0  0.32716  0.59161  0.53007  1.0000
  H   H2931     1.0  0.27941  0.59564  0.52595  1.0000
  H   H2932     1.0  0.29718  0.57820  0.51912  1.0000
  H   H2933     1.0  0.30943  0.59653  0.49022  1.0000
  H   H2934     1.0  0.31041  0.61885  0.48914  1.0000
  H   H2935     1.0  0.30067  0.63202  0.51290  1.0000
  H   H2936     1.0  0.28434  0.62209  0.52929  1.0000
  H   H2937     1.0  0.32267  0.62229  0.53221  1.0000
  H   H2938     1.0  0.30857  0.60967  0.54924  1.0000
  H   H2939     1.0  0.33984  0.60306  0.48961  1.0000
  H   H2940     1.0  0.33454  0.61924  0.50344  1.0000
  H   H2941     1.0  0.27573  0.62429  0.50177  1.0000
  H   H2942     1.0  0.27724  0.60256  0.49751  1.0000
  H   H2943     1.0  0.30817  0.57505  0.54768  1.0000
  H   H2944     1.0  0.28970  0.59302  0.55327  1.0000
  H   H2945     1.0  0.47781  0.56729  0.48349  1.0000
  H   H2946     1.0  0.26797  0.57558  0.55319  1.0000
  C   C1682     1.0  0.24243  0.65853  0.57502  1.0000
  H   H2947     1.0  0.28505  0.63836  0.55133  1.0000
  H   H2948     1.0  0.30594  0.63823  0.55661  1.0000
  H   H2949     1.0  0.30096  0.65030  0.53522  1.0000
  H   H2950     1.0  0.36149  0.58326  0.50793  1.0000
  H   H2951     1.0  0.36690  0.60488  0.49826  1.0000
  H   H2952     1.0  0.35673  0.59973  0.52158  1.0000
  H   H2953     1.0  0.28873  0.63460  0.46966  1.0000
  H   H2954     1.0  0.29104  0.61250  0.46566  1.0000
  H   H2955     1.0  0.26913  0.62570  0.47237  1.0000
  H   H2956     1.0  0.13542  0.66939  0.53436  1.0000
  H   H2957     1.0  0.18609  0.95341  0.52211  1.0000
  C   C1683     1.0  0.14891  0.59031  0.56114  1.0000
  C   C1684     1.0  0.16386  0.62727  0.49988  1.0000
  H   H2958     1.0  0.06192  0.84209  0.56204  1.0000
  H   H2959     1.0  0.99164  0.97731  0.46654  1.0000
  H   H2960     1.0  0.47502  0.58770  0.40720  1.0000
  H   H2961     1.0  0.47111  0.95205  0.40106  1.0000
  H   H2962     1.0  0.11879  0.58784  0.50627  1.0000
  C   C1685     1.0  0.37514  0.58058  0.39118  1.0000
  H   H2963     1.0  0.04981  0.48922  0.54278  1.0000
  H   H2964     1.0  0.25565  0.60754  0.44162  1.0000
  H   H2965     1.0  0.46795  0.56238  0.43090  1.0000
  C   C1686     1.0  0.38735  0.62668  0.57500  1.0000
  H   H2966     1.0  0.17719  0.62197  0.44404  1.0000
  H   H2967     1.0  0.12282  0.65120  0.56264  1.0000
  S   S375      1.0  0.08706  0.88718  0.53426  1.0000
  C   C1687     1.0  0.08361  0.51829  0.49933  1.0000
  H   H2968     1.0  0.22863  0.51761  0.48196  1.0000
  C   C1688     1.0  0.11133  0.64353  0.48360  1.0000
  H   H2969     1.0  0.39927  0.53076  0.55414  1.0000
  C   C1689     1.0  0.20889  0.57102  0.52689  1.0000
  C   C1690     1.0  0.25377  0.59580  0.38704  1.0000
  H   H2970     1.0  0.30313  0.64675  0.38773  1.0000
  S   S376      1.0  0.11614  0.92336  0.52425  1.0000
  H   H2971     1.0  0.17493  0.60566  0.47548  1.0000
  H   H2972     1.0  0.05785  0.88373  0.52225  1.0000
  C   C1691     1.0  0.04435  0.88281  0.52275  1.0000
  N   N94       1.0  0.34155  0.51703  0.57669  1.0000
  H   H2973     1.0  0.03336  0.77496  0.54753  1.0000
  Fe  Fe186     1.0  0.06329  0.89357  0.55594  1.0000
  S   S377      1.0  0.10901  0.83729  0.55175  1.0000
  H   H2974     1.0  0.12580  0.54705  0.45766  1.0000
  H   H2975     1.0  0.45934  0.58956  0.45526  1.0000
  H   H2976     1.0  0.04988  0.94691  0.52480  1.0000
  H   H2977     1.0  0.07192  0.81526  0.53982  1.0000
  H   H2978     1.0  0.16290  0.59117  0.47172  1.0000
  H   H2979     1.0  0.19755  0.52436  0.54113  1.0000
  H   H2980     1.0  0.39407  0.59125  0.47271  1.0000
  C   C1692     1.0  0.39499  0.57603  0.56598  1.0000
  C   C1693     1.0  0.16581  0.83857  0.57598  1.0000
  H   H2981     1.0  0.06100  0.75959  0.55901  1.0000
  C   C1694     1.0  0.14238  0.60874  0.55733  1.0000
  C   C1695     1.0  0.13326  0.58564  0.49998  1.0000
  H   H2982     1.0  0.02414  0.59542  0.49153  1.0000
  H   H2983     1.0  0.19101  0.86334  0.57091  1.0000
  H   H2984     1.0  0.28126  0.61182  0.57274  1.0000
  Fe  Fe187     1.0  0.22045  0.61207  0.54711  1.0000
  C   C1696     1.0  0.00649  0.97517  0.46305  1.0000
  H   H2985     1.0  0.31905  0.61220  0.41625  1.0000
  S   S378      1.0  0.03464  0.89761  0.55272  1.0000
  H   H2986     1.0  0.15964  0.63789  0.52375  1.0000
  H   H2987     1.0  0.20413  0.62107  0.38027  1.0000
  H   H2988     1.0  0.38408  0.59039  0.40994  1.0000
  H   H2989     1.0  0.10167  0.97451  0.49963  1.0000
  H   H2990     1.0  0.18595  0.95591  0.56650  1.0000
  C   C1697     1.0  0.02351  0.53571  0.52451  1.0000
  H   H2991     1.0  0.32001  0.55545  0.38843  1.0000
  H   H2992     1.0  0.16291  0.65415  0.50300  1.0000
  C   C1698     1.0  0.31638  0.63872  0.38271  1.0000
  H   H2993     1.0  0.36447  0.57565  0.40199  1.0000
  H   H2994     1.0  0.09726  0.73869  0.51805  1.0000
  S   S379      1.0  0.21545  0.58775  0.56778  1.0000
  H   H2995     1.0  0.18157  0.63751  0.50972  1.0000
  H   H2996     1.0  0.08526  0.72595  0.53711  1.0000
  C   C1699     1.0  0.05484  0.52064  0.47827  1.0000
  H   H2997     1.0  0.48218  0.91501  0.39731  1.0000
  H   H2998     1.0  0.06510  0.97456  0.49104  1.0000
  Fe  Fe188     1.0  0.18637  0.60002  0.56868  1.0000
  H   H2999     1.0  0.15479  0.91581  0.54293  1.0000
  H   H3000     1.0  0.13275  0.98093  0.51304  1.0000
  C   C1700     1.0  0.09707  0.72487  0.52583  1.0000
  H   H3001     1.0  0.08358  0.69558  0.53766  1.0000
  C   C1701     1.0  0.00552  0.57903  0.50894  1.0000
  H   H3002     1.0  0.01444  0.84794  0.54806  1.0000
  H   H3003     1.0  0.01373  0.59821  0.56997  1.0000
  H   H3004     1.0  0.42844  0.57060  0.45183  1.0000
  C   C1702     1.0  0.06334  0.94337  0.51632  1.0000
  H   H3005     1.0  0.19452  0.80871  0.55004  1.0000
  C   C1703     1.0  0.03604  0.52046  0.47581  1.0000
  H   H3006     1.0  0.02624  0.54921  0.47308  1.0000
  H   H3007     1.0  0.03611  0.54190  0.45217  1.0000
  H   H3008     1.0  0.25324  0.61752  0.41904  1.0000
  S   S380      1.0  0.42032  0.95933  0.37928  1.0000
  H   H3009     1.0  0.12648  0.71655  0.52349  1.0000
  H   H3010     1.0  0.18044  0.55817  0.42257  1.0000
  H   H3011     1.0  0.24302  0.52636  0.54170  1.0000
  C   C1704     1.0  0.11419  0.71897  0.53388  1.0000
  H   H3012     1.0  0.39413  0.51199  0.54907  1.0000
  C   C1705     1.0  0.30589  0.59189  0.38962  1.0000
  C   C1706     1.0  0.15987  0.95602  0.55404  1.0000
  H   H3013     1.0  0.04791  0.82594  0.57244  1.0000
  H   H3014     1.0  0.02404  0.78404  0.56742  1.0000
  S   S381      1.0  0.99530  0.52282  0.52346  1.0000
  H   H3015     1.0  0.21051  0.50590  0.48886  1.0000
  H   H3016     1.0  0.17586  0.54294  0.39320  1.0000
  C   C1707     1.0  0.09053  0.66315  0.53015  1.0000
  H   H3017     1.0  0.13423  0.95181  0.50610  1.0000
  H   H3018     1.0  0.45049  0.54911  0.39236  1.0000
  H   H3019     1.0  0.06001  0.62457  0.57046  1.0000
  H   H3020     1.0  0.39784  0.51069  0.57100  1.0000
  H   H3021     1.0  0.14402  0.56446  0.56229  1.0000
  H   H3022     1.0  0.17502  0.97729  0.53944  1.0000
  H   H3023     1.0  0.00714  0.84122  0.53170  1.0000
  C   C1708     1.0  0.20048  0.53720  0.56024  1.0000
  H   H3024     1.0  0.10715  0.68927  0.53110  1.0000
  H   H3025     1.0  0.23053  0.49665  0.49788  1.0000
  S   S382      1.0  0.99928  0.84137  0.47172  1.0000
  H   H3026     1.0  0.28631  0.55718  0.54829  1.0000
  H   H3027     1.0  0.11766  0.74570  0.53295  1.0000
  H   H3028     1.0  0.32948  0.52454  0.52537  1.0000
  H   H3029     1.0  0.03298  0.97764  0.41549  1.0000
  H   H3030     1.0  0.19305  0.83683  0.55891  1.0000
  H   H3031     1.0  0.01152  0.97241  0.47556  1.0000
  H   H3032     1.0  0.19560  0.55262  0.52161  1.0000
  C   C1709     1.0  0.47996  0.92323  0.38408  1.0000
  H   H3033     1.0  0.44895  0.58094  0.43051  1.0000
  H   H3034     1.0  0.18139  0.58377  0.52479  1.0000
  C   C1710     1.0  0.20960  0.55401  0.52024  1.0000
  S   S383      1.0  0.25282  0.56046  0.39086  1.0000
  H   H3035     1.0  0.43041  0.60119  0.45368  1.0000
  H   H3036     1.0  0.18988  0.54867  0.55610  1.0000
  Fe  Fe189     1.0  0.11708  0.48714  0.39465  1.0000
  H   H3037     1.0  0.17370  0.86741  0.55040  1.0000
  H   H3038     1.0  0.16772  0.89310  0.56716  1.0000
  H   H3039     1.0  0.15046  0.86740  0.55659  1.0000
  C   C1711     1.0  0.20908  0.52714  0.54477  1.0000
  H   H3040     1.0  0.19793  0.58892  0.50456  1.0000
  H   H3041     1.0  0.32498  0.59094  0.44415  1.0000
  C   C1712     1.0  0.16167  0.86987  0.56115  1.0000
  H   H3042     1.0  0.12773  0.72829  0.54926  1.0000
  H   H3043     1.0  0.37066  0.53567  0.57528  1.0000
  C   C1713     1.0  0.11964  0.82431  0.56909  1.0000
  C   C1714     1.0  0.47451  0.58811  0.42124  1.0000
  N   N95       1.0  0.15690  0.96070  0.57206  1.0000
  C   C1715     1.0  0.15784  0.89009  0.56125  1.0000
  S   S384      1.0  0.05104  0.68263  0.56732  1.0000
  H   H3044     1.0  0.12980  0.97436  0.57058  1.0000
  H   H3045     1.0  0.36720  0.50068  0.56754  1.0000
  S   S385      1.0  0.17818  0.66568  0.56620  1.0000
  H   H3046     1.0  0.25464  0.62359  0.38318  1.0000
  H   H3047     1.0  0.00312  0.63535  0.56604  1.0000
  H   H3048     1.0  0.09225  0.49263  0.49118  1.0000
  C   C1716     1.0  0.14219  0.97717  0.57258  1.0000
  H   H3049     1.0  0.05468  0.48442  0.47881  1.0000
  C   C1717     1.0  0.45801  0.87096  0.38046  1.0000
  C   C1718     1.0  0.20748  0.60629  0.38217  1.0000
  C   C1719     1.0  0.36164  0.51182  0.57491  1.0000
  H   H3050     1.0  0.01853  0.65462  0.57436  1.0000
  H   H3051     1.0  0.99580  0.87985  0.52357  1.0000
  H   H3052     1.0  0.99044  0.52644  0.56042  1.0000
  H   H3053     1.0  0.14520  0.57177  0.37935  1.0000
  H   H3054     1.0  0.00911  0.53742  0.57466  1.0000
  H   H3055     1.0  0.07705  0.48317  0.51917  1.0000
  H   H3056     1.0  0.16036  0.92240  0.57348  1.0000
  H   H3057     1.0  0.11082  0.77802  0.57287  1.0000
  H   H3058     1.0  0.14416  0.89445  0.56894  1.0000
  H   H3059     1.0  0.99331  0.67408  0.53591  1.0000
  S   S386      1.0  0.08492  0.70564  0.57538  1.0000
  C   C1720     1.0  0.17420  0.96413  0.57403  1.0000
  Fe  Fe190     1.0  0.05660  0.70622  0.57411  1.0000
  Fe  Fe191     1.0  0.01903  0.72796  0.57259  1.0000
  H   H3060     1.0  0.46916  0.77844  0.37846  1.0000
  H   H3061     1.0  0.18922  0.80546  0.57404  1.0000
  S   S387      1.0  0.00150  0.75499  0.57402  1.0000
  C   C1721     1.0  0.31456  0.62080  0.37946  1.0000
  C   C1722     1.0  0.25905  0.58070  0.37935  1.0000
  H   H3062     1.0  0.34001  0.49021  0.57680  1.0000
  C   C1723     1.0  0.19142  0.52525  0.57664  1.0000
  Fe  Fe192     1.0  0.41809  0.64158  0.73884  1.0000
  S   S388      1.0  0.39454  0.65123  0.75908  1.0000
  S   S389      1.0  0.44483  0.64834  0.73632  1.0000
  Fe  Fe193     1.0  0.39545  0.62621  0.72269  1.0000
  S   S390      1.0  0.37000  0.63560  0.74139  1.0000
  S   S391      1.0  0.39766  0.60759  0.70438  1.0000
  Fe  Fe194     1.0  0.38013  0.66087  0.73653  1.0000
  S   S392      1.0  0.36563  0.68974  0.73292  1.0000
  Fe  Fe195     1.0  0.38692  0.62514  0.76215  1.0000
  H   H3063     1.0  0.41994  0.56878  0.75272  1.0000
  S   S393      1.0  0.40415  0.65249  0.71575  1.0000
  S   S394      1.0  0.41192  0.61442  0.74392  1.0000
  H   H3064     1.0  0.38860  0.60042  0.64012  1.0000
  H   H3065     1.0  0.20271  0.61998  0.64714  1.0000
  H   H3066     1.0  0.38130  0.75815  0.76053  1.0000
  H   H3067     1.0  0.39010  0.64597  0.61666  1.0000
  H   H3068     1.0  0.21894  0.63870  0.62239  1.0000
  H   H3069     1.0  0.01288  0.60453  0.62606  1.0000
  C   C1724     1.0  0.45769  0.48547  0.77126  1.0000
  C   C1725     1.0  0.16187  0.92662  0.58521  1.0000
  C   C1726     1.0  0.14837  0.85077  0.61188  1.0000
  H   H3070     1.0  0.19250  0.98132  0.58897  1.0000
  H   H3071     1.0  0.47186  0.66341  0.74174  1.0000
  H   H3072     1.0  0.11988  0.59171  0.62144  1.0000
  H   H3073     1.0  0.02009  0.58113  0.65231  1.0000
  C   C1727     1.0  0.25834  0.60177  0.58899  1.0000
  S   S395      1.0  0.03150  0.71007  0.59505  1.0000
  S   S396      1.0  0.22791  0.59183  0.61062  1.0000
  H   H3074     1.0  0.14124  0.68176  0.63338  1.0000
  H   H3075     1.0  0.22755  0.66177  0.57835  1.0000
  H   H3076     1.0  0.42351  0.53003  0.74666  1.0000
  S   S397      1.0  0.18410  0.61440  0.59048  1.0000
  H   H3077     1.0  0.17583  0.68647  0.76361  1.0000
  H   H3078     1.0  0.21949  0.61603  0.66021  1.0000
  C   C1728     1.0  0.08754  0.71545  0.59190  1.0000
  H   H3079     1.0  0.02012  0.61256  0.59721  1.0000
  H   H3080     1.0  0.40781  0.58018  0.62009  1.0000
  S   S398      1.0  0.09096  0.88687  0.61043  1.0000
  H   H3081     1.0  0.27580  0.63424  0.61040  1.0000
  C   C1729     1.0  0.40615  0.49787  0.62041  1.0000
  H   H3082     1.0  0.18494  0.53304  0.58727  1.0000
  H   H3083     1.0  0.10758  0.60413  0.60432  1.0000
  H   H3084     1.0  0.48494  0.63665  0.72693  1.0000
  H   H3085     1.0  0.15157  0.70971  0.75487  1.0000
  Fe  Fe196     1.0  0.16122  0.72552  0.63307  1.0000
  S   S399      1.0  0.13803  0.72165  0.65606  1.0000
  S   S400      1.0  0.18203  0.70071  0.62812  1.0000
  Fe  Fe197     1.0  0.14867  0.76578  0.62510  1.0000
  S   S401      1.0  0.12450  0.76472  0.64711  1.0000
  H   H3086     1.0  0.11162  0.63456  0.58931  1.0000
  Fe  Fe198     1.0  0.14313  0.74522  0.66346  1.0000
  S   S402      1.0  0.13980  0.74886  0.69171  1.0000
  Fe  Fe199     1.0  0.12184  0.74153  0.63742  1.0000
  S   S403      1.0  0.09426  0.74001  0.63553  1.0000
  S   S404      1.0  0.16768  0.74753  0.64197  1.0000
  S   S405      1.0  0.14463  0.74415  0.61388  1.0000
  Fe  Fe200     1.0  0.34491  0.59911  0.63800  1.0000
  S   S406      1.0  0.32273  0.58456  0.64187  1.0000
  S   S407      1.0  0.34307  0.61975  0.65399  1.0000
  Fe  Fe201     1.0  0.36743  0.58155  0.60674  1.0000
  S   S408      1.0  0.34735  0.56560  0.60837  1.0000
  C   C1730     1.0  0.13049  0.85575  0.62445  1.0000
  Fe  Fe202     1.0  0.32706  0.59086  0.61194  1.0000
  H   H3087     1.0  0.14029  0.92730  0.76415  1.0000
  Fe  Fe203     1.0  0.34522  0.56079  0.63790  1.0000
  S   S409      1.0  0.34559  0.53307  0.65467  1.0000
  S   S410      1.0  0.34755  0.60726  0.60826  1.0000
  S   S411      1.0  0.36692  0.57505  0.63608  1.0000
  Fe  Fe204     1.0  0.22311  0.80325  0.74039  1.0000
  S   S412      1.0  0.20224  0.81686  0.76034  1.0000
  S   S413      1.0  0.24924  0.81154  0.72680  1.0000
  Fe  Fe205     1.0  0.19987  0.77869  0.73872  1.0000
  S   S414      1.0  0.17687  0.78959  0.75922  1.0000
  S   S415      1.0  0.20249  0.75885  0.72160  1.0000
  Fe  Fe206     1.0  0.18277  0.81640  0.74445  1.0000
  S   S416      1.0  0.16010  0.83977  0.73972  1.0000
  H   H3088     1.0  0.10344  0.67812  0.59927  1.0000
  S   S417      1.0  0.20402  0.80555  0.72290  1.0000
  S   S418      1.0  0.22062  0.77551  0.75488  1.0000
  Fe  Fe207     1.0  0.16049  0.91876  0.66416  1.0000
  S   S419      1.0  0.13058  0.92424  0.67284  1.0000
  S   S420      1.0  0.17912  0.89203  0.66625  1.0000
  Fe  Fe208     1.0  0.16199  0.95806  0.65237  1.0000
  H   H3089     1.0  0.16783  0.82838  0.58823  1.0000
  Fe  Fe209     1.0  0.13475  0.94549  0.68467  1.0000
  S   S421      1.0  0.12361  0.94674  0.71364  1.0000
  Fe  Fe210     1.0  0.13101  0.94507  0.64748  1.0000
  S   S422      1.0  0.11475  0.95083  0.62628  1.0000
  S   S423      1.0  0.16468  0.93826  0.67777  1.0000
  S   S424      1.0  0.16068  0.93780  0.63792  1.0000
  H   H3090     1.0  0.13621  0.68793  0.71790  1.0000
  S   S425      1.0  0.41949  0.49864  0.67856  1.0000
  H   H3091     1.0  0.44217  0.54732  0.73271  1.0000
  H   H3092     1.0  0.10183  0.75816  0.57759  1.0000
  H   H3093     1.0  0.14355  0.88785  0.74197  1.0000
  H   H3094     1.0  0.11750  0.67850  0.62009  1.0000
  C   C1731     1.0  0.22325  0.63566  0.63530  1.0000
  H   H3095     1.0  0.33204  0.50073  0.61365  1.0000
  H   H3096     1.0  0.10273  0.94744  0.59637  1.0000
  C   C1732     1.0  0.16589  0.85526  0.72017  1.0000
  C   C1733     1.0  0.18338  0.85315  0.71012  1.0000
  C   C1734     1.0  0.18746  0.86467  0.69365  1.0000
  C   C1735     1.0  0.17420  0.87870  0.68750  1.0000
  C   C1736     1.0  0.15691  0.88138  0.69800  1.0000
  C   C1737     1.0  0.15269  0.86949  0.71418  1.0000
  H   H3097     1.0  0.19378  0.84262  0.71493  1.0000
  H   H3098     1.0  0.20092  0.86272  0.68569  1.0000
  H   H3099     1.0  0.14660  0.89218  0.69338  1.0000
  H   H3100     1.0  0.13910  0.87110  0.72185  1.0000
  C   C1738     1.0  0.36589  0.52402  0.66203  1.0000
  C   C1739     1.0  0.38150  0.52989  0.65230  1.0000
  C   C1740     1.0  0.39776  0.52248  0.65788  1.0000
  C   C1741     1.0  0.39861  0.50883  0.67302  1.0000
  C   C1742     1.0  0.38304  0.50288  0.68287  1.0000
  C   C1743     1.0  0.36668  0.51046  0.67734  1.0000
  H   H3101     1.0  0.38123  0.53967  0.64007  1.0000
  H   H3102     1.0  0.40982  0.52689  0.65009  1.0000
  H   H3103     1.0  0.44334  0.58721  0.72217  1.0000
  H   H3104     1.0  0.16373  0.96288  0.69911  1.0000
  H   H3105     1.0  0.43193  0.48447  0.64033  1.0000
  C   C1744     1.0  0.15706  0.75455  0.69814  1.0000
  C   C1745     1.0  0.17472  0.75173  0.68850  1.0000
  C   C1746     1.0  0.18852  0.75424  0.69525  1.0000
  C   C1747     1.0  0.18472  0.75982  0.71150  1.0000
  C   C1748     1.0  0.16693  0.76391  0.72044  1.0000
  C   C1749     1.0  0.15318  0.76103  0.71390  1.0000
  H   H3106     1.0  0.17787  0.74679  0.67631  1.0000
  H   H3107     1.0  0.20226  0.75121  0.68819  1.0000
  H   H3108     1.0  0.16389  0.76836  0.73289  1.0000
  H   H3109     1.0  0.13953  0.76334  0.72135  1.0000
  C   C1750     1.0  0.09213  0.73011  0.61886  1.0000
  C   C1751     1.0  0.07492  0.73049  0.61678  1.0000
  H   H3110     1.0  0.35231  0.48839  0.75955  1.0000
  S   S426      1.0  0.31476  0.80239  0.76271  1.0000
  H   H3111     1.0  0.09701  0.66424  0.58897  1.0000
  C   C1752     1.0  0.10709  0.72238  0.60737  1.0000
  H   H3112     1.0  0.06330  0.73642  0.62560  1.0000
  H   H3113     1.0  0.13378  0.66116  0.64399  1.0000
  H   H3114     1.0  0.23258  0.68815  0.62131  1.0000
  H   H3115     1.0  0.12041  0.72200  0.60888  1.0000
  H   H3116     1.0  0.20624  0.96046  0.58359  1.0000
  N   N96       1.0  0.17593  0.70120  0.73638  1.0000
  H   H3117     1.0  0.12495  0.64504  0.62531  1.0000
  C   C1753     1.0  0.13133  0.67095  0.61616  1.0000
  H   H3118     1.0  0.41202  0.58072  0.73301  1.0000
  H   H3119     1.0  0.43154  0.60942  0.60804  1.0000
  C   C1754     1.0  0.45234  0.49871  0.74151  1.0000
  N   N97       1.0  0.12219  0.65318  0.59759  1.0000
  H   H3120     1.0  0.11035  0.84427  0.58526  1.0000
  C   C1755     1.0  0.07263  0.72327  0.60331  1.0000
  C   C1756     1.0  0.11692  0.96810  0.73768  1.0000
  C   C1757     1.0  0.05754  0.63210  0.58113  1.0000
  C   C1758     1.0  0.09805  0.90457  0.61445  1.0000
  C   C1759     1.0  0.10352  0.90253  0.63048  1.0000
  C   C1760     1.0  0.10914  0.91647  0.63404  1.0000
  C   C1761     1.0  0.10874  0.93275  0.62181  1.0000
  C   C1762     1.0  0.10321  0.93482  0.60580  1.0000
  C   C1763     1.0  0.09814  0.92067  0.60200  1.0000
  H   H3121     1.0  0.10318  0.89021  0.64029  1.0000
  H   H3122     1.0  0.11324  0.91482  0.64647  1.0000
  S   S427      1.0  0.18200  0.97543  0.63911  1.0000
  H   H3123     1.0  0.16391  0.71193  0.70319  1.0000
  H   H3124     1.0  0.04113  0.58105  0.62288  1.0000
  C   C1764     1.0  0.14568  0.69485  0.70710  1.0000
  C   C1765     1.0  0.25050  0.59359  0.60596  1.0000
  H   H3125     1.0  0.27584  0.64340  0.64591  1.0000
  C   C1766     1.0  0.39818  0.52469  0.76329  1.0000
  C   C1767     1.0  0.28579  0.59877  0.59895  1.0000
  C   C1768     1.0  0.27827  0.59005  0.61590  1.0000
  C   C1769     1.0  0.26056  0.58752  0.61942  1.0000
  C   C1770     1.0  0.03296  0.60431  0.59151  1.0000
  C   C1771     1.0  0.99780  0.63998  0.57841  1.0000
  H   H3126     1.0  0.28599  0.58542  0.62628  1.0000
  H   H3127     1.0  0.25459  0.58106  0.63259  1.0000
  H   H3128     1.0  0.36888  0.65518  0.64960  1.0000
  Fe  Fe211     1.0  0.21393  0.60414  0.58745  1.0000
  C   C1772     1.0  0.17041  0.70053  0.59819  1.0000
  C   C1773     1.0  0.18025  0.69092  0.61121  1.0000
  C   C1774     1.0  0.18918  0.67326  0.61061  1.0000
  C   C1775     1.0  0.18847  0.66528  0.59697  1.0000
  H   H3129     1.0  0.15102  0.95912  0.75253  1.0000
  H   H3130     1.0  0.05931  0.72368  0.60186  1.0000
  H   H3131     1.0  0.19648  0.66572  0.62085  1.0000
  H   H3132     1.0  0.19767  0.96239  0.60647  1.0000
  C   C1776     1.0  0.02941  0.58624  0.59074  1.0000
  H   H3133     1.0  0.23656  0.69418  0.64933  1.0000
  C   C1777     1.0  0.39948  0.55393  0.72725  1.0000
  H   H3134     1.0  0.28532  0.76095  0.76464  1.0000
  H   H3135     1.0  0.37712  0.55536  0.75941  1.0000
  H   H3136     1.0  0.19927  0.83295  0.58611  1.0000
  H   H3137     1.0  0.46175  0.56872  0.71833  1.0000
  C   C1778     1.0  0.29567  0.80490  0.75404  1.0000
  C   C1779     1.0  0.29591  0.81411  0.73643  1.0000
  C   C1780     1.0  0.28146  0.81610  0.72849  1.0000
  C   C1781     1.0  0.26642  0.80916  0.73812  1.0000
  C   C1782     1.0  0.26587  0.80015  0.75594  1.0000
  H   H3138     1.0  0.19938  0.66734  0.73373  1.0000
  H   H3139     1.0  0.30746  0.81959  0.72878  1.0000
  H   H3140     1.0  0.28196  0.82309  0.71476  1.0000
  C   C1783     1.0  0.21403  0.70945  0.69430  1.0000
  H   H3141     1.0  0.45190  0.50992  0.73033  1.0000
  C   C1784     1.0  0.40724  0.54112  0.69926  1.0000
  H   H3142     1.0  0.09857  0.57003  0.58807  1.0000
  H   H3143     1.0  0.37960  0.51599  0.62359  1.0000
  C   C1785     1.0  0.09654  0.81920  0.64335  1.0000
  C   C1786     1.0  0.44882  0.57293  0.72732  1.0000
  H   H3144     1.0  0.45992  0.69507  0.76901  1.0000
  H   H3145     1.0  0.18009  0.96026  0.71229  1.0000
  C   C1787     1.0  0.35592  0.69702  0.75312  1.0000
  C   C1788     1.0  0.35329  0.71511  0.75357  1.0000
  H   H3146     1.0  0.13659  0.94514  0.58538  1.0000
  H   H3147     1.0  0.38963  0.52517  0.75397  1.0000
  C   C1789     1.0  0.39765  0.61477  0.60463  1.0000
  H   H3148     1.0  0.26458  0.64387  0.58690  1.0000
  H   H3149     1.0  0.35745  0.72447  0.74151  1.0000
  H   H3150     1.0  0.16179  0.74452  0.77254  1.0000
  H   H3151     1.0  0.35245  0.67100  0.76848  1.0000
  C   C1790     1.0  0.44821  0.48279  0.74046  1.0000
  C   C1791     1.0  0.38086  0.61042  0.69231  1.0000
  C   C1792     1.0  0.36809  0.62630  0.69000  1.0000
  C   C1793     1.0  0.35606  0.62874  0.67876  1.0000
  C   C1794     1.0  0.35665  0.61530  0.66989  1.0000
  C   C1795     1.0  0.36868  0.59902  0.67313  1.0000
  C   C1796     1.0  0.38094  0.59671  0.68404  1.0000
  H   H3152     1.0  0.36787  0.63693  0.69637  1.0000
  H   H3153     1.0  0.34660  0.64127  0.67658  1.0000
  H   H3154     1.0  0.36885  0.58834  0.66690  1.0000
  H   H3155     1.0  0.39065  0.58432  0.68590  1.0000
  C   C1797     1.0  0.14805  0.86164  0.59268  1.0000
  C   C1798     1.0  0.20342  0.69821  0.71012  1.0000
  H   H3156     1.0  0.03268  0.76296  0.64273  1.0000
  H   H3157     1.0  0.13316  0.67592  0.58072  1.0000
  H   H3158     1.0  0.20069  0.88839  0.71348  1.0000
  C   C1799     1.0  0.33416  0.50036  0.58535  1.0000
  H   H3159     1.0  0.45143  0.57134  0.74083  1.0000
  C   C1800     1.0  0.20475  0.84800  0.60228  1.0000
  H   H3160     1.0  0.21567  0.66201  0.75831  1.0000
  H   H3161     1.0  0.15526  0.94662  0.77401  1.0000
  C   C1801     1.0  0.44988  0.65047  0.75590  1.0000
  C   C1802     1.0  0.46447  0.65805  0.75470  1.0000
  H   H3162     1.0  0.40933  0.50317  0.63066  1.0000
  H   H3163     1.0  0.37469  0.49043  0.64074  1.0000
  H   H3164     1.0  0.17980  0.89025  0.77506  1.0000
  H   H3165     1.0  0.39044  0.56419  0.76871  1.0000
  C   C1803     1.0  0.17892  0.67507  0.58374  1.0000
  H   H3166     1.0  0.35342  0.60208  0.75377  1.0000
  H   H3167     1.0  0.24413  0.77922  0.71898  1.0000
  H   H3168     1.0  0.30870  0.54399  0.58020  1.0000
  H   H3169     1.0  0.05100  0.82017  0.61023  1.0000
  H   H3170     1.0  0.05564  0.80272  0.59851  1.0000
  H   H3171     1.0  0.20364  0.90896  0.71736  1.0000
  C   C1804     1.0  0.37805  0.58275  0.74794  1.0000
  H   H3172     1.0  0.19713  0.90881  0.69719  1.0000
  C   C1805     1.0  0.40767  0.50535  0.76876  1.0000
  H   H3173     1.0  0.14173  0.91195  0.60239  1.0000
  N   N98       1.0  0.40417  0.55523  0.74415  1.0000
  C   C1806     1.0  0.11833  0.83113  0.58408  1.0000
  H   H3174     1.0  0.05936  0.56580  0.60092  1.0000
  C   C1807     1.0  0.15484  0.70522  0.71461  1.0000
  H   H3175     1.0  0.05230  0.76936  0.57864  1.0000
  H   H3176     1.0  0.14146  0.91020  0.72946  1.0000
  C   C1808     1.0  0.24514  0.65908  0.60603  1.0000
  C   C1809     1.0  0.38903  0.63139  0.59194  1.0000
  C   C1810     1.0  0.02114  0.59513  0.65105  1.0000
  C   C1811     1.0  0.27569  0.60474  0.58567  1.0000
  C   C1812     1.0  0.10835  0.90470  0.74187  1.0000
  S   S428      1.0  0.13228  0.96704  0.66009  1.0000
  C   C1813     1.0  0.17272  0.89844  0.74091  1.0000
  C   C1814     1.0  0.15037  0.94556  0.58616  1.0000
  H   H3177     1.0  0.08378  0.82433  0.65210  1.0000
  H   H3178     1.0  0.13590  0.86036  0.58880  1.0000
  H   H3179     1.0  0.39298  0.54107  0.70019  1.0000
  H   H3180     1.0  0.42773  0.72652  0.76878  1.0000
  H   H3181     1.0  0.38629  0.50843  0.60299  1.0000
  H   H3182     1.0  0.03212  0.59521  0.65740  1.0000
  C   C1815     1.0  0.12081  0.90683  0.75275  1.0000
  C   C1816     1.0  0.16285  0.71540  0.74549  1.0000
  N   N99       1.0  0.25125  0.64996  0.62331  1.0000
  H   H3183     1.0  0.11725  0.95590  0.74767  1.0000
  C   C1817     1.0  0.25282  0.76803  0.71285  1.0000
  C   C1818     1.0  0.48884  0.62321  0.72359  1.0000
  H   H3184     1.0  0.09421  0.90840  0.74878  1.0000
  C   C1819     1.0  0.30825  0.55056  0.60475  1.0000
  H   H3185     1.0  0.13845  0.67929  0.60442  1.0000
  C   C1820     1.0  0.08750  0.77693  0.59470  1.0000
  H   H3186     1.0  0.30051  0.71179  0.75884  1.0000
  H   H3187     1.0  0.47649  0.60017  0.75492  1.0000
  H   H3188     1.0  0.19711  0.71621  0.72787  1.0000
  H   H3189     1.0  0.08531  0.62531  0.58441  1.0000
  C   C1821     1.0  0.16727  0.93211  0.75251  1.0000
  C   C1822     1.0  0.41748  0.56714  0.74005  1.0000
  C   C1823     1.0  0.13124  0.65263  0.61243  1.0000
  C   C1824     1.0  0.00667  0.65071  0.58322  1.0000
  H   H3190     1.0  0.41573  0.53003  0.69284  1.0000
  C   C1825     1.0  0.10479  0.71509  0.59389  1.0000
  C   C1826     1.0  0.39099  0.63363  0.62713  1.0000
  C   C1827     1.0  0.07493  0.63731  0.58100  1.0000
  H   H3191     1.0  0.11017  0.91352  0.72843  1.0000
  H   H3192     1.0  0.37985  0.69445  0.77638  1.0000
  H   H3193     1.0  0.42561  0.53776  0.71612  1.0000
  H   H3194     1.0  0.13174  0.59748  0.59879  1.0000
  H   H3195     1.0  0.11063  0.62338  0.62367  1.0000
  H   H3196     1.0  0.17389  0.68158  0.72253  1.0000
  H   H3197     1.0  0.41840  0.49697  0.60959  1.0000
  N   N100      1.0  0.04734  0.60329  0.60129  1.0000
  C   C1828     1.0  0.04229  0.59510  0.62087  1.0000
  C   C1829     1.0  0.06523  0.59307  0.59283  1.0000
  C   C1830     1.0  0.04915  0.62216  0.59994  1.0000
  H   H3198     1.0  0.18268  0.83561  0.60573  1.0000
  H   H3199     1.0  0.33969  0.54351  0.58073  1.0000
  C   C1831     1.0  0.02449  0.60460  0.63146  1.0000
  H   H3200     1.0  0.19541  0.65165  0.59660  1.0000
  C   C1832     1.0  0.07013  0.57267  0.60027  1.0000
  H   H3201     1.0  0.15576  0.68493  0.70007  1.0000
  H   H3202     1.0  0.45978  0.71816  0.76755  1.0000
  H   H3203     1.0  0.05321  0.59458  0.62765  1.0000
  C   C1833     1.0  0.10478  0.76796  0.58369  1.0000
  H   H3204     1.0  0.09952  0.79869  0.59460  1.0000
  H   H3205     1.0  0.05683  0.62245  0.60982  1.0000
  H   H3206     1.0  0.03580  0.63071  0.60386  1.0000
  H   H3207     1.0  0.41743  0.64985  0.60561  1.0000
  H   H3208     1.0  0.17989  0.66185  0.74964  1.0000
  H   H3209     1.0  0.15632  0.96654  0.72143  1.0000
  H   H3210     1.0  0.28500  0.72697  0.73453  1.0000
  H   H3211     1.0  0.02474  0.61861  0.63116  1.0000
  C   C1834     1.0  0.33731  0.49126  0.60445  1.0000
  C   C1835     1.0  0.22976  0.67842  0.63406  1.0000
  H   H3212     1.0  0.00067  0.59422  0.59251  1.0000
  H   H3213     1.0  0.30732  0.52576  0.59942  1.0000
  H   H3214     1.0  0.18361  0.90023  0.74630  1.0000
  H   H3215     1.0  0.14544  0.64530  0.60957  1.0000
  C   C1836     1.0  0.19557  0.90305  0.71172  1.0000
  H   H3216     1.0  0.18016  0.73268  0.74681  1.0000
  H   H3217     1.0  0.15493  0.66105  0.62812  1.0000
  H   H3218     1.0  0.37383  0.48886  0.76309  1.0000
  H   H3219     1.0  0.02718  0.57747  0.60411  1.0000
  C   C1837     1.0  0.38318  0.65582  0.64745  1.0000
  S   S429      1.0  0.30755  0.60292  0.59354  1.0000
  H   H3220     1.0  0.04090  0.57928  0.58191  1.0000
  C   C1838     1.0  0.16983  0.69266  0.58443  1.0000
  C   C1839     1.0  0.39535  0.63838  0.64314  1.0000
  H   H3221     1.0  0.05969  0.79576  0.64183  1.0000
  C   C1840     1.0  0.24990  0.64782  0.59147  1.0000
  C   C1841     1.0  0.41248  0.56846  0.64655  1.0000
  H   H3222     1.0  0.39771  0.49712  0.77649  1.0000
  H   H3223     1.0  0.40775  0.60310  0.64625  1.0000
  H   H3224     1.0  0.41046  0.55384  0.69068  1.0000
  H   H3225     1.0  0.39325  0.62781  0.65525  1.0000
  H   H3226     1.0  0.40936  0.64009  0.64035  1.0000
  H   H3227     1.0  0.25320  0.77187  0.69829  1.0000
  H   H3228     1.0  0.42825  0.61923  0.62654  1.0000
  H   H3229     1.0  0.38552  0.65812  0.65984  1.0000
  C   C1842     1.0  0.15102  0.92447  0.75240  1.0000
  H   H3230     1.0  0.41865  0.57085  0.65660  1.0000
  H   H3231     1.0  0.39842  0.56727  0.65272  1.0000
  H   H3232     1.0  0.41993  0.55561  0.64272  1.0000
  N   N101      1.0  0.07498  0.80055  0.61454  1.0000
  C   C1843     1.0  0.06213  0.81139  0.60266  1.0000
  C   C1844     1.0  0.06569  0.78862  0.63057  1.0000
  C   C1845     1.0  0.08115  0.81356  0.62146  1.0000
  C   C1846     1.0  0.09122  0.78973  0.60447  1.0000
  H   H3233     1.0  0.12689  0.82649  0.60882  1.0000
  C   C1847     1.0  0.38743  0.56363  0.75590  1.0000
  C   C1848     1.0  0.09406  0.80516  0.63461  1.0000
  C   C1849     1.0  0.05007  0.78147  0.62821  1.0000
  H   H3234     1.0  0.22476  0.70057  0.68659  1.0000
  C   C1850     1.0  0.15574  0.91282  0.60163  1.0000
  H   H3235     1.0  0.41686  0.53910  0.76588  1.0000
  H   H3236     1.0  0.07561  0.77691  0.63583  1.0000
  H   H3237     1.0  0.08840  0.82251  0.61042  1.0000
  H   H3238     1.0  0.40320  0.53469  0.61252  1.0000
  H   H3239     1.0  0.10011  0.78128  0.61365  1.0000
  H   H3240     1.0  0.14893  0.94771  0.59977  1.0000
  H   H3241     1.0  0.08167  0.76621  0.60455  1.0000
  Fe  Fe212     1.0  0.02478  0.68813  0.58637  1.0000
  H   H3242     1.0  0.14553  0.93295  0.74065  1.0000
  H   H3243     1.0  0.10742  0.79938  0.62729  1.0000
  C   C1851     1.0  0.42645  0.63782  0.60127  1.0000
  C   C1852     1.0  0.41163  0.53730  0.75480  1.0000
  H   H3244     1.0  0.05389  0.77489  0.61666  1.0000
  C   C1853     1.0  0.19457  0.96655  0.59294  1.0000
  H   H3245     1.0  0.47910  0.62020  0.75873  1.0000
  H   H3246     1.0  0.06632  0.59501  0.57819  1.0000
  H   H3247     1.0  0.31958  0.72142  0.74815  1.0000
  C   C1854     1.0  0.45175  0.70761  0.77300  1.0000
  H   H3248     1.0  0.19721  0.69039  0.70458  1.0000
  C   C1855     1.0  0.10333  0.66396  0.60008  1.0000
  C   C1856     1.0  0.09031  0.65756  0.61742  1.0000
  C   C1857     1.0  0.07243  0.67094  0.61929  1.0000
  C   C1858     1.0  0.07027  0.82314  0.58501  1.0000
  H   H3249     1.0  0.15868  0.85397  0.61704  1.0000
  H   H3250     1.0  0.09577  0.65601  0.62940  1.0000
  H   H3251     1.0  0.08747  0.64467  0.61708  1.0000
  H   H3252     1.0  0.06631  0.67311  0.60755  1.0000
  H   H3253     1.0  0.06299  0.66583  0.63144  1.0000
  H   H3254     1.0  0.07437  0.68395  0.62051  1.0000
  H   H3255     1.0  0.21240  0.83587  0.60979  1.0000
  C   C1859     1.0  0.30845  0.71704  0.74568  1.0000
  N   N102      1.0  0.16215  0.82662  0.67935  1.0000
  C   C1860     1.0  0.15733  0.81824  0.69890  1.0000
  C   C1861     1.0  0.18214  0.82554  0.67427  1.0000
  C   C1862     1.0  0.15320  0.84616  0.67693  1.0000
  C   C1863     1.0  0.15607  0.81837  0.66731  1.0000
  C   C1864     1.0  0.15538  0.79830  0.67332  1.0000
  C   C1865     1.0  0.13710  0.82182  0.70752  1.0000
  C   C1866     1.0  0.15846  0.85785  0.65817  1.0000
  C   C1867     1.0  0.19417  0.80660  0.67646  1.0000
  C   C1868     1.0  0.21391  0.80755  0.67283  1.0000
  C   C1869     1.0  0.15257  0.79132  0.65819  1.0000
  C   C1870     1.0  0.13325  0.80961  0.72581  1.0000
  C   C1871     1.0  0.14501  0.87559  0.65540  1.0000
  H   H3256     1.0  0.16413  0.82319  0.70683  1.0000
  H   H3257     1.0  0.16241  0.80359  0.70141  1.0000
  H   H3258     1.0  0.18622  0.83197  0.66005  1.0000
  H   H3259     1.0  0.18601  0.83319  0.68219  1.0000
  H   H3260     1.0  0.15606  0.85225  0.68675  1.0000
  H   H3261     1.0  0.13839  0.84775  0.67980  1.0000
  H   H3262     1.0  0.14228  0.82530  0.66542  1.0000
  H   H3263     1.0  0.16466  0.82037  0.65369  1.0000
  H   H3264     1.0  0.14407  0.79620  0.68479  1.0000
  H   H3265     1.0  0.16775  0.79005  0.67750  1.0000
  H   H3266     1.0  0.13263  0.83578  0.70957  1.0000
  H   H3267     1.0  0.12898  0.81986  0.69892  1.0000
  H   H3268     1.0  0.15913  0.85093  0.64748  1.0000
  H   H3269     1.0  0.17180  0.86092  0.65659  1.0000
  H   H3270     1.0  0.19092  0.79860  0.69012  1.0000
  H   H3271     1.0  0.19280  0.79951  0.66666  1.0000
  H   H3272     1.0  0.21831  0.81455  0.65890  1.0000
  H   H3273     1.0  0.21622  0.81468  0.68216  1.0000
  H   H3274     1.0  0.22221  0.79382  0.67483  1.0000
  H   H3275     1.0  0.16414  0.79205  0.64674  1.0000
  H   H3276     1.0  0.15135  0.77719  0.66291  1.0000
  H   H3277     1.0  0.14013  0.79908  0.65359  1.0000
  H   H3278     1.0  0.13640  0.79547  0.72450  1.0000
  H   H3279     1.0  0.14133  0.81116  0.73470  1.0000
  H   H3280     1.0  0.11886  0.81316  0.73205  1.0000
  H   H3281     1.0  0.14386  0.88308  0.66584  1.0000
  H   H3282     1.0  0.14957  0.88394  0.64220  1.0000
  H   H3283     1.0  0.13159  0.87332  0.65586  1.0000
  C   C1872     1.0  0.04372  0.76798  0.64481  1.0000
  H   H3284     1.0  0.03844  0.79265  0.62621  1.0000
  C   C1873     1.0  0.27144  0.64430  0.61902  1.0000
  C   C1874     1.0  0.24377  0.63341  0.63215  1.0000
  H   H3285     1.0  0.35466  0.50581  0.68491  1.0000
  C   C1875     1.0  0.28049  0.63547  0.63531  1.0000
  C   C1876     1.0  0.31642  0.70148  0.73604  1.0000
  H   H3286     1.0  0.24413  0.63567  0.59650  1.0000
  C   C1877     1.0  0.21721  0.61860  0.64644  1.0000
  C   C1878     1.0  0.30083  0.63328  0.62977  1.0000
  H   H3287     1.0  0.39064  0.48700  0.65381  1.0000
  H   H3288     1.0  0.10684  0.81314  0.65162  1.0000
  C   C1879     1.0  0.17582  0.90716  0.72072  1.0000
  H   H3289     1.0  0.03874  0.77429  0.65664  1.0000
  H   H3290     1.0  0.24992  0.62277  0.62428  1.0000
  H   H3291     1.0  0.24750  0.62769  0.64538  1.0000
  H   H3292     1.0  0.25098  0.60607  0.57842  1.0000
  H   H3293     1.0  0.27756  0.62194  0.64115  1.0000
  H   H3294     1.0  0.42495  0.63742  0.58786  1.0000
  C   C1880     1.0  0.48679  0.60693  0.75604  1.0000
  H   H3295     1.0  0.38685  0.54031  0.59876  1.0000
  H   H3296     1.0  0.17505  0.88374  0.74186  1.0000
  H   H3297     1.0  0.11455  0.76069  0.59230  1.0000
  H   H3298     1.0  0.21626  0.64630  0.64281  1.0000
  H   H3299     1.0  0.05482  0.75641  0.64750  1.0000
  H   H3300     1.0  0.22464  0.60695  0.64040  1.0000
  H   H3301     1.0  0.21770  0.67376  0.63418  1.0000
  H   H3302     1.0  0.30627  0.62499  0.61948  1.0000
  H   H3303     1.0  0.30466  0.64647  0.62444  1.0000
  N   N103      1.0  0.29015  0.74999  0.74108  1.0000
  C   C1881     1.0  0.28817  0.74769  0.76095  1.0000
  C   C1882     1.0  0.30272  0.76258  0.73166  1.0000
  C   C1883     1.0  0.27204  0.75885  0.73648  1.0000
  C   C1884     1.0  0.29656  0.73248  0.73475  1.0000
  H   H3304     1.0  0.15668  0.72638  0.73559  1.0000
  H   H3305     1.0  0.06934  0.82251  0.62808  1.0000
  C   C1885     1.0  0.27176  0.76439  0.71623  1.0000
  C   C1886     1.0  0.32203  0.75661  0.73507  1.0000
  C   C1887     1.0  0.33290  0.77103  0.72572  1.0000
  H   H3306     1.0  0.13523  0.62941  0.58658  1.0000
  H   H3307     1.0  0.13568  0.97469  0.60193  1.0000
  H   H3308     1.0  0.09383  0.92240  0.58968  1.0000
  H   H3309     1.0  0.19593  0.65665  0.77447  1.0000
  H   H3310     1.0  0.30424  0.76493  0.71696  1.0000
  H   H3311     1.0  0.29694  0.77590  0.73527  1.0000
  H   H3312     1.0  0.26626  0.77105  0.74220  1.0000
  H   H3313     1.0  0.26233  0.74991  0.74270  1.0000
  C   C1888     1.0  0.24635  0.66289  0.63587  1.0000
  H   H3314     1.0  0.30401  0.73471  0.72063  1.0000
  C   C1889     1.0  0.12015  0.60221  0.60906  1.0000
  H   H3315     1.0  0.37532  0.63694  0.59884  1.0000
  Fe  Fe213     1.0  0.19804  0.78926  0.77372  1.0000
  C   C1890     1.0  0.35957  0.58817  0.75943  1.0000
  H   H3316     1.0  0.28013  0.75387  0.70897  1.0000
  H   H3317     1.0  0.27695  0.77687  0.71036  1.0000
  H   H3318     1.0  0.32218  0.75399  0.74945  1.0000
  H   H3319     1.0  0.32903  0.74450  0.72962  1.0000
  H   H3320     1.0  0.32678  0.78344  0.73095  1.0000
  H   H3321     1.0  0.34671  0.76634  0.72826  1.0000
  H   H3322     1.0  0.33367  0.77405  0.71109  1.0000
  C   C1891     1.0  0.08715  0.56398  0.58868  1.0000
  H   H3323     1.0  0.18230  0.72156  0.71327  1.0000
  H   H3324     1.0  0.17984  0.94585  0.59892  1.0000
  H   H3325     1.0  0.32396  0.69024  0.74463  1.0000
  C   C1892     1.0  0.19150  0.84274  0.59452  1.0000
  H   H3326     1.0  0.09055  0.54947  0.59440  1.0000
  H   H3327     1.0  0.24684  0.75600  0.71835  1.0000
  N   N104      1.0  0.40539  0.70256  0.76739  1.0000
  C   C1893     1.0  0.39713  0.72208  0.76209  1.0000
  C   C1894     1.0  0.40864  0.69395  0.75156  1.0000
  H   H3328     1.0  0.14417  0.71551  0.72049  1.0000
  C   C1895     1.0  0.42233  0.69948  0.77425  1.0000
  C   C1896     1.0  0.43457  0.71325  0.76570  1.0000
  H   H3329     1.0  0.21810  0.85732  0.77336  1.0000
  H   H3330     1.0  0.47661  0.61885  0.72339  1.0000
  C   C1897     1.0  0.42235  0.70038  0.73475  1.0000
  C   C1898     1.0  0.42050  0.69444  0.71854  1.0000
  H   H3331     1.0  0.20511  0.71807  0.68527  1.0000
  C   C1899     1.0  0.39001  0.75252  0.77048  1.0000
  H   H3332     1.0  0.14719  0.78399  0.58009  1.0000
  H   H3333     1.0  0.38548  0.72364  0.75594  1.0000
  H   H3334     1.0  0.40656  0.72915  0.75151  1.0000
  H   H3335     1.0  0.41365  0.67936  0.75510  1.0000
  H   H3336     1.0  0.39572  0.69557  0.74746  1.0000
  C   C1900     1.0  0.39119  0.51263  0.61279  1.0000
  H   H3337     1.0  0.15393  0.87926  0.76963  1.0000
  C   C1901     1.0  0.22509  0.68857  0.64920  1.0000
  H   H3338     1.0  0.37627  0.58379  0.73426  1.0000
  H   H3339     1.0  0.04644  0.84422  0.58283  1.0000
  H   H3340     1.0  0.43844  0.71491  0.75105  1.0000
  H   H3341     1.0  0.14572  0.87574  0.59394  1.0000
  C   C1902     1.0  0.42283  0.62041  0.61453  1.0000
  H   H3342     1.0  0.11719  0.92084  0.75457  1.0000
  H   H3343     1.0  0.17522  0.93508  0.73876  1.0000
  H   H3344     1.0  0.42067  0.71506  0.73108  1.0000
  H   H3345     1.0  0.43615  0.69440  0.73703  1.0000
  H   H3346     1.0  0.40721  0.70087  0.71509  1.0000
  H   H3347     1.0  0.43110  0.69824  0.70691  1.0000
  H   H3348     1.0  0.42188  0.67976  0.72128  1.0000
  H   H3349     1.0  0.43055  0.68594  0.77297  1.0000
  H   H3350     1.0  0.13458  0.61673  0.61775  1.0000
  H   H3351     1.0  0.30699  0.62655  0.64153  1.0000
  H   H3352     1.0  0.27175  0.72722  0.76683  1.0000
  H   H3353     1.0  0.38606  0.66725  0.63642  1.0000
  C   C1903     1.0  0.28060  0.79794  0.76390  1.0000
  H   H3354     1.0  0.39979  0.56679  0.71736  1.0000
  H   H3355     1.0  0.31356  0.56282  0.59801  1.0000
  H   H3356     1.0  0.17098  0.92184  0.71840  1.0000
  C   C1904     1.0  0.16526  0.69268  0.72881  1.0000
  H   H3357     1.0  0.16447  0.89950  0.60082  1.0000
  H   H3358     1.0  0.21316  0.68904  0.71796  1.0000
  C   C1905     1.0  0.31387  0.53718  0.59247  1.0000
  H   H3359     1.0  0.40895  0.60674  0.59645  1.0000
  C   C1906     1.0  0.41111  0.53862  0.71777  1.0000
  H   H3360     1.0  0.15109  0.83621  0.61257  1.0000
  C   C1907     1.0  0.12194  0.61958  0.61285  1.0000
  H   H3361     1.0  0.10098  0.83055  0.63310  1.0000
  H   H3362     1.0  0.19670  0.69210  0.75192  1.0000
  C   C1908     1.0  0.46999  0.65807  0.77018  1.0000
  C   C1909     1.0  0.14090  0.66848  0.63137  1.0000
  H   H3363     1.0  0.16646  0.96717  0.60227  1.0000
  H   H3364     1.0  0.20741  0.64279  0.75846  1.0000
  H   H3365     1.0  0.20141  0.51367  0.58184  1.0000
  C   C1910     1.0  0.16116  0.94944  0.75953  1.0000
  H   H3366     1.0  0.33962  0.52691  0.60038  1.0000
  C   C1911     1.0  0.14071  0.90205  0.74324  1.0000
  Fe  Fe214     1.0  0.08702  0.88954  0.58259  1.0000
  C   C1912     1.0  0.13282  0.66208  0.58041  1.0000
  H   H3367     1.0  0.38594  0.59261  0.74752  1.0000
  H   H3368     1.0  0.13066  0.84730  0.63798  1.0000
  C   C1913     1.0  0.13893  0.79701  0.58136  1.0000
  H   H3369     1.0  0.42773  0.58372  0.62448  1.0000
  H   H3370     1.0  0.17625  0.92631  0.58400  1.0000
  C   C1914     1.0  0.16700  0.96813  0.70930  1.0000
  H   H3371     1.0  0.23038  0.66378  0.60841  1.0000
  C   C1915     1.0  0.01279  0.58889  0.58315  1.0000
  H   H3372     1.0  0.08916  0.79446  0.64543  1.0000
  C   C1916     1.0  0.20336  0.65675  0.76049  1.0000
  H   H3373     1.0  0.16849  0.90177  0.71384  1.0000
  C   C1917     1.0  0.18935  0.71014  0.72201  1.0000
  C   C1918     1.0  0.40278  0.60172  0.63485  1.0000
  N   N105      1.0  0.15452  0.90494  0.75178  1.0000
  S   S430      1.0  0.01270  0.66699  0.60725  1.0000
  H   H3374     1.0  0.44807  0.65216  0.58942  1.0000
  H   H3375     1.0  0.27749  0.65596  0.61128  1.0000
  C   C1919     1.0  0.44564  0.63981  0.59933  1.0000
  H   H3376     1.0  0.40815  0.52554  0.72559  1.0000
  C   C1920     1.0  0.12767  0.82109  0.59743  1.0000
  H   H3377     1.0  0.15647  0.91640  0.61404  1.0000
  C   C1921     1.0  0.41338  0.58356  0.63002  1.0000
  H   H3378     1.0  0.32589  0.70557  0.72344  1.0000
  C   C1922     1.0  0.17770  0.96037  0.59316  1.0000
  C   C1923     1.0  0.12264  0.63446  0.59573  1.0000
  H   H3379     1.0  0.17760  0.87060  0.59029  1.0000
  H   H3380     1.0  0.25088  0.67127  0.60004  1.0000
  H   H3381     1.0  0.13800  0.70429  0.69734  1.0000
  H   H3382     1.0  0.38724  0.60646  0.60978  1.0000
  H   H3383     1.0  0.11104  0.89064  0.74032  1.0000
  H   H3384     1.0  0.21438  0.85471  0.59146  1.0000
  S   S431      1.0  0.46140  0.52044  0.75831  1.0000
  H   H3385     1.0  0.31950  0.50305  0.58624  1.0000
  H   H3386     1.0  0.38363  0.49233  0.69462  1.0000
  C   C1924     1.0  0.45698  0.50013  0.75695  1.0000
  H   H3387     1.0  0.00837  0.60217  0.65831  1.0000
  H   H3388     1.0  0.39673  0.64211  0.58784  1.0000
  C   C1925     1.0  0.13830  0.80422  0.59591  1.0000
  H   H3389     1.0  0.38543  0.55216  0.72986  1.0000
  H   H3390     1.0  0.43409  0.56310  0.71410  1.0000
  H   H3391     1.0  0.14694  0.65461  0.57869  1.0000
  H   H3392     1.0  0.24449  0.65554  0.65002  1.0000
  H   H3393     1.0  0.35063  0.57931  0.75969  1.0000
  H   H3394     1.0  0.21347  0.69977  0.64725  1.0000
  H   H3395     1.0  0.22032  0.71798  0.69896  1.0000
  H   H3396     1.0  0.16357  0.71415  0.59845  1.0000
  H   H3397     1.0  0.15537  0.68645  0.73983  1.0000
  H   H3398     1.0  0.11804  0.89780  0.76592  1.0000
  H   H3399     1.0  0.25426  0.79470  0.76339  1.0000
  H   H3400     1.0  0.12805  0.86994  0.62538  1.0000
  C   C1926     1.0  0.34524  0.72115  0.76957  1.0000
  C   C1927     1.0  0.11968  0.96751  0.71962  1.0000
  H   H3401     1.0  0.07642  0.59836  0.59427  1.0000
  H   H3402     1.0  0.47942  0.79018  0.77039  1.0000
  H   H3403     1.0  0.17279  0.95566  0.75763  1.0000
  S   S432      1.0  0.15241  0.79353  0.61104  1.0000
  H   H3404     1.0  0.25755  0.66979  0.63406  1.0000
  C   C1928     1.0  0.43581  0.56135  0.72796  1.0000
  H   H3405     1.0  0.31316  0.54469  0.61738  1.0000
  H   H3406     1.0  0.40372  0.75490  0.76428  1.0000
  H   H3407     1.0  0.03619  0.61160  0.57749  1.0000
  H   H3408     1.0  0.37712  0.63105  0.63134  1.0000
  H   H3409     1.0  0.30572  0.69667  0.73305  1.0000
  H   H3410     1.0  0.22135  0.67964  0.66226  1.0000
  C   C1929     1.0  0.39799  0.52976  0.60335  1.0000
  N   N106      1.0  0.40369  0.61802  0.61997  1.0000
  H   H3411     1.0  0.07269  0.57017  0.61394  1.0000
  H   H3412     1.0  0.14795  0.74728  0.75679  1.0000
  H   H3413     1.0  0.11928  0.85380  0.61960  1.0000
  N   N107      1.0  0.16447  0.85713  0.57852  1.0000
  C   C1930     1.0  0.18107  0.85933  0.58320  1.0000
  C   C1931     1.0  0.00051  0.65574  0.59977  1.0000
  H   H3414     1.0  0.17653  0.92281  0.76068  1.0000
  H   H3415     1.0  0.45540  0.62824  0.59465  1.0000
  H   H3416     1.0  0.30092  0.74065  0.76525  1.0000
  H   H3417     1.0  0.36069  0.58757  0.77327  1.0000
  C   C1932     1.0  0.15262  0.89346  0.77035  1.0000
  H   H3418     1.0  0.01141  0.57587  0.58142  1.0000
  H   H3419     1.0  0.35174  0.48585  0.60438  1.0000
  H   H3420     1.0  0.40879  0.52749  0.59152  1.0000
  H   H3421     1.0  0.36528  0.50662  0.58815  1.0000
  H   H3422     1.0  0.17776  0.71486  0.76597  1.0000
  C   C1933     1.0  0.27318  0.73791  0.77274  1.0000
  H   H3423     1.0  0.38933  0.52886  0.77552  1.0000
  C   C1934     1.0  0.18507  0.68758  0.75027  1.0000
  C   C1935     1.0  0.33448  0.53120  0.58778  1.0000
  H   H3424     1.0  0.07826  0.78389  0.58552  1.0000
  H   H3425     1.0  0.07246  0.64616  0.59057  1.0000
  H   H3426     1.0  0.42922  0.63756  0.77369  1.0000
  H   H3427     1.0  0.44789  0.64083  0.61228  1.0000
  H   H3428     1.0  0.11640  0.70908  0.58509  1.0000
  H   H3429     1.0  0.26016  0.74763  0.77401  1.0000
  S   S433      1.0  0.39399  0.57903  0.58751  1.0000
  H   H3430     1.0  0.29341  0.55439  0.60809  1.0000
  C   C1936     1.0  0.44034  0.64364  0.77266  1.0000
  H   H3431     1.0  0.41485  0.49985  0.75672  1.0000
  H   H3432     1.0  0.48171  0.66325  0.76912  1.0000
  H   H3433     1.0  0.19753  0.85709  0.61162  1.0000
  H   H3434     1.0  0.07733  0.83241  0.58734  1.0000
  C   C1937     1.0  0.35053  0.68497  0.76873  1.0000
  H   H3435     1.0  0.37835  0.61710  0.57831  1.0000
  H   H3436     1.0  0.46189  0.82025  0.77281  1.0000
  H   H3437     1.0  0.34322  0.73510  0.76981  1.0000
  C   C1938     1.0  0.17065  0.72463  0.75600  1.0000
  C   C1939     1.0  0.15580  0.73728  0.76606  1.0000
  C   C1940     1.0  0.19160  0.66809  0.74737  1.0000
  H   H3438     1.0  0.14663  0.72969  0.77654  1.0000
  H   H3439     1.0  0.04796  0.64460  0.57712  1.0000
  S   S434      1.0  0.07317  0.87078  0.57696  1.0000
  C   C1941     1.0  0.25966  0.81852  0.81343  1.0000
  Fe  Fe215     1.0  0.44993  0.53349  0.81897  1.0000
  C   C1942     1.0  0.40573  0.50773  0.85633  1.0000
  Fe  Fe216     1.0  0.30588  0.77356  0.82797  1.0000
  S   S435      1.0  0.28308  0.78274  0.84948  1.0000
  Fe  Fe217     1.0  0.45669  0.83790  0.83833  1.0000
  S   S436      1.0  0.45461  0.82292  0.86679  1.0000
  H   H3440     1.0  0.44674  0.58299  0.79710  1.0000
  Fe  Fe218     1.0  0.41973  0.83341  0.83653  1.0000
  S   S437      1.0  0.41538  0.81811  0.86464  1.0000
  S   S438      1.0  0.42553  0.54956  0.83357  1.0000
  Fe  Fe219     1.0  0.42636  0.83882  0.87065  1.0000
  S   S439      1.0  0.40889  0.84904  0.89477  1.0000
  Fe  Fe220     1.0  0.44374  0.80389  0.85786  1.0000
  S   S440      1.0  0.45172  0.77405  0.86676  1.0000
  S   S441      1.0  0.42901  0.85526  0.84280  1.0000
  S   S442      1.0  0.44761  0.81776  0.82915  1.0000
  Fe  Fe221     1.0  0.19372  0.86305  0.86559  1.0000
  S   S443      1.0  0.17955  0.84021  0.87405  1.0000
  S   S444      1.0  0.22379  0.85541  0.85830  1.0000
  Fe  Fe222     1.0  0.15898  0.89066  0.86941  1.0000
  S   S445      1.0  0.14196  0.86987  0.87877  1.0000
  S   S446      1.0  0.14544  0.91983  0.86781  1.0000
  Fe  Fe223     1.0  0.16218  0.85445  0.89544  1.0000
  S   S447      1.0  0.15881  0.83749  0.92341  1.0000
  Fe  Fe224     1.0  0.16079  0.85732  0.85672  1.0000
  S   S448      1.0  0.14990  0.84784  0.83804  1.0000
  S   S449      1.0  0.17770  0.87630  0.88819  1.0000
  S   S450      1.0  0.17639  0.87908  0.84617  1.0000
  S   S451      1.0  0.19615  0.78251  0.80342  1.0000
  H   H3441     1.0  0.43509  0.72732  0.88026  1.0000
  H   H3442     1.0  0.34953  0.84642  0.87092  1.0000
  C   C1943     1.0  0.40259  0.52049  0.86927  1.0000
  C   C1944     1.0  0.37147  0.73958  0.86940  1.0000
  C   C1945     1.0  0.48275  0.58712  0.78574  1.0000
  H   H3443     1.0  0.48245  0.80742  0.91777  1.0000
  H   H3444     1.0  0.02376  0.49811  0.94391  1.0000
  C   C1946     1.0  0.19330  0.78638  0.93976  1.0000
  Fe  Fe225     1.0  0.48002  0.70642  0.80899  1.0000
  H   H3445     1.0  0.40628  0.74611  0.80258  1.0000
  H   H3446     1.0  0.35205  0.82239  0.85158  1.0000
  H   H3447     1.0  0.08154  0.94937  0.81985  1.0000
  C   C1947     1.0  0.44070  0.94062  0.96077  1.0000
  C   C1948     1.0  0.12273  0.83762  0.92802  1.0000
  H   H3448     1.0  0.24311  0.83596  0.78766  1.0000
  H   H3449     1.0  0.11710  0.96288  0.80948  1.0000
  H   H3450     1.0  0.45637  0.80716  0.90658  1.0000
  C   C1949     1.0  0.40075  0.72971  0.83780  1.0000
  S   S452      1.0  0.46928  0.64743  0.80618  1.0000
  S   S453      1.0  0.37533  0.61042  0.78918  1.0000
  C   C1950     1.0  0.39833  0.67438  0.79124  1.0000
  H   H3451     1.0  0.41902  0.69945  0.78879  1.0000
  H   H3452     1.0  0.04974  0.88172  0.94360  1.0000
  S   S454      1.0  0.43313  0.88402  0.94536  1.0000
  C   C1951     1.0  0.40551  0.58360  0.79195  1.0000
  H   H3453     1.0  0.08412  0.97170  0.81236  1.0000
  C   C1952     1.0  0.20793  0.83363  0.97282  1.0000
  C   C1953     1.0  0.12647  0.80765  0.86127  1.0000
  H   H3454     1.0  0.12379  0.94782  0.78471  1.0000
  H   H3455     1.0  0.37057  0.84187  0.90005  1.0000
  H   H3456     1.0  0.14915  0.88440  0.80759  1.0000
  H   H3457     1.0  0.47427  0.54784  0.86463  1.0000
  H   H3458     1.0  0.16291  0.90729  0.78498  1.0000
  H   H3459     1.0  0.42222  0.93334  0.94807  1.0000
  S   S455      1.0  0.32930  0.71608  0.80543  1.0000
  S   S456      1.0  0.46869  0.68423  0.82848  1.0000
  H   H3460     1.0  0.28279  0.84517  0.82443  1.0000
  Fe  Fe226     1.0  0.47244  0.49616  0.82022  1.0000
  C   C1954     1.0  0.41644  0.56972  0.80183  1.0000
  H   H3461     1.0  0.37836  0.79836  0.85480  1.0000
  N   N108      1.0  0.39802  0.71673  0.85548  1.0000
  S   S457      1.0  0.46406  0.73428  0.80356  1.0000
  H   H3462     1.0  0.16497  0.86691  0.79762  1.0000
  Fe  Fe227     1.0  0.27607  0.84397  0.92931  1.0000
  S   S458      1.0  0.26493  0.81926  0.94118  1.0000
  S   S459      1.0  0.26100  0.86868  0.91411  1.0000
  Fe  Fe228     1.0  0.30889  0.82942  0.94596  1.0000
  S   S460      1.0  0.30037  0.80353  0.95975  1.0000
  H   H3463     1.0  0.42375  0.74948  0.81129  1.0000
  Fe  Fe229     1.0  0.29334  0.80476  0.93371  1.0000
  S   S461      1.0  0.30291  0.77991  0.92241  1.0000
  S   S462      1.0  0.34433  0.76246  0.78855  1.0000
  S   S463      1.0  0.30379  0.82945  0.91943  1.0000
  S   S464      1.0  0.28199  0.84616  0.95474  1.0000
  H   H3464     1.0  0.10061  0.89754  0.85986  1.0000
  H   H3465     1.0  0.45992  0.55419  0.84871  1.0000
  H   H3466     1.0  0.45752  0.78449  0.93083  1.0000
  H   H3467     1.0  0.47770  0.57846  0.78001  1.0000
  H   H3468     1.0  0.22679  0.85011  0.97126  1.0000
  H   H3469     1.0  0.38810  0.70153  0.83207  1.0000
  C   C1955     1.0  0.13080  0.49594  0.95963  1.0000
  H   H3470     1.0  0.39291  0.57335  0.84367  1.0000
  H   H3471     1.0  0.08947  0.78466  0.92158  1.0000
  H   H3472     1.0  0.08109  0.48939  0.97321  1.0000
  H   H3473     1.0  0.46154  0.48629  0.78311  1.0000
  H   H3474     1.0  0.37322  0.59711  0.82629  1.0000
  C   C1956     1.0  0.40276  0.69751  0.85357  1.0000
  C   C1957     1.0  0.48396  0.79791  0.77762  1.0000
  H   H3475     1.0  0.23517  0.76983  0.80469  1.0000
  H   H3476     1.0  0.27921  0.73962  0.79757  1.0000
  H   H3477     1.0  0.40671  0.67418  0.80060  1.0000
  H   H3478     1.0  0.42951  0.80850  0.96926  1.0000
  C   C1958     1.0  0.10491  0.83959  0.87258  1.0000
  C   C1959     1.0  0.21518  0.85078  0.96545  1.0000
  S   S465      1.0  0.32233  0.79349  0.81132  1.0000
  C   C1960     1.0  0.45688  0.92598  0.93586  1.0000
  C   C1961     1.0  0.21475  0.83652  0.79737  1.0000
  H   H3479     1.0  0.36908  0.52283  0.86539  1.0000
  C   C1962     1.0  0.47271  0.57516  0.84925  1.0000
  H   H3480     1.0  0.02732  0.49442  0.97521  1.0000
  H   H3481     1.0  0.41884  0.92615  0.97190  1.0000
  H   H3482     1.0  0.45965  0.60949  0.78472  1.0000
  C   C1963     1.0  0.38532  0.58955  0.81942  1.0000
  C   C1964     1.0  0.13828  0.83151  0.93506  1.0000
  C   C1965     1.0  0.13766  0.82024  0.95193  1.0000
  H   H3483     1.0  0.14394  0.56341  0.94778  1.0000
  H   H3484     1.0  0.14964  0.81539  0.95736  1.0000
  H   H3485     1.0  0.11626  0.49942  0.95982  1.0000
  C   C1966     1.0  0.14890  0.93519  0.84730  1.0000
  C   C1967     1.0  0.15658  0.92952  0.83118  1.0000
  C   C1968     1.0  0.15844  0.94211  0.81501  1.0000
  C   C1969     1.0  0.15235  0.96044  0.81480  1.0000
  C   C1970     1.0  0.14491  0.96612  0.83091  1.0000
  C   C1971     1.0  0.14315  0.95353  0.84710  1.0000
  H   H3486     1.0  0.16100  0.91546  0.83113  1.0000
  H   H3487     1.0  0.16449  0.93760  0.80265  1.0000
  H   H3488     1.0  0.38135  0.51990  0.81218  1.0000
  H   H3489     1.0  0.13736  0.95799  0.85954  1.0000
  C   C1972     1.0  0.16382  0.83029  0.82804  1.0000
  C   C1973     1.0  0.16097  0.82820  0.81204  1.0000
  C   C1974     1.0  0.17116  0.81376  0.80426  1.0000
  C   C1975     1.0  0.18378  0.80095  0.81280  1.0000
  C   C1976     1.0  0.18651  0.80288  0.82892  1.0000
  C   C1977     1.0  0.17686  0.81777  0.83631  1.0000
  H   H3490     1.0  0.15087  0.83777  0.80561  1.0000
  C   C1978     1.0  0.17829  0.78155  0.95552  1.0000
  H   H3491     1.0  0.19628  0.79297  0.83554  1.0000
  H   H3492     1.0  0.17931  0.81935  0.84853  1.0000
  C   C1979     1.0  0.23451  0.85958  0.87322  1.0000
  C   C1980     1.0  0.25033  0.84795  0.87714  1.0000
  C   C1981     1.0  0.25834  0.85037  0.89002  1.0000
  C   C1982     1.0  0.25092  0.86489  0.89845  1.0000
  C   C1983     1.0  0.23542  0.87681  0.89412  1.0000
  C   C1984     1.0  0.22707  0.87402  0.88173  1.0000
  H   H3493     1.0  0.25615  0.83691  0.87042  1.0000
  H   H3494     1.0  0.27043  0.84124  0.89314  1.0000
  H   H3495     1.0  0.22970  0.88811  0.90053  1.0000
  H   H3496     1.0  0.21501  0.88318  0.87859  1.0000
  H   H3497     1.0  0.37561  0.71069  0.87690  1.0000
  H   H3498     1.0  0.11264  0.81128  0.85893  1.0000
  H   H3499     1.0  0.45942  0.79398  0.96564  1.0000
  C   C1985     1.0  0.39036  0.81974  0.82040  1.0000
  C   C1986     1.0  0.36591  0.84896  0.88750  1.0000
  H   H3500     1.0  0.15051  0.83469  0.97632  1.0000
  H   H3501     1.0  0.45712  0.80472  0.79357  1.0000
  C   C1987     1.0  0.41560  0.86069  0.90718  1.0000
  C   C1988     1.0  0.40381  0.86466  0.92282  1.0000
  C   C1989     1.0  0.40896  0.87248  0.93411  1.0000
  C   C1990     1.0  0.42609  0.87615  0.93003  1.0000
  C   C1991     1.0  0.43782  0.87266  0.91410  1.0000
  C   C1992     1.0  0.43253  0.86502  0.90259  1.0000
  H   H3502     1.0  0.39071  0.86137  0.92640  1.0000
  H   H3503     1.0  0.39967  0.87558  0.94605  1.0000
  H   H3504     1.0  0.45106  0.87561  0.91080  1.0000
  H   H3505     1.0  0.44162  0.86217  0.89041  1.0000
  C   C1993     1.0  0.45413  0.76260  0.84971  1.0000
  C   C1994     1.0  0.46275  0.74462  0.85148  1.0000
  C   C1995     1.0  0.46548  0.73567  0.83751  1.0000
  C   C1996     1.0  0.45967  0.74475  0.82170  1.0000
  C   C1997     1.0  0.45064  0.76257  0.82015  1.0000
  C   C1998     1.0  0.44782  0.77139  0.83415  1.0000
  H   H3506     1.0  0.47371  0.94642  0.94604  1.0000
  C   C1999     1.0  0.46582  0.78962  0.95283  1.0000
  H   H3507     1.0  0.44590  0.76964  0.80806  1.0000
  H   H3508     1.0  0.44066  0.78499  0.83294  1.0000
  C   C2000     1.0  0.40179  0.80303  0.82284  1.0000
  H   H3509     1.0  0.41484  0.80193  0.82538  1.0000
  H   H3510     1.0  0.40520  0.77489  0.82425  1.0000
  C   C2001     1.0  0.28975  0.78272  0.86894  1.0000
  C   C2002     1.0  0.30232  0.76843  0.87589  1.0000
  C   C2003     1.0  0.30627  0.76774  0.89235  1.0000
  C   C2004     1.0  0.29816  0.78160  0.90157  1.0000
  C   C2005     1.0  0.28602  0.79621  0.89435  1.0000
  C   C2006     1.0  0.28163  0.79660  0.87816  1.0000
  H   H3511     1.0  0.30842  0.75756  0.86896  1.0000
  H   H3512     1.0  0.31545  0.75633  0.89807  1.0000
  H   H3513     1.0  0.27967  0.80692  0.90145  1.0000
  H   H3514     1.0  0.27185  0.80757  0.87279  1.0000
  C   C2007     1.0  0.44583  0.64370  0.78813  1.0000
  H   H3515     1.0  0.00382  0.48872  0.95231  1.0000
  H   H3516     1.0  0.13757  0.50367  0.94706  1.0000
  H   H3517     1.0  0.40262  0.68847  0.86695  1.0000
  H   H3518     1.0  0.34455  0.74365  0.86473  1.0000
  H   H3519     1.0  0.48207  0.93281  0.91929  1.0000
  H   H3520     1.0  0.39165  0.54862  0.79944  1.0000
  H   H3521     1.0  0.34684  0.73345  0.88748  1.0000
  C   C2008     1.0  0.45188  0.58833  0.80597  1.0000
  H   H3522     1.0  0.11592  0.93981  0.81772  1.0000
  H   H3523     1.0  0.37620  0.82473  0.86411  1.0000
  H   H3524     1.0  0.14058  0.98024  0.83086  1.0000
  C   C2009     1.0  0.10916  0.95280  0.81069  1.0000
  C   C2010     1.0  0.09524  0.97597  0.83938  1.0000
  H   H3525     1.0  0.48945  0.61883  0.78484  1.0000
  S   S466      1.0  0.32950  0.75121  0.83172  1.0000
  H   H3526     1.0  0.41664  0.69406  0.84595  1.0000
  H   H3527     1.0  0.45251  0.56241  0.86912  1.0000
  H   H3528     1.0  0.41128  0.67342  0.83040  1.0000
  N   N109      1.0  0.45693  0.92691  0.95473  1.0000
  C   C2011     1.0  0.11638  0.79655  0.89405  1.0000
  H   H3529     1.0  0.37317  0.55942  0.81453  1.0000
  H   H3530     1.0  0.44086  0.78564  0.95040  1.0000
  N   N110      1.0  0.48685  0.59876  0.85514  1.0000
  H   H3531     1.0  0.36556  0.78206  0.86669  1.0000
  C   C2012     1.0  0.47329  0.93319  0.95523  1.0000
  H   H3532     1.0  0.43432  0.70065  0.85858  1.0000
  C   C2013     1.0  0.39041  0.69190  0.84459  1.0000
  H   H3533     1.0  0.14907  0.82167  0.89698  1.0000
  H   H3534     1.0  0.24496  0.79506  0.84685  1.0000
  H   H3535     1.0  0.32528  0.94199  0.86310  1.0000
  H   H3536     1.0  0.41144  0.50421  0.81280  1.0000
  C   C2014     1.0  0.46762  0.81155  0.78427  1.0000
  H   H3537     1.0  0.43397  0.72423  0.85042  1.0000
  H   H3538     1.0  0.13348  0.81767  0.85133  1.0000
  H   H3539     1.0  0.30979  0.82145  0.85942  1.0000
  H   H3540     1.0  0.14982  0.78612  0.85546  1.0000
  C   C2015     1.0  0.37782  0.54828  0.80723  1.0000
  H   H3541     1.0  0.41828  0.50972  0.84638  1.0000
  H   H3542     1.0  0.45319  0.71001  0.87266  1.0000
  H   H3543     1.0  0.45013  0.93904  0.92871  1.0000
  H   H3544     1.0  0.48996  0.57074  0.86768  1.0000
  S   S467      1.0  0.37239  0.76941  0.81970  1.0000
  C   C2016     1.0  0.09618  0.79966  0.89433  1.0000
  H   H3545     1.0  0.27445  0.90514  0.95187  1.0000
  H   H3546     1.0  0.35478  0.80712  0.81365  1.0000
  H   H3547     1.0  0.12382  0.56438  0.94027  1.0000
  H   H3548     1.0  0.26521  0.72401  0.80006  1.0000
  H   H3549     1.0  0.34624  0.77331  0.92704  1.0000
  H   H3550     1.0  0.21503  0.82644  0.78978  1.0000
  H   H3551     1.0  0.15095  0.78857  0.88249  1.0000
  Fe  Fe230     1.0  0.27284  0.82026  0.96606  1.0000
  C   C2017     1.0  0.31830  0.94540  0.87625  1.0000
  H   H3552     1.0  0.15006  0.49909  0.97261  1.0000
  H   H3553     1.0  0.10664  0.86476  0.87771  1.0000
  H   H3554     1.0  0.12906  0.77852  0.86536  1.0000
  H   H3555     1.0  0.14129  0.80241  0.91105  1.0000
  H   H3556     1.0  0.00425  0.50959  0.95715  1.0000
  H   H3557     1.0  0.37339  0.67397  0.81122  1.0000
  H   H3558     1.0  0.05605  0.85296  0.96516  1.0000
  H   H3559     1.0  0.36886  0.55033  0.79783  1.0000
  H   H3560     1.0  0.37495  0.75027  0.85778  1.0000
  C   C2018     1.0  0.45468  0.61790  0.85760  1.0000
  C   C2019     1.0  0.41927  0.51784  0.87684  1.0000
  C   C2020     1.0  0.44246  0.63287  0.84721  1.0000
  C   C2021     1.0  0.13534  0.50008  0.97589  1.0000
  H   H3561     1.0  0.47344  0.84033  0.88866  1.0000
  C   C2022     1.0  0.37923  0.78912  0.81906  1.0000
  H   H3562     1.0  0.35337  0.48526  0.90005  1.0000
  H   H3563     1.0  0.39886  0.72750  0.78754  1.0000
  H   H3564     1.0  0.48101  0.86597  0.97630  1.0000
  C   C2023     1.0  0.40747  0.95367  0.96270  1.0000
  C   C2024     1.0  0.41132  0.49207  0.82352  1.0000
  H   H3565     1.0  0.45510  0.62232  0.86965  1.0000
  H   H3566     1.0  0.44833  0.60612  0.86192  1.0000
  H   H3567     1.0  0.37692  0.81547  0.88673  1.0000
  H   H3568     1.0  0.33445  0.82557  0.87040  1.0000
  C   C2025     1.0  0.42943  0.71400  0.86201  1.0000
  H   H3569     1.0  0.44146  0.62910  0.83499  1.0000
  H   H3570     1.0  0.42883  0.63541  0.85563  1.0000
  H   H3571     1.0  0.11589  0.82841  0.89670  1.0000
  N   N111      1.0  0.08728  0.96052  0.83955  1.0000
  H   H3572     1.0  0.31298  0.93307  0.90388  1.0000
  C   C2026     1.0  0.47350  0.82022  0.91338  1.0000
  C   C2027     1.0  0.08960  0.95870  0.82056  1.0000
  C   C2028     1.0  0.09684  0.94389  0.85038  1.0000
  C   C2029     1.0  0.09217  0.92605  0.85029  1.0000
  C   C2030     1.0  0.41204  0.56620  0.82052  1.0000
  H   H3573     1.0  0.21576  0.81937  0.86861  1.0000
  C   C2031     1.0  0.37733  0.53038  0.82024  1.0000
  C   C2032     1.0  0.10455  0.91012  0.85952  1.0000
  H   H3574     1.0  0.26826  0.75677  0.96940  1.0000
  H   H3575     1.0  0.10999  0.97251  0.83533  1.0000
  Fe  Fe231     1.0  0.34578  0.77055  0.81322  1.0000
  C   C2033     1.0  0.04292  0.87069  0.94487  1.0000
  H   H3576     1.0  0.10046  0.52280  0.97204  1.0000
  H   H3577     1.0  0.38901  0.66908  0.83503  1.0000
  C   C2034     1.0  0.10601  0.82149  0.95503  1.0000
  H   H3578     1.0  0.11161  0.94257  0.84604  1.0000
  H   H3579     1.0  0.09402  0.94484  0.86461  1.0000
  H   H3580     1.0  0.09364  0.92415  0.83658  1.0000
  H   H3581     1.0  0.07821  0.92559  0.85753  1.0000
  H   H3582     1.0  0.17924  0.80159  0.88796  1.0000
  H   H3583     1.0  0.44044  0.59705  0.81317  1.0000
  H   H3584     1.0  0.31400  0.80418  0.84704  1.0000
  H   H3585     1.0  0.14556  0.53044  0.96052  1.0000
  H   H3586     1.0  0.33143  0.79419  0.93077  1.0000
  H   H3587     1.0  0.33800  0.68165  0.79663  1.0000
  C   C2035     1.0  0.16287  0.88071  0.79967  1.0000
  H   H3588     1.0  0.10377  0.91117  0.87342  1.0000
  C   C2036     1.0  0.32313  0.85830  0.96653  1.0000
  H   H3589     1.0  0.11864  0.90944  0.85209  1.0000
  H   H3590     1.0  0.25831  0.77092  0.79472  1.0000
  C   C2037     1.0  0.40881  0.71882  0.86775  1.0000
  H   H3591     1.0  0.13910  0.89753  0.77844  1.0000
  N   N112      1.0  0.44383  0.81148  0.93335  1.0000
  C   C2038     1.0  0.44282  0.82461  0.94457  1.0000
  C   C2039     1.0  0.45451  0.81719  0.91482  1.0000
  C   C2040     1.0  0.42495  0.81243  0.93162  1.0000
  Fe  Fe232     1.0  0.41206  0.88552  0.97063  1.0000
  H   H3592     1.0  0.38255  0.49409  0.83289  1.0000
  C   C2041     1.0  0.12341  0.55177  0.96828  1.0000
  C   C2042     1.0  0.42316  0.80209  0.91818  1.0000
  H   H3593     1.0  0.05066  0.86269  0.93469  1.0000
  H   H3594     1.0  0.12132  0.80672  0.97499  1.0000
  H   H3595     1.0  0.06547  0.96397  0.86224  1.0000
  C   C2043     1.0  0.40359  0.80169  0.91958  1.0000
  H   H3596     1.0  0.43883  0.83850  0.93716  1.0000
  H   H3597     1.0  0.45614  0.82402  0.94709  1.0000
  C   C2044     1.0  0.12911  0.56545  0.95158  1.0000
  H   H3598     1.0  0.44686  0.82974  0.90786  1.0000
  H   H3599     1.0  0.41812  0.82655  0.92764  1.0000
  H   H3600     1.0  0.48417  0.89674  0.96451  1.0000
  H   H3601     1.0  0.47889  0.62622  0.84198  1.0000
  H   H3602     1.0  0.45764  0.57706  0.81587  1.0000
  H   H3603     1.0  0.42913  0.73490  0.79582  1.0000
  H   H3604     1.0  0.08925  0.48624  0.95059  1.0000
  H   H3605     1.0  0.27344  0.77658  0.95378  1.0000
  H   H3606     1.0  0.43081  0.78813  0.92059  1.0000
  H   H3607     1.0  0.42823  0.80872  0.90428  1.0000
  H   H3608     1.0  0.47255  0.89009  0.95109  1.0000
  H   H3609     1.0  0.36211  0.51134  0.85292  1.0000
  C   C2045     1.0  0.38992  0.59353  0.80080  1.0000
  H   H3610     1.0  0.34475  0.79414  0.85118  1.0000
  H   H3611     1.0  0.41013  0.78165  0.85678  1.0000
  H   H3612     1.0  0.30999  0.85610  0.96734  1.0000
  H   H3613     1.0  0.19670  0.83485  0.96631  1.0000
  H   H3614     1.0  0.40275  0.79464  0.90950  1.0000
  H   H3615     1.0  0.39786  0.79457  0.93303  1.0000
  H   H3616     1.0  0.39551  0.81548  0.91695  1.0000
  H   H3617     1.0  0.26541  0.80699  0.82298  1.0000
  H   H3618     1.0  0.47820  0.60513  0.88141  1.0000
  H   H3619     1.0  0.08914  0.81247  0.89845  1.0000
  C   C2046     1.0  0.37350  0.82121  0.81678  1.0000
  H   H3620     1.0  0.41674  0.80732  0.94474  1.0000
  S   S468      1.0  0.44808  0.51023  0.80909  1.0000
  S   S469      1.0  0.39670  0.83874  0.82254  1.0000
  C   C2047     1.0  0.15035  0.80711  0.89845  1.0000
  C   C2048     1.0  0.32028  0.81342  0.85064  1.0000
  H   H3621     1.0  0.03032  0.97282  0.85162  1.0000
  S   S470      1.0  0.15422  0.97589  0.79426  1.0000
  Fe  Fe233     1.0  0.32632  0.74484  0.80681  1.0000
  C   C2049     1.0  0.12160  0.81533  0.96193  1.0000
  C   C2050     1.0  0.42230  0.93713  0.96057  1.0000
  H   H3622     1.0  0.39822  0.76434  0.85915  1.0000
  C   C2051     1.0  0.14614  0.80317  0.88192  1.0000
  N   N113      1.0  0.35821  0.80654  0.87680  1.0000
  C   C2052     1.0  0.34563  0.78713  0.92824  1.0000
  H   H3623     1.0  0.35540  0.81056  0.91360  1.0000
  C   C2053     1.0  0.35606  0.79714  0.91130  1.0000
  C   C2054     1.0  0.46088  0.65055  0.78689  1.0000
  S   S471      1.0  0.30089  0.76538  0.80484  1.0000
  C   C2055     1.0  0.47300  0.91724  0.90619  1.0000
  N   N114      1.0  0.12686  0.80890  0.87987  1.0000
  H   H3624     1.0  0.37718  0.74037  0.88052  1.0000
  C   C2056     1.0  0.36789  0.80591  0.81619  1.0000
  C   C2057     1.0  0.31972  0.92874  0.89115  1.0000
  H   H3625     1.0  0.32953  0.79394  0.87252  1.0000
  H   H3626     1.0  0.43419  0.70398  0.88913  1.0000
  C   C2058     1.0  0.10663  0.83251  0.93796  1.0000
  H   H3627     1.0  0.34403  0.83526  0.89386  1.0000
  C   C2059     1.0  0.35526  0.83806  0.88251  1.0000
  C   C2060     1.0  0.37292  0.51044  0.85992  1.0000
  H   H3628     1.0  0.34665  0.75693  0.87907  1.0000
  H   H3629     1.0  0.40954  0.96464  0.95090  1.0000
  H   H3630     1.0  0.30404  0.95163  0.87589  1.0000
  H   H3631     1.0  0.02923  0.87635  0.94220  1.0000
  H   H3632     1.0  0.38273  0.49108  0.88287  1.0000
  H   H3633     1.0  0.44874  0.91631  0.93608  1.0000
  H   H3634     1.0  0.36983  0.72018  0.85566  1.0000
  H   H3635     1.0  0.20630  0.86547  0.79354  1.0000
  H   H3636     1.0  0.36465  0.83416  0.81470  1.0000
  H   H3637     1.0  0.11049  0.84348  0.85807  1.0000
  S   S472      1.0  0.38898  0.90888  0.97292  1.0000
  H   H3638     1.0  0.47277  0.61077  0.83340  1.0000
  C   C2061     1.0  0.34218  0.87346  0.97461  1.0000
  C   C2062     1.0  0.43400  0.83164  0.97560  1.0000
  H   H3639     1.0  0.40489  0.71070  0.88134  1.0000
  C   C2063     1.0  0.43842  0.71386  0.87699  1.0000
  H   H3640     1.0  0.09231  0.97120  0.86876  1.0000
  H   H3641     1.0  0.19451  0.77821  0.92990  1.0000
  H   H3642     1.0  0.40358  0.52830  0.82526  1.0000
  H   H3643     1.0  0.36327  0.53064  0.82748  1.0000
  H   H3644     1.0  0.22927  0.79833  0.87675  1.0000
  H   H3645     1.0  0.40584  0.73285  0.86935  1.0000
  C   C2064     1.0  0.09642  0.85672  0.87966  1.0000
  C   C2065     1.0  0.05586  0.98068  0.83862  1.0000
  H   H3646     1.0  0.46469  0.76173  0.96470  1.0000
  H   H3647     1.0  0.13892  0.80024  0.82728  1.0000
  C   C2066     1.0  0.08779  0.78501  0.90798  1.0000
  H   H3648     1.0  0.21372  0.76882  0.95301  1.0000
  H   H3649     1.0  0.07323  0.78769  0.90816  1.0000
  H   H3650     1.0  0.24749  0.80356  0.79282  1.0000
  H   H3651     1.0  0.43882  0.63773  0.80103  1.0000
  H   H3652     1.0  0.15484  0.80986  0.87002  1.0000
  H   H3653     1.0  0.44765  0.64539  0.84340  1.0000
  H   H3654     1.0  0.36688  0.84435  0.94812  1.0000
  H   H3655     1.0  0.37019  0.79003  0.90969  1.0000
  H   H3656     1.0  0.17090  0.78329  0.90411  1.0000
  H   H3657     1.0  0.08585  0.86485  0.87229  1.0000
  H   H3658     1.0  0.17269  0.80248  0.91125  1.0000
  H   H3659     1.0  0.10271  0.96327  0.78427  1.0000
  H   H3660     1.0  0.32467  0.95529  0.87865  1.0000
  H   H3661     1.0  0.16563  0.78410  0.95075  1.0000
  C   C2067     1.0  0.33964  0.70911  0.78514  1.0000
  C   C2068     1.0  0.39643  0.57608  0.82925  1.0000
  S   S473      1.0  0.48245  0.84534  0.82101  1.0000
  C   C2069     1.0  0.04213  0.85875  0.96346  1.0000
  H   H3662     1.0  0.12576  0.53184  0.95334  1.0000
  H   H3663     1.0  0.47220  0.72181  0.83898  1.0000
  N   N115      1.0  0.24048  0.81844  0.81377  1.0000
  H   H3664     1.0  0.25271  0.75599  0.81579  1.0000
  C   C2070     1.0  0.24001  0.80249  0.80691  1.0000
  C   C2071     1.0  0.23361  0.83498  0.80085  1.0000
  C   C2072     1.0  0.22856  0.81867  0.83204  1.0000
  H   H3665     1.0  0.39249  0.78987  0.88412  1.0000
  C   C2073     1.0  0.22282  0.80616  0.86550  1.0000
  C   C2074     1.0  0.20829  0.85474  0.78611  1.0000
  C   C2075     1.0  0.24712  0.78380  0.81754  1.0000
  C   C2076     1.0  0.24839  0.76929  0.80750  1.0000
  H   H3666     1.0  0.12310  0.84645  0.91507  1.0000
  H   H3667     1.0  0.46760  0.73768  0.86352  1.0000
  C   C2077     1.0  0.01919  0.48634  0.97240  1.0000
  C   C2078     1.0  0.47381  0.61358  0.84611  1.0000
  S   S474      1.0  0.46719  0.54481  0.79369  1.0000
  H   H3668     1.0  0.22604  0.80222  0.80675  1.0000
  N   N116      1.0  0.39070  0.50980  0.84698  1.0000
  C   C2079     1.0  0.46437  0.55891  0.85858  1.0000
  H   H3669     1.0  0.23292  0.84720  0.80570  1.0000
  H   H3670     1.0  0.22316  0.83261  0.83409  1.0000
  H   H3671     1.0  0.21652  0.81342  0.83302  1.0000
  C   C2080     1.0  0.26269  0.83565  0.81731  1.0000
  H   H3672     1.0  0.35137  0.78653  0.93983  1.0000
  Fe  Fe234     1.0  0.31915  0.78360  0.78843  1.0000
  H   H3673     1.0  0.46848  0.58349  0.87439  1.0000
  H   H3674     1.0  0.20477  0.83465  0.81006  1.0000
  C   C2081     1.0  0.13074  0.53247  0.96504  1.0000
  H   H3675     1.0  0.35316  0.50881  0.89508  1.0000
  S   S475      1.0  0.33633  0.83337  0.94515  1.0000
  H   H3676     1.0  0.38852  0.73333  0.83203  1.0000
  C   C2082     1.0  0.47481  0.76993  0.95731  1.0000
  H   H3677     1.0  0.26826  0.81676  0.80016  1.0000
  H   H3678     1.0  0.34623  0.78520  0.89488  1.0000
  H   H3679     1.0  0.09459  0.83735  0.93259  1.0000
  C   C2083     1.0  0.35114  0.74355  0.87556  1.0000
  H   H3680     1.0  0.39932  0.53465  0.86245  1.0000
  C   C2084     1.0  0.40278  0.77184  0.86655  1.0000
  H   H3681     1.0  0.16892  0.81233  0.79184  1.0000
  H   H3682     1.0  0.43970  0.94154  0.97476  1.0000
  H   H3683     1.0  0.28147  0.82240  0.83492  1.0000
  C   C2085     1.0  0.39423  0.49400  0.83834  1.0000
  H   H3684     1.0  0.35741  0.86200  0.88953  1.0000
  H   H3685     1.0  0.48579  0.92415  0.95015  1.0000
  C   C2086     1.0  0.35520  0.85159  0.95584  1.0000
  H   H3686     1.0  0.13119  0.83554  0.87692  1.0000
  H   H3687     1.0  0.05653  0.48863  0.95932  1.0000
  H   H3688     1.0  0.25213  0.84044  0.82829  1.0000
  C   C2087     1.0  0.13519  0.78935  0.85591  1.0000
  H   H3689     1.0  0.37769  0.85141  0.87666  1.0000
  H   H3690     1.0  0.06183  0.95228  0.84771  1.0000
  H   H3691     1.0  0.37721  0.69120  0.85374  1.0000
  C   C2088     1.0  0.38695  0.78147  0.87868  1.0000
  H   H3692     1.0  0.43092  0.52052  0.86593  1.0000
  H   H3693     1.0  0.10856  0.55470  0.97178  1.0000
  H   H3694     1.0  0.42832  0.56190  0.79500  1.0000
  C   C2089     1.0  0.27684  0.72953  0.79145  1.0000
  H   H3695     1.0  0.29183  0.82795  0.81152  1.0000
  C   C2090     1.0  0.13286  0.78962  0.83728  1.0000
  H   H3696     1.0  0.09402  0.77176  0.90446  1.0000
  C   C2091     1.0  0.34806  0.79869  0.89486  1.0000
  C   C2092     1.0  0.39627  0.78777  0.82216  1.0000
  N   N117      1.0  0.22727  0.78685  0.93144  1.0000
  C   C2093     1.0  0.23245  0.77284  0.92024  1.0000
  C   C2094     1.0  0.21123  0.78301  0.94592  1.0000
  C   C2095     1.0  0.22301  0.80502  0.91964  1.0000
  C   C2096     1.0  0.24232  0.78650  0.94007  1.0000
  C   C2097     1.0  0.25042  0.76808  0.95071  1.0000
  C   C2098     1.0  0.24993  0.77327  0.90581  1.0000
  C   C2099     1.0  0.21554  0.82090  0.92942  1.0000
  H   H3697     1.0  0.25447  0.77825  0.97223  1.0000
  H   H3698     1.0  0.48456  0.76825  0.96582  1.0000
  H   H3699     1.0  0.38461  0.75966  0.78172  1.0000
  C   C2100     1.0  0.25338  0.75866  0.89521  1.0000
  C   C2101     1.0  0.20943  0.83810  0.91659  1.0000
  H   H3700     1.0  0.22166  0.77407  0.91307  1.0000
  H   H3701     1.0  0.23377  0.75922  0.92885  1.0000
  H   H3702     1.0  0.10326  0.93965  0.79248  1.0000
  H   H3703     1.0  0.20895  0.79085  0.95636  1.0000
  H   H3704     1.0  0.21350  0.80517  0.91136  1.0000
  H   H3705     1.0  0.23524  0.80825  0.90983  1.0000
  H   H3706     1.0  0.25353  0.79158  0.92993  1.0000
  H   H3707     1.0  0.23766  0.79585  0.94946  1.0000
  H   H3708     1.0  0.25872  0.75924  0.94151  1.0000
  H   H3709     1.0  0.48386  0.57110  0.83835  1.0000
  H   H3710     1.0  0.24910  0.78620  0.89621  1.0000
  H   H3711     1.0  0.26174  0.77112  0.91179  1.0000
  H   H3712     1.0  0.22610  0.82313  0.93502  1.0000
  H   H3713     1.0  0.20389  0.81873  0.94038  1.0000
  H   H3714     1.0  0.03607  0.84750  0.96371  1.0000
  H   H3715     1.0  0.17611  0.78982  0.96558  1.0000
  H   H3716     1.0  0.09369  0.79971  0.88119  1.0000
  H   H3717     1.0  0.44356  0.90476  0.96605  1.0000
  C   C2102     1.0  0.23709  0.80846  0.84840  1.0000
  H   H3718     1.0  0.37027  0.86645  0.96343  1.0000
  H   H3719     1.0  0.26241  0.84649  0.80521  1.0000
  H   H3720     1.0  0.46234  0.58550  0.84320  1.0000
  H   H3721     1.0  0.24240  0.76079  0.88804  1.0000
  H   H3722     1.0  0.26607  0.75898  0.88515  1.0000
  H   H3723     1.0  0.25464  0.74528  0.90417  1.0000
  H   H3724     1.0  0.19864  0.83681  0.91067  1.0000
  H   H3725     1.0  0.20426  0.84934  0.92374  1.0000
  H   H3726     1.0  0.22086  0.84129  0.90577  1.0000
  H   H3727     1.0  0.44192  0.95413  0.95250  1.0000
  C   C2103     1.0  0.34516  0.81522  0.86454  1.0000
  C   C2104     1.0  0.28084  0.83253  0.82234  1.0000
  C   C2105     1.0  0.46591  0.59911  0.79487  1.0000
  H   H3728     1.0  0.33418  0.80670  0.89767  1.0000
  H   H3729     1.0  0.11846  0.79198  0.83694  1.0000
  H   H3730     1.0  0.41313  0.71338  0.81746  1.0000
  H   H3731     1.0  0.18900  0.80062  0.93364  1.0000
  H   H3732     1.0  0.46939  0.60555  0.80405  1.0000
  H   H3733     1.0  0.46443  0.92883  0.89900  1.0000
  H   H3734     1.0  0.42327  0.48932  0.82940  1.0000
  H   H3735     1.0  0.13971  0.77661  0.83349  1.0000
  S   S476      1.0  0.47254  0.51853  0.83277  1.0000
  C   C2106     1.0  0.39851  0.67334  0.84041  1.0000
  H   H3736     1.0  0.38570  0.53867  0.84010  1.0000
  C   C2107     1.0  0.01239  0.49621  0.95537  1.0000
  C   C2108     1.0  0.10968  0.95076  0.79190  1.0000
  Fe  Fe235     1.0  0.48381  0.66762  0.80820  1.0000
  C   C2109     1.0  0.45161  0.79244  0.94145  1.0000
  H   H3737     1.0  0.32555  0.82238  0.83816  1.0000
  H   H3738     1.0  0.39144  0.51794  0.88075  1.0000
  C   C2110     1.0  0.37196  0.79226  0.86845  1.0000
  C   C2111     1.0  0.38997  0.52711  0.83335  1.0000
  C   C2112     1.0  0.41628  0.72368  0.82267  1.0000
  C   C2113     1.0  0.38260  0.66565  0.80191  1.0000
  C   C2114     1.0  0.47952  0.58192  0.86255  1.0000
  H   H3739     1.0  0.40717  0.95828  0.97490  1.0000
  H   H3740     1.0  0.40900  0.49394  0.86401  1.0000
  H   H3741     1.0  0.42914  0.71800  0.82706  1.0000
  C   C2115     1.0  0.36758  0.82067  0.87742  1.0000
  H   H3742     1.0  0.12252  0.78239  0.89327  1.0000
  H   H3743     1.0  0.41226  0.76246  0.87459  1.0000
  N   N118      1.0  0.31009  0.89799  0.90255  1.0000
  C   C2116     1.0  0.29814  0.90346  0.91927  1.0000
  C   C2117     1.0  0.31136  0.91447  0.88796  1.0000
  C   C2118     1.0  0.30108  0.88638  0.89672  1.0000
  C   C2119     1.0  0.32849  0.88762  0.90528  1.0000
  C   C2120     1.0  0.33641  0.89231  0.91913  1.0000
  C   C2121     1.0  0.29289  0.88792  0.93464  1.0000
  C   C2122     1.0  0.31023  0.88080  0.87855  1.0000
  H   H3744     1.0  0.38155  0.77127  0.88986  1.0000
  H   H3745     1.0  0.11709  0.79759  0.90755  1.0000
  C   C2123     1.0  0.35638  0.88407  0.91729  1.0000
  C   C2124     1.0  0.28615  0.89383  0.95253  1.0000
  C   C2125     1.0  0.30156  0.86709  0.87528  1.0000
  H   H3746     1.0  0.28539  0.91241  0.91621  1.0000
  H   H3747     1.0  0.30426  0.91155  0.92461  1.0000
  H   H3748     1.0  0.31980  0.91085  0.87532  1.0000
  H   H3749     1.0  0.29780  0.92105  0.88509  1.0000
  H   H3750     1.0  0.28695  0.89315  0.89596  1.0000
  H   H3751     1.0  0.30023  0.87374  0.90680  1.0000
  H   H3752     1.0  0.32863  0.87303  0.90971  1.0000
  H   H3753     1.0  0.33823  0.88902  0.89231  1.0000
  H   H3754     1.0  0.32967  0.88698  0.93289  1.0000
  H   H3755     1.0  0.33479  0.90683  0.91782  1.0000
  H   H3756     1.0  0.28190  0.88329  0.93195  1.0000
  H   H3757     1.0  0.30431  0.87640  0.93585  1.0000
  H   H3758     1.0  0.32468  0.87492  0.87801  1.0000
  H   H3759     1.0  0.30880  0.89246  0.86734  1.0000
  C   C2126     1.0  0.12014  0.82802  0.88224  1.0000
  H   H3760     1.0  0.33419  0.92345  0.89104  1.0000
  H   H3761     1.0  0.09412  0.83253  0.87396  1.0000
  C   C2127     1.0  0.16950  0.79801  0.90050  1.0000
  H   H3762     1.0  0.09026  0.85357  0.89408  1.0000
  H   H3763     1.0  0.36402  0.88962  0.90403  1.0000
  H   H3764     1.0  0.36157  0.88708  0.92772  1.0000
  H   H3765     1.0  0.35871  0.86935  0.91899  1.0000
  H   H3766     1.0  0.28197  0.88258  0.96312  1.0000
  H   H3767     1.0  0.29695  0.89791  0.95619  1.0000
  C   C2128     1.0  0.33539  0.80267  0.86021  1.0000
  H   H3768     1.0  0.28712  0.87264  0.87528  1.0000
  H   H3769     1.0  0.30819  0.86358  0.86211  1.0000
  H   H3770     1.0  0.30292  0.85472  0.88569  1.0000
  H   H3771     1.0  0.21898  0.82262  0.96881  1.0000
  H   H3772     1.0  0.40251  0.74251  0.83980  1.0000
  C   C2129     1.0  0.42949  0.82271  0.96283  1.0000
  H   H3773     1.0  0.41683  0.52724  0.88586  1.0000
  C   C2130     1.0  0.37847  0.72088  0.86447  1.0000
  C   C2131     1.0  0.33820  0.84875  0.95671  1.0000
  H   H3774     1.0  0.24630  0.81592  0.85039  1.0000
  C   C2132     1.0  0.41898  0.73948  0.80715  1.0000
  Fe  Fe236     1.0  0.46736  0.52006  0.78477  1.0000
  H   H3775     1.0  0.38766  0.65227  0.80967  1.0000
  C   C2133     1.0  0.47146  0.89352  0.96409  1.0000
  H   H3776     1.0  0.40110  0.66342  0.85271  1.0000
  H   H3777     1.0  0.26062  0.78251  0.81999  1.0000
  H   H3778     1.0  0.48129  0.77839  0.80186  1.0000
  H   H3779     1.0  0.23764  0.78094  0.83044  1.0000
  H   H3780     1.0  0.21978  0.85256  0.95073  1.0000
  C   C2134     1.0  0.06758  0.96363  0.84788  1.0000
  C   C2135     1.0  0.35716  0.86403  0.96463  1.0000
  H   H3781     1.0  0.17260  0.88089  0.80750  1.0000
  H   H3782     1.0  0.21301  0.79899  0.86417  1.0000
  H   H3783     1.0  0.42258  0.50398  0.88451  1.0000
  H   H3784     1.0  0.47143  0.82015  0.79117  1.0000
  H   H3785     1.0  0.12370  0.57913  0.95424  1.0000
  H   H3786     1.0  0.41569  0.82928  0.96083  1.0000
  H   H3787     1.0  0.19535  0.85494  0.78290  1.0000
  H   H3788     1.0  0.48426  0.78897  0.85607  1.0000
  H   H3789     1.0  0.47643  0.79726  0.94605  1.0000
  C   C2136     1.0  0.37168  0.49407  0.87564  1.0000
  H   H3790     1.0  0.03460  0.88252  0.97490  1.0000
  H   H3791     1.0  0.28887  0.71852  0.79088  1.0000
  H   H3792     1.0  0.34248  0.49981  0.88267  1.0000
  C   C2137     1.0  0.16562  0.89387  0.78181  1.0000
  C   C2138     1.0  0.48198  0.82758  0.89410  1.0000
  H   H3793     1.0  0.05496  0.97919  0.82534  1.0000
  Fe  Fe237     1.0  0.49005  0.52845  0.80672  1.0000
  H   H3794     1.0  0.48685  0.80780  0.83796  1.0000
  C   C2139     1.0  0.47528  0.92130  0.92323  1.0000
  C   C2140     1.0  0.45541  0.90918  0.96717  1.0000
  H   H3795     1.0  0.37493  0.66386  0.79281  1.0000
  C   C2141     1.0  0.26234  0.77011  0.96221  1.0000
  H   H3796     1.0  0.38628  0.70129  0.79286  1.0000
  C   C2142     1.0  0.32512  0.87071  0.97539  1.0000
  H   H3797     1.0  0.20461  0.86257  0.96844  1.0000
  S   S477      1.0  0.00438  0.54608  0.97194  1.0000
  H   H3798     1.0  0.18151  0.76721  0.96194  1.0000
  C   C2143     1.0  0.35406  0.49727  0.88914  1.0000
  H   H3799     1.0  0.48396  0.81778  0.88560  1.0000
  H   H3800     1.0  0.39429  0.95039  0.96395  1.0000
  H   H3801     1.0  0.43385  0.84600  0.96968  1.0000
  C   C2144     1.0  0.34230  0.69104  0.78464  1.0000
  S   S478      1.0  0.08575  0.81555  0.96779  1.0000
  H   H3802     1.0  0.47324  0.83004  0.92125  1.0000
  H   H3803     1.0  0.46682  0.90537  0.90941  1.0000
  C   C2145     1.0  0.47494  0.93499  0.97378  1.0000
  H   H3804     1.0  0.23996  0.76116  0.95971  1.0000
  H   H3805     1.0  0.48214  0.76504  0.94493  1.0000
  H   H3806     1.0  0.48432  0.90959  0.92952  1.0000
  H   H3807     1.0  0.47929  0.85407  0.85548  1.0000
  C   C2146     1.0  0.39038  0.73257  0.77743  1.0000
  H   H3808     1.0  0.48628  0.91433  0.89722  1.0000
  H   H3809     1.0  0.48954  0.57808  0.79646  1.0000
  H   H3810     1.0  0.28034  0.79091  0.77756  1.0000
  C   C2147     1.0  0.39168  0.69391  0.78182  1.0000
  H   H3811     1.0  0.37652  0.73099  0.78424  1.0000
  H   H3812     1.0  0.44867  0.70560  0.78779  1.0000
  H   H3813     1.0  0.40664  0.66590  0.78187  1.0000
  H   H3814     1.0  0.01678  0.87227  0.97632  1.0000
  H   H3815     1.0  0.40897  0.58646  0.77756  1.0000
  H   H3816     1.0  0.41738  0.50439  0.77710  1.0000
  Fe  Fe238     1.0  0.70947  0.11830  0.05147  1.0000
  S   S479      1.0  0.70250  0.09549  0.07355  1.0000
  S   S480      1.0  0.72783  0.11381  0.02553  1.0000
  Fe  Fe239     1.0  0.68943  0.14643  0.07350  1.0000
  S   S481      1.0  0.68111  0.12592  0.09753  1.0000
  S   S482      1.0  0.68217  0.17633  0.07103  1.0000
  Fe  Fe240     1.0  0.70925  0.11032  0.09079  1.0000
  S   S483      1.0  0.72519  0.09528  0.11202  1.0000
  Fe  Fe241     1.0  0.67517  0.11315  0.07802  1.0000
  S   S484      1.0  0.64828  0.10586  0.08305  1.0000
  S   S485      1.0  0.71806  0.13199  0.06828  1.0000
  S   S486      1.0  0.68161  0.13481  0.05434  1.0000
  Fe  Fe242     1.0  0.60766  0.04538  0.00053  1.0000
  S   S487      1.0  0.61093  0.02884  0.02748  1.0000
  H   H3817     1.0  0.72513  0.06729  0.01603  1.0000
  Fe  Fe243     1.0  0.58794  0.07811  0.01588  1.0000
  S   S488      1.0  0.58984  0.06420  0.04401  1.0000
  S   S489      1.0  0.57329  0.10657  0.00923  1.0000
  Fe  Fe244     1.0  0.61804  0.05261  0.03211  1.0000
  S   S490      1.0  0.64211  0.04779  0.04429  1.0000
  Fe  Fe245     1.0  0.58252  0.04177  0.03690  1.0000
  S   S491      1.0  0.56328  0.02678  0.05765  1.0000
  S   S492      1.0  0.61689  0.06839  0.00441  1.0000
  S   S493      1.0  0.57840  0.05651  0.00951  1.0000
  Fe  Fe246     1.0  0.64717  0.23826  0.13652  1.0000
  S   S494      1.0  0.66413  0.21041  0.13909  1.0000
  Fe  Fe247     1.0  0.63680  0.27719  0.11875  1.0000
  S   S495      1.0  0.64293  0.30080  0.09719  1.0000
  H   H3818     1.0  0.65439  0.44724  0.00397  1.0000
  H   H3819     1.0  0.63046  0.00422  0.09338  1.0000
  S   S496      1.0  0.63169  0.25190  0.11493  1.0000
  Fe  Fe248     1.0  0.59073  0.38703  0.06954  1.0000
  S   S497      1.0  0.61053  0.37027  0.05170  1.0000
  S   S498      1.0  0.58144  0.37034  0.09642  1.0000
  Fe  Fe249     1.0  0.59618  0.42141  0.04189  1.0000
  S   S499      1.0  0.61588  0.40619  0.02227  1.0000
  S   S500      1.0  0.59231  0.45149  0.03747  1.0000
  Fe  Fe250     1.0  0.59641  0.38770  0.03026  1.0000
  S   S501      1.0  0.58986  0.37445  0.01110  1.0000
  Fe  Fe251     1.0  0.62738  0.39061  0.04620  1.0000
  S   S502      1.0  0.65506  0.38570  0.05187  1.0000
  S   S503      1.0  0.57572  0.40401  0.04837  1.0000
  S   S504      1.0  0.60824  0.40625  0.06533  1.0000
  H   H3820     1.0  0.54934  0.27235  0.05804  1.0000
  H   H3821     1.0  0.49424  0.17045  0.14475  1.0000
  H   H3822     1.0  0.60019  0.00303  0.08619  1.0000
  S   S505      1.0  0.51126  0.36053  0.02195  1.0000
  H   H3823     1.0  0.58506  0.44375  0.08525  1.0000
  H   H3824     1.0  0.66056  0.06791  0.98294  1.0000
  Fe  Fe252     1.0  0.81888  0.09338  0.12391  1.0000
  S   S506      1.0  0.84852  0.09062  0.11252  1.0000
  S   S507      1.0  0.79965  0.11352  0.10826  1.0000
  Fe  Fe253     1.0  0.82414  0.06348  0.15573  1.0000
  S   S508      1.0  0.85376  0.05820  0.14673  1.0000
  Fe  Fe254     1.0  0.85087  0.08781  0.14094  1.0000
  C   C2148     1.0  0.63876  0.26940  0.06627  1.0000
  Fe  Fe255     1.0  0.84872  0.06131  0.11955  1.0000
  S   S509      1.0  0.86378  0.04019  0.10370  1.0000
  S   S510      1.0  0.81905  0.06419  0.12899  1.0000
  Fe  Fe256     1.0  0.86705  0.04493  0.00772  1.0000
  S   S511      1.0  0.84380  0.03215  0.02240  1.0000
  S   S512      1.0  0.87397  0.06435  0.01988  1.0000
  C   C2149     1.0  0.70895  0.42762  0.05884  1.0000
  H   H3825     1.0  0.54868  0.40713  0.11347  1.0000
  Fe  Fe257     1.0  0.83654  0.03814  0.99560  1.0000
  H   H3826     1.0  0.51222  0.28405  0.03225  1.0000
  H   H3827     1.0  0.70670  0.21885  0.11590  1.0000
  H   H3828     1.0  0.89330  0.07555  0.09609  1.0000
  S   S513      1.0  0.88564  0.01959  0.00172  1.0000
  Fe  Fe258     1.0  0.55754  0.17995  0.06115  1.0000
  S   S514      1.0  0.55595  0.19074  0.08505  1.0000
  S   S515      1.0  0.57692  0.15370  0.06082  1.0000
  Fe  Fe259     1.0  0.53054  0.21156  0.04684  1.0000
  S   S516      1.0  0.52696  0.22499  0.06952  1.0000
  S   S517      1.0  0.51218  0.22408  0.02762  1.0000
  Fe  Fe260     1.0  0.55681  0.21688  0.06605  1.0000
  S   S518      1.0  0.57494  0.23499  0.06541  1.0000
  C   C2150     1.0  0.65054  0.15058  0.99695  1.0000
  S   S519      1.0  0.56060  0.20567  0.04168  1.0000
  S   S520      1.0  0.52780  0.18468  0.06400  1.0000
  H   H3829     1.0  0.59072  0.04219  0.08530  1.0000
  N   N119      1.0  0.61083  0.02734  0.10061  1.0000
  H   H3830     1.0  0.62921  0.98514  0.07328  1.0000
  C   C2151     1.0  0.54005  0.27218  0.04975  1.0000
  C   C2152     1.0  0.64071  0.31803  0.13857  1.0000
  Fe  Fe261     1.0  0.66233  0.43614  0.12192  1.0000
  S   S521      1.0  0.64810  0.44161  0.09915  1.0000
  S   S522      1.0  0.69141  0.42410  0.12065  1.0000
  C   C2153     1.0  0.57267  0.31922  0.15557  1.0000
  H   H3831     1.0  0.60993  0.44194  0.11037  1.0000
  H   H3832     1.0  0.69041  0.13005  0.15988  1.0000
  C   C2154     1.0  0.59170  0.05907  0.10231  1.0000
  H   H3833     1.0  0.58469  0.34763  0.16057  1.0000
  C   C2155     1.0  0.86686  0.04708  0.08042  1.0000
  C   C2156     1.0  0.86782  0.03476  0.07015  1.0000
  C   C2157     1.0  0.87013  0.03993  0.05154  1.0000
  C   C2158     1.0  0.87199  0.05736  0.04308  1.0000
  C   C2159     1.0  0.87192  0.06944  0.05328  1.0000
  C   C2160     1.0  0.86907  0.06440  0.07197  1.0000
  H   H3834     1.0  0.86660  0.02123  0.07662  1.0000
  H   H3835     1.0  0.87062  0.03039  0.04373  1.0000
  H   H3836     1.0  0.87391  0.08274  0.04669  1.0000
  H   H3837     1.0  0.86884  0.07383  0.07979  1.0000
  C   C2161     1.0  0.54845  0.28079  0.03050  1.0000
  H   H3838     1.0  0.63301  0.00409  0.05531  1.0000
  H   H3839     1.0  0.58586  0.01801  0.10800  1.0000
  H   H3840     1.0  0.60874  0.43571  0.08090  1.0000
  H   H3841     1.0  0.66288  0.46781  0.07078  1.0000
  H   H3842     1.0  0.83691  0.15134  0.16689  1.0000
  C   C2162     1.0  0.52564  0.27584  0.99163  1.0000
  H   H3843     1.0  0.86812  0.00706  0.13168  1.0000
  C   C2163     1.0  0.50389  0.25759  0.00776  1.0000
  C   C2164     1.0  0.51754  0.24386  0.01368  1.0000
  C   C2165     1.0  0.53528  0.24606  0.00843  1.0000
  H   H3844     1.0  0.61003  0.98977  0.11340  1.0000
  H   H3845     1.0  0.55105  0.09033  0.04551  1.0000
  H   H3846     1.0  0.58641  0.44877  0.11513  1.0000
  H   H3847     1.0  0.54589  0.23543  0.01284  1.0000
  H   H3848     1.0  0.61449  0.99370  0.05767  1.0000
  C   C2166     1.0  0.56801  0.37048  0.01425  1.0000
  C   C2167     1.0  0.55433  0.37557  0.02829  1.0000
  C   C2168     1.0  0.53710  0.37236  0.03043  1.0000
  C   C2169     1.0  0.53327  0.36414  0.01852  1.0000
  C   C2170     1.0  0.54699  0.35884  0.00456  1.0000
  C   C2171     1.0  0.56429  0.36198  0.00247  1.0000
  H   H3849     1.0  0.55692  0.38211  0.03746  1.0000
  H   H3850     1.0  0.52661  0.37646  0.04129  1.0000
  H   H3851     1.0  0.58485  0.17703  0.02078  1.0000
  H   H3852     1.0  0.51441  0.98927  0.98820  1.0000
  C   C2172     1.0  0.65529  0.40153  0.06394  1.0000
  C   C2173     1.0  0.64631  0.41921  0.05944  1.0000
  C   C2174     1.0  0.64482  0.43145  0.07001  1.0000
  C   C2175     1.0  0.65209  0.42614  0.08535  1.0000
  C   C2176     1.0  0.66177  0.40866  0.08954  1.0000
  C   C2177     1.0  0.66353  0.39642  0.07871  1.0000
  H   H3853     1.0  0.64021  0.42339  0.04791  1.0000
  H   H3854     1.0  0.63769  0.44503  0.06637  1.0000
  H   H3855     1.0  0.66759  0.40452  0.10126  1.0000
  H   H3856     1.0  0.67062  0.38280  0.08216  1.0000
  C   C2178     1.0  0.62572  0.31997  0.09830  1.0000
  C   C2179     1.0  0.60774  0.31859  0.10429  1.0000
  C   C2180     1.0  0.59414  0.33406  0.10441  1.0000
  C   C2181     1.0  0.59846  0.35097  0.09841  1.0000
  C   C2182     1.0  0.61644  0.35230  0.09253  1.0000
  C   C2183     1.0  0.63002  0.33688  0.09246  1.0000
  H   H3857     1.0  0.60427  0.30563  0.10791  1.0000
  H   H3858     1.0  0.58029  0.33298  0.10796  1.0000
  H   H3859     1.0  0.61990  0.36529  0.08754  1.0000
  H   H3860     1.0  0.64386  0.33809  0.08766  1.0000
  C   C2184     1.0  0.58006  0.24584  0.11771  1.0000
  C   C2185     1.0  0.58995  0.25325  0.10137  1.0000
  C   C2186     1.0  0.58821  0.24985  0.08543  1.0000
  C   C2187     1.0  0.57678  0.23884  0.08572  1.0000
  C   C2188     1.0  0.56690  0.23136  0.10204  1.0000
  C   C2189     1.0  0.56844  0.23499  0.11799  1.0000
  H   H3861     1.0  0.59865  0.26192  0.10097  1.0000
  H   H3862     1.0  0.59574  0.25579  0.07282  1.0000
  H   H3863     1.0  0.55791  0.22300  0.10236  1.0000
  H   H3864     1.0  0.56066  0.22932  0.13058  1.0000
  C   C2190     1.0  0.55162  0.01641  0.04847  1.0000
  C   C2191     1.0  0.55514  0.01749  0.03006  1.0000
  C   C2192     1.0  0.54546  0.00964  0.02276  1.0000
  H   H3865     1.0  0.74674  0.15046  0.06886  1.0000
  H   H3866     1.0  0.56543  0.02421  0.02145  1.0000
  H   H3867     1.0  0.54823  0.01056  0.00852  1.0000
  H   H3868     1.0  0.61662  0.40905  0.09698  1.0000
  C   C2193     1.0  0.57432  0.11972  0.02350  1.0000
  C   C2194     1.0  0.56291  0.13652  0.02347  1.0000
  C   C2195     1.0  0.56342  0.14704  0.03507  1.0000
  C   C2196     1.0  0.57557  0.14083  0.04647  1.0000
  C   C2197     1.0  0.58704  0.12410  0.04640  1.0000
  C   C2198     1.0  0.58641  0.11354  0.03495  1.0000
  H   H3869     1.0  0.55359  0.14135  0.01456  1.0000
  H   H3870     1.0  0.55460  0.16000  0.03505  1.0000
  H   H3871     1.0  0.59653  0.11936  0.05512  1.0000
  H   H3872     1.0  0.59546  0.10075  0.03482  1.0000
  C   C2199     1.0  0.74677  0.09907  0.10980  1.0000
  C   C2200     1.0  0.75356  0.11205  0.09595  1.0000
  C   C2201     1.0  0.76990  0.11626  0.09545  1.0000
  C   C2202     1.0  0.77997  0.10695  0.10842  1.0000
  C   C2203     1.0  0.77370  0.09326  0.12175  1.0000
  C   C2204     1.0  0.75702  0.08949  0.12257  1.0000
  H   H3873     1.0  0.74590  0.11929  0.08601  1.0000
  H   H3874     1.0  0.77466  0.12687  0.08510  1.0000
  H   H3875     1.0  0.78131  0.08607  0.13190  1.0000
  H   H3876     1.0  0.75193  0.07933  0.13329  1.0000
  C   C2205     1.0  0.67665  0.18553  0.09018  1.0000
  C   C2206     1.0  0.67470  0.20399  0.08815  1.0000
  C   C2207     1.0  0.67012  0.21183  0.10313  1.0000
  C   C2208     1.0  0.66774  0.20116  0.12024  1.0000
  C   C2209     1.0  0.66954  0.18271  0.12232  1.0000
  C   C2210     1.0  0.67405  0.17488  0.10731  1.0000
  H   H3877     1.0  0.66760  0.17445  0.13557  1.0000
  H   H3878     1.0  0.67558  0.16064  0.10896  1.0000
  C   C2211     1.0  0.64700  0.09043  0.07118  1.0000
  C   C2212     1.0  0.66210  0.07783  0.06560  1.0000
  C   C2213     1.0  0.66047  0.06479  0.05733  1.0000
  C   C2214     1.0  0.64389  0.06467  0.05407  1.0000
  C   C2215     1.0  0.62893  0.07769  0.05905  1.0000
  C   C2216     1.0  0.63042  0.09033  0.06790  1.0000
  H   H3879     1.0  0.67492  0.07779  0.06811  1.0000
  H   H3880     1.0  0.67209  0.05480  0.05342  1.0000
  H   H3881     1.0  0.61622  0.07791  0.05622  1.0000
  H   H3882     1.0  0.61874  0.10010  0.07217  1.0000
  C   C2217     1.0  0.71757  0.10619  0.01258  1.0000
  C   C2218     1.0  0.70105  0.10119  0.01982  1.0000
  C   C2219     1.0  0.69317  0.09467  0.00953  1.0000
  C   C2220     1.0  0.70165  0.09329  0.99194  1.0000
  H   H3883     1.0  0.56445  0.34251  0.13456  1.0000
  C   C2221     1.0  0.72612  0.10474  0.99502  1.0000
  H   H3884     1.0  0.69443  0.10211  0.03341  1.0000
  H   H3885     1.0  0.68060  0.09046  0.01533  1.0000
  H   H3886     1.0  0.72022  0.12195  0.14021  1.0000
  H   H3887     1.0  0.88361  0.98634  0.13746  1.0000
  H   H3888     1.0  0.69513  0.46164  0.01303  1.0000
  H   H3889     1.0  0.51345  0.24873  0.10966  1.0000
  H   H3890     1.0  0.55179  0.28219  0.14119  1.0000
  H   H3891     1.0  0.60918  0.99661  0.98708  1.0000
  H   H3892     1.0  0.65629  0.03204  0.11669  1.0000
  H   H3893     1.0  0.69712  0.05654  0.02481  1.0000
  C   C2222     1.0  0.49361  0.17803  0.11681  1.0000
  C   C2223     1.0  0.63360  0.37700  0.11455  1.0000
  N   N120      1.0  0.91672  0.04575  0.11302  1.0000
  C   C2224     1.0  0.61194  0.45994  0.02677  1.0000
  C   C2225     1.0  0.62747  0.44896  0.01932  1.0000
  C   C2226     1.0  0.64263  0.45592  0.00992  1.0000
  H   H3894     1.0  0.90109  0.02080  0.08037  1.0000
  H   H3895     1.0  0.62793  0.43506  0.02069  1.0000
  S   S523      1.0  0.62289  0.03107  0.97829  1.0000
  H   H3896     1.0  0.73020  0.21055  0.10803  1.0000
  H   H3897     1.0  0.51205  0.26273  0.04630  1.0000
  H   H3898     1.0  0.71150  0.19037  0.10668  1.0000
  H   H3899     1.0  0.58296  0.99842  0.14722  1.0000
  H   H3900     1.0  0.65978  0.10880  0.99647  1.0000
  N   N121      1.0  0.50142  0.07551  0.03280  1.0000
  H   H3901     1.0  0.88372  0.10555  0.10335  1.0000
  H   H3902     1.0  0.72109  0.20867  0.13175  1.0000
  H   H3903     1.0  0.55377  0.42353  0.09331  1.0000
  H   H3904     1.0  0.71036  0.15291  0.14793  1.0000
  C   C2227     1.0  0.87259  0.98846  0.11437  1.0000
  H   H3905     1.0  0.53797  0.09191  0.08533  1.0000
  C   C2228     1.0  0.50107  0.06078  0.02412  1.0000
  C   C2229     1.0  0.60118  0.04468  0.09094  1.0000
  H   H3906     1.0  0.73881  0.10875  0.98929  1.0000
  H   H3907     1.0  0.70956  0.32659  0.14225  1.0000
  H   H3908     1.0  0.58355  0.16813  0.00252  1.0000
  H   H3909     1.0  0.74906  0.15165  0.15019  1.0000
  H   H3910     1.0  0.60359  0.02184  0.06830  1.0000
  C   C2230     1.0  0.59709  0.01799  0.11411  1.0000
  C   C2231     1.0  0.62151  0.01619  0.08711  1.0000
  H   H3911     1.0  0.50237  0.07948  0.05851  1.0000
  H   H3912     1.0  0.54884  0.08919  0.99862  1.0000
  H   H3913     1.0  0.70191  0.18875  0.13005  1.0000
  H   H3914     1.0  0.67334  0.31794  0.14015  1.0000
  C   C2232     1.0  0.91481  0.06550  0.11174  1.0000
  H   H3915     1.0  0.89698  0.01744  0.16295  1.0000
  H   H3916     1.0  0.51134  0.27112  0.11285  1.0000
  H   H3917     1.0  0.57979  0.42903  0.14124  1.0000
  C   C2233     1.0  0.50120  0.06878  0.05244  1.0000
  C   C2234     1.0  0.61046  0.01014  0.07699  1.0000
  S   S524      1.0  0.85863  0.05280  0.98130  1.0000
  H   H3918     1.0  0.64871  0.32224  0.12505  1.0000
  H   H3919     1.0  0.49541  0.11440  0.02703  1.0000
  H   H3920     1.0  0.49152  0.11142  0.07959  1.0000
  C   C2235     1.0  0.79807  0.04631  0.97864  1.0000
  H   H3921     1.0  0.59073  0.02544  0.12504  1.0000
  H   H3922     1.0  0.63551  0.19130  0.07039  1.0000
  H   H3923     1.0  0.54390  0.99833  0.98382  1.0000
  H   H3924     1.0  0.68771  0.42169  0.00254  1.0000
  C   C2236     1.0  0.85171  0.12604  0.16041  1.0000
  N   N122      1.0  0.52096  0.28070  0.05702  1.0000
  H   H3925     1.0  0.58944  0.00917  0.99927  1.0000
  H   H3926     1.0  0.57477  0.35799  0.99155  1.0000
  H   H3927     1.0  0.68581  0.44529  0.07022  1.0000
  H   H3928     1.0  0.53565  0.33028  0.04437  1.0000
  H   H3929     1.0  0.71240  0.44524  0.02146  1.0000
  H   H3930     1.0  0.64351  0.38150  0.11915  1.0000
  H   H3931     1.0  0.95938  0.01240  0.13535  1.0000
  H   H3932     1.0  0.64022  0.05232  0.12068  1.0000
  H   H3933     1.0  0.50824  0.10198  0.00131  1.0000
  C   C2237     1.0  0.64874  0.04494  0.11027  1.0000
  H   H3934     1.0  0.76420  0.10148  0.00264  1.0000
  C   C2238     1.0  0.58481  0.98697  0.99061  1.0000
  C   C2239     1.0  0.66527  0.31864  0.15373  1.0000
  C   C2240     1.0  0.62261  0.99748  0.06511  1.0000
  Fe  Fe262     1.0  0.63002  0.26655  0.15904  1.0000
  C   C2241     1.0  0.52930  0.26512  0.08816  1.0000
  C   C2242     1.0  0.58136  0.41479  0.11225  1.0000
  C   C2243     1.0  0.52987  0.30680  0.06443  1.0000
  S   S525      1.0  0.49912  0.31982  0.01316  1.0000
  H   H3935     1.0  0.60482  0.45033  0.98850  1.0000
  H   H3936     1.0  0.79584  0.00562  0.04150  1.0000
  S   S526      1.0  0.80856  0.05247  0.99258  1.0000
  C   C2244     1.0  0.51497  0.27219  0.07643  1.0000
  C   C2245     1.0  0.59023  0.45264  0.98915  1.0000
  C   C2246     1.0  0.59747  0.43916  0.10858  1.0000
  C   C2247     1.0  0.50919  0.27725  0.04645  1.0000
  H   H3937     1.0  0.71973  0.40173  0.07385  1.0000
  H   H3938     1.0  0.67217  0.47781  0.02956  1.0000
  C   C2248     1.0  0.67785  0.35035  0.13178  1.0000
  C   C2249     1.0  0.68315  0.36831  0.12295  1.0000
  H   H3939     1.0  0.66580  0.35014  0.12716  1.0000
  H   H3940     1.0  0.68880  0.33988  0.12669  1.0000
  H   H3941     1.0  0.69626  0.36838  0.12562  1.0000
  H   H3942     1.0  0.68450  0.37060  0.10830  1.0000
  H   H3943     1.0  0.67291  0.37939  0.12804  1.0000
  N   N123      1.0  0.81431  0.09700  0.05182  1.0000
  C   C2250     1.0  0.79442  0.10166  0.05222  1.0000
  C   C2251     1.0  0.81918  0.07912  0.06400  1.0000
  C   C2252     1.0  0.81855  0.11113  0.05888  1.0000
  C   C2253     1.0  0.82534  0.09718  0.03315  1.0000
  C   C2254     1.0  0.82241  0.08439  0.02287  1.0000
  C   C2255     1.0  0.78716  0.12039  0.04153  1.0000
  C   C2256     1.0  0.83762  0.10740  0.06276  1.0000
  C   C2257     1.0  0.80878  0.06455  0.06516  1.0000
  C   C2258     1.0  0.81772  0.04628  0.07456  1.0000
  C   C2259     1.0  0.83044  0.08919  0.00297  1.0000
  C   C2260     1.0  0.76723  0.12311  0.04181  1.0000
  C   C2261     1.0  0.84039  0.12289  0.06922  1.0000
  H   H3944     1.0  0.78693  0.10082  0.06629  1.0000
  H   H3945     1.0  0.79014  0.09183  0.04739  1.0000
  H   H3946     1.0  0.83376  0.07347  0.06030  1.0000
  H   H3947     1.0  0.81678  0.08078  0.07806  1.0000
  H   H3948     1.0  0.80885  0.11331  0.07146  1.0000
  H   H3949     1.0  0.81702  0.12418  0.04932  1.0000
  H   H3950     1.0  0.82344  0.11094  0.02492  1.0000
  H   H3951     1.0  0.83987  0.09341  0.03332  1.0000
  H   H3952     1.0  0.80813  0.08478  0.02401  1.0000
  H   H3953     1.0  0.82911  0.07052  0.02801  1.0000
  H   H3954     1.0  0.78863  0.13106  0.04746  1.0000
  H   H3955     1.0  0.79429  0.12225  0.02737  1.0000
  H   H3956     1.0  0.84800  0.10571  0.05058  1.0000
  H   H3957     1.0  0.83987  0.09527  0.07330  1.0000
  H   H3958     1.0  0.79495  0.06793  0.07302  1.0000
  H   H3959     1.0  0.80780  0.06324  0.05192  1.0000
  H   H3960     1.0  0.81940  0.04689  0.08788  1.0000
  H   H3961     1.0  0.80935  0.03639  0.07637  1.0000
  H   H3962     1.0  0.83104  0.04167  0.06637  1.0000
  H   H3963     1.0  0.61756  0.16790  0.01467  1.0000
  H   H3964     1.0  0.59419  0.18697  0.99828  1.0000
  H   H3965     1.0  0.69337  0.25332  0.15304  1.0000
  H   H3966     1.0  0.76205  0.13711  0.03548  1.0000
  H   H3967     1.0  0.76491  0.11424  0.03425  1.0000
  H   H3968     1.0  0.75951  0.12038  0.05568  1.0000
  H   H3969     1.0  0.83899  0.13535  0.05888  1.0000
  H   H3970     1.0  0.83054  0.12506  0.08169  1.0000
  H   H3971     1.0  0.85404  0.11975  0.07207  1.0000
  H   H3972     1.0  0.57204  0.43755  0.98607  1.0000
  N   N124      1.0  0.62070  0.31751  0.04070  1.0000
  C   C2262     1.0  0.62616  0.31370  0.02212  1.0000
  C   C2263     1.0  0.62158  0.30027  0.05451  1.0000
  C   C2264     1.0  0.60149  0.32775  0.04300  1.0000
  C   C2265     1.0  0.63194  0.32903  0.04335  1.0000
  C   C2266     1.0  0.65224  0.32137  0.04165  1.0000
  C   C2267     1.0  0.62395  0.33015  0.00656  1.0000
  C   C2268     1.0  0.59163  0.32954  0.06233  1.0000
  C   C2269     1.0  0.63675  0.28423  0.04982  1.0000
  C   C2270     1.0  0.66197  0.33551  0.04226  1.0000
  C   C2271     1.0  0.63095  0.32465  0.98849  1.0000
  C   C2272     1.0  0.57361  0.34260  0.06246  1.0000
  H   H3973     1.0  0.61813  0.30449  0.02101  1.0000
  H   H3974     1.0  0.64030  0.30657  0.01933  1.0000
  H   H3975     1.0  0.62239  0.30269  0.06752  1.0000
  H   H3976     1.0  0.60903  0.29521  0.05715  1.0000
  H   H3977     1.0  0.59323  0.32153  0.03783  1.0000
  H   H3978     1.0  0.60076  0.34158  0.03494  1.0000
  H   H3979     1.0  0.63015  0.34220  0.03405  1.0000
  H   H3980     1.0  0.62735  0.33207  0.05691  1.0000
  H   H3981     1.0  0.65834  0.31678  0.02895  1.0000
  H   H3982     1.0  0.65462  0.31017  0.05310  1.0000
  H   H3983     1.0  0.60963  0.33669  0.00720  1.0000
  H   H3984     1.0  0.63144  0.34011  0.00682  1.0000
  H   H3985     1.0  0.59954  0.33459  0.06882  1.0000
  H   H3986     1.0  0.58904  0.31649  0.07060  1.0000
  H   H3987     1.0  0.63348  0.27859  0.03986  1.0000
  H   H3988     1.0  0.64991  0.28795  0.04409  1.0000
  H   H3989     1.0  0.65650  0.34054  0.05485  1.0000
  H   H3990     1.0  0.67644  0.32963  0.04160  1.0000
  H   H3991     1.0  0.66055  0.34696  0.03081  1.0000
  H   H3992     1.0  0.68928  0.44473  0.99397  1.0000
  H   H3993     1.0  0.88318  0.99486  0.10487  1.0000
  C   C2273     1.0  0.70409  0.46681  0.04328  1.0000
  H   H3994     1.0  0.56633  0.34283  0.07642  1.0000
  H   H3995     1.0  0.57570  0.35630  0.05589  1.0000
  H   H3996     1.0  0.56530  0.33869  0.05534  1.0000
  N   N125      1.0  0.63774  0.14317  0.99106  1.0000
  H   H3997     1.0  0.65343  0.02735  0.00553  1.0000
  C   C2274     1.0  0.63348  0.12638  0.00412  1.0000
  S   S527      1.0  0.66192  0.48208  0.99560  1.0000
  H   H3998     1.0  0.52513  0.03589  0.08128  1.0000
  H   H3999     1.0  0.66861  0.12692  0.00811  1.0000
  C   C2275     1.0  0.69406  0.43235  0.00336  1.0000
  C   C2276     1.0  0.60994  0.16134  0.00922  1.0000
  C   C2277     1.0  0.64543  0.10835  0.00021  1.0000
  C   C2278     1.0  0.64303  0.09333  0.01642  1.0000
  H   H4000     1.0  0.68333  0.16104  0.99051  1.0000
  H   H4001     1.0  0.71629  0.42407  0.04589  1.0000
  N   N126      1.0  0.55996  0.30780  0.15563  1.0000
  H   H4002     1.0  0.53591  0.32845  0.15582  1.0000
  H   H4003     1.0  0.70881  0.42813  0.99930  1.0000
  H   H4004     1.0  0.63366  0.12714  0.01793  1.0000
  H   H4005     1.0  0.61958  0.12505  0.00474  1.0000
  H   H4006     1.0  0.49722  0.28453  0.99308  1.0000
  H   H4007     1.0  0.55499  0.34558  0.15694  1.0000
  H   H4008     1.0  0.66210  0.99972  0.99318  1.0000
  C   C2279     1.0  0.62049  0.15696  0.99085  1.0000
  H   H4009     1.0  0.63812  0.14450  0.04664  1.0000
  H   H4010     1.0  0.55431  0.28184  0.17002  1.0000
  H   H4011     1.0  0.91433  0.03552  0.06411  1.0000
  H   H4012     1.0  0.54419  0.30015  0.06166  1.0000
  C   C2280     1.0  0.71819  0.09824  0.98473  1.0000
  H   H4013     1.0  0.60703  0.14919  0.01911  1.0000
  S   S528      1.0  0.85197  0.01181  0.98924  1.0000
  H   H4014     1.0  0.58923  0.28880  0.17507  1.0000
  H   H4015     1.0  0.64779  0.09586  0.02737  1.0000
  H   H4016     1.0  0.62876  0.09228  0.02098  1.0000
  H   H4017     1.0  0.65110  0.08046  0.01303  1.0000
  C   C2281     1.0  0.64258  0.47398  0.00796  1.0000
  H   H4018     1.0  0.58920  0.43230  0.16753  1.0000
  N   N127      1.0  0.59600  0.42012  0.11744  1.0000
  H   H4019     1.0  0.92568  0.07061  0.10108  1.0000
  C   C2282     1.0  0.92535  0.99116  0.98396  1.0000
  H   H4020     1.0  0.50935  0.26032  0.07751  1.0000
  H   H4021     1.0  0.61161  0.42217  0.17077  1.0000
  H   H4022     1.0  0.52949  0.05525  0.05179  1.0000
  H   H4023     1.0  0.58624  0.31423  0.14792  1.0000
  C   C2283     1.0  0.54096  0.31524  0.16397  1.0000
  C   C2284     1.0  0.89704  0.09727  0.10523  1.0000
  H   H4024     1.0  0.88573  0.07458  0.11971  1.0000
  H   H4025     1.0  0.56392  0.16993  0.13618  1.0000
  H   H4026     1.0  0.92124  0.01370  0.10080  1.0000
  H   H4027     1.0  0.61155  0.43323  0.13882  1.0000
  H   H4028     1.0  0.64210  0.34044  0.14850  1.0000
  H   H4029     1.0  0.49824  0.16900  0.04211  1.0000
  H   H4030     1.0  0.68042  0.13863  0.14035  1.0000
  H   H4031     1.0  0.89287  0.99928  0.15622  1.0000
  H   H4032     1.0  0.93718  0.02515  0.08456  1.0000
  H   H4033     1.0  0.68082  0.43304  0.05715  1.0000
  C   C2285     1.0  0.52889  0.32691  0.05858  1.0000
  C   C2286     1.0  0.59172  0.41863  0.13739  1.0000
  C   C2287     1.0  0.93562  0.03681  0.11516  1.0000
  C   C2288     1.0  0.53937  0.26187  0.99700  1.0000
  C   C2289     1.0  0.66899  0.01089  0.98646  1.0000
  H   H4034     1.0  0.73489  0.13553  0.15643  1.0000
  C   C2290     1.0  0.51861  0.30060  0.05475  1.0000
  H   H4035     1.0  0.93617  0.47795  0.00374  1.0000
  H   H4036     1.0  0.94649  0.98876  0.99841  1.0000
  H   H4037     1.0  0.68594  0.47493  0.14867  1.0000
  H   H4038     1.0  0.62894  0.14507  0.13631  1.0000
  H   H4039     1.0  0.58774  0.40572  0.14443  1.0000
  C   C2291     1.0  0.94077  0.03815  0.13232  1.0000
  H   H4040     1.0  0.94124  0.05210  0.13202  1.0000
  C   C2292     1.0  0.69764  0.45016  0.02427  1.0000
  C   C2293     1.0  0.61481  0.38778  0.12006  1.0000
  C   C2294     1.0  0.69157  0.12897  0.14591  1.0000
  H   H4041     1.0  0.59110  0.42413  0.99500  1.0000
  S   S529      1.0  0.65329  0.42109  0.14962  1.0000
  H   H4042     1.0  0.69725  0.00140  0.98733  1.0000
  H   H4043     1.0  0.61458  0.15438  0.04896  1.0000
  H   H4044     1.0  0.89887  0.04542  0.09648  1.0000
  C   C2295     1.0  0.52000  0.09126  0.00387  1.0000
  H   H4045     1.0  0.71695  0.46776  0.16640  1.0000
  C   C2296     1.0  0.93389  0.01624  0.99263  1.0000
  H   H4046     1.0  0.61139  0.47605  0.98877  1.0000
  H   H4047     1.0  0.66697  0.47081  0.17659  1.0000
  H   H4048     1.0  0.65183  0.16405  0.98873  1.0000
  C   C2297     1.0  0.92265  0.02544  0.08980  1.0000
  C   C2298     1.0  0.63428  0.22327  0.07578  1.0000
  H   H4049     1.0  0.64696  0.21746  0.06740  1.0000
  H   H4050     1.0  0.62500  0.23162  0.06700  1.0000
  H   H4051     1.0  0.63732  0.23184  0.08322  1.0000
  N   N128      1.0  0.75459  0.05276  0.03580  1.0000
  C   C2299     1.0  0.77045  0.03789  0.03944  1.0000
  C   C2300     1.0  0.74576  0.06065  0.05224  1.0000
  C   C2301     1.0  0.74119  0.04476  0.03146  1.0000
  C   C2302     1.0  0.75998  0.06714  0.02006  1.0000
  C   C2303     1.0  0.77280  0.07787  0.02228  1.0000
  C   C2304     1.0  0.77833  0.02572  0.02555  1.0000
  C   C2305     1.0  0.72306  0.05743  0.02872  1.0000
  C   C2306     1.0  0.75815  0.06058  0.06471  1.0000
  C   C2307     1.0  0.74908  0.07330  0.07744  1.0000
  C   C2308     1.0  0.77678  0.09248  0.00580  1.0000
  C   C2309     1.0  0.79672  0.01438  0.02802  1.0000
  H   H4052     1.0  0.61150  0.38536  0.13482  1.0000
  H   H4053     1.0  0.76662  0.02881  0.05244  1.0000
  H   H4054     1.0  0.78158  0.04322  0.04083  1.0000
  H   H4055     1.0  0.73829  0.07460  0.04832  1.0000
  H   H4056     1.0  0.73536  0.05327  0.06101  1.0000
  H   H4057     1.0  0.73828  0.03299  0.04216  1.0000
  H   H4058     1.0  0.74681  0.03977  0.01882  1.0000
  H   H4059     1.0  0.76594  0.06157  0.00789  1.0000
  H   H4060     1.0  0.74800  0.07727  0.01693  1.0000
  H   H4061     1.0  0.78572  0.06908  0.02463  1.0000
  H   H4062     1.0  0.76644  0.08481  0.03349  1.0000
  H   H4063     1.0  0.76939  0.01642  0.02709  1.0000
  H   H4064     1.0  0.77972  0.03357  0.01177  1.0000
  C   C2310     1.0  0.54930  0.29596  0.13319  1.0000
  H   H4065     1.0  0.71675  0.06468  0.03976  1.0000
  H   H4066     1.0  0.76143  0.04696  0.07292  1.0000
  H   H4067     1.0  0.77097  0.06440  0.05732  1.0000
  H   H4068     1.0  0.75807  0.07259  0.08642  1.0000
  H   H4069     1.0  0.74608  0.08728  0.06993  1.0000
  H   H4070     1.0  0.73645  0.06954  0.08581  1.0000
  H   H4071     1.0  0.72255  0.44499  0.16364  1.0000
  H   H4072     1.0  0.78498  0.10066  0.00830  1.0000
  H   H4073     1.0  0.91605  0.98941  0.99713  1.0000
  H   H4074     1.0  0.80194  0.00589  0.01787  1.0000
  H   H4075     1.0  0.51458  0.05847  0.08332  1.0000
  H   H4076     1.0  0.92317  0.01188  0.06902  1.0000
  H   H4077     1.0  0.55313  0.26344  0.99265  1.0000
  H   H4078     1.0  0.53480  0.30180  0.13670  1.0000
  H   H4079     1.0  0.55021  0.29438  0.03001  1.0000
  N   N129      1.0  0.52091  0.12689  0.07957  1.0000
  C   C2311     1.0  0.52964  0.11600  0.06540  1.0000
  C   C2312     1.0  0.51150  0.14486  0.07079  1.0000
  C   C2313     1.0  0.53560  0.13007  0.08671  1.0000
  C   C2314     1.0  0.50821  0.11784  0.09491  1.0000
  C   C2315     1.0  0.54266  0.09831  0.07126  1.0000
  C   C2316     1.0  0.52944  0.14191  0.10098  1.0000
  C   C2317     1.0  0.49542  0.14513  0.06293  1.0000
  H   H4080     1.0  0.49116  0.09216  0.11874  1.0000
  H   H4081     1.0  0.69883  0.41305  0.08537  1.0000
  C   C2318     1.0  0.54486  0.14155  0.10950  1.0000
  H   H4082     1.0  0.53751  0.12389  0.05370  1.0000
  H   H4083     1.0  0.51946  0.11297  0.05991  1.0000
  H   H4084     1.0  0.50601  0.15378  0.08045  1.0000
  H   H4085     1.0  0.52126  0.15148  0.05995  1.0000
  H   H4086     1.0  0.54542  0.13626  0.07559  1.0000
  H   H4087     1.0  0.54333  0.11719  0.09300  1.0000
  H   H4088     1.0  0.51537  0.10966  0.10568  1.0000
  H   H4089     1.0  0.49775  0.12802  0.10136  1.0000
  H   H4090     1.0  0.55604  0.10114  0.07007  1.0000
  H   H4091     1.0  0.51844  0.13749  0.11180  1.0000
  H   H4092     1.0  0.52473  0.15604  0.09489  1.0000
  H   H4093     1.0  0.49910  0.13640  0.05310  1.0000
  H   H4094     1.0  0.57793  0.36362  0.14146  1.0000
  C   C2319     1.0  0.60045  0.46368  0.08079  1.0000
  H   H4095     1.0  0.71526  0.04011  0.01594  1.0000
  H   H4096     1.0  0.76078  0.11173  0.14952  1.0000
  H   H4097     1.0  0.53175  0.08222  0.05994  1.0000
  H   H4098     1.0  0.54015  0.15065  0.11911  1.0000
  H   H4099     1.0  0.54969  0.12787  0.11680  1.0000
  H   H4100     1.0  0.55611  0.14618  0.09917  1.0000
  H   H4101     1.0  0.54012  0.28190  0.02086  1.0000
  C   C2320     1.0  0.56061  0.30782  0.13638  1.0000
  H   H4102     1.0  0.69924  0.40281  0.06725  1.0000
  S   S530      1.0  0.68576  0.43249  0.16089  1.0000
  H   H4103     1.0  0.57989  0.40104  0.11947  1.0000
  C   C2321     1.0  0.50787  0.27376  0.99715  1.0000
  H   H4104     1.0  0.59459  0.34380  0.13823  1.0000
  C   C2322     1.0  0.68890  0.43544  0.02244  1.0000
  H   H4105     1.0  0.68420  0.35211  0.15623  1.0000
  H   H4106     1.0  0.59988  0.98735  0.00984  1.0000
  C   C2323     1.0  0.67379  0.34753  0.15246  1.0000
  C   C2324     1.0  0.91482  0.02335  0.07489  1.0000
  H   H4107     1.0  0.68824  0.47904  0.08538  1.0000
  H   H4108     1.0  0.50446  0.30672  0.05981  1.0000
  H   H4109     1.0  0.91630  0.06813  0.12435  1.0000
  C   C2325     1.0  0.70542  0.31415  0.15052  1.0000
  C   C2326     1.0  0.54941  0.42140  0.10807  1.0000
  H   H4110     1.0  0.91810  0.05384  0.08440  1.0000
  C   C2327     1.0  0.56690  0.26976  0.02409  1.0000
  H   H4111     1.0  0.57848  0.99034  0.12973  1.0000
  C   C2328     1.0  0.69072  0.44067  0.05737  1.0000
  H   H4112     1.0  0.69037  0.11529  0.14594  1.0000
  C   C2329     1.0  0.56242  0.42667  0.11613  1.0000
  H   H4113     1.0  0.61450  0.99792  0.13067  1.0000
  H   H4114     1.0  0.57261  0.27615  0.01030  1.0000
  H   H4115     1.0  0.67410  0.43904  0.02603  1.0000
  H   H4116     1.0  0.69336  0.42254  0.03129  1.0000
  C   C2330     1.0  0.51833  0.08244  0.02398  1.0000
  H   H4117     1.0  0.82402  0.10291  0.99708  1.0000
  H   H4118     1.0  0.61130  0.15260  0.98501  1.0000
  H   H4119     1.0  0.51499  0.04072  0.05287  1.0000
  H   H4120     1.0  0.50375  0.28160  0.08312  1.0000
  C   C2331     1.0  0.64533  0.32566  0.15228  1.0000
  H   H4121     1.0  0.67597  0.13469  0.98439  1.0000
  C   C2332     1.0  0.84782  0.14017  0.16942  1.0000
  H   H4122     1.0  0.63468  0.20161  0.09855  1.0000
  H   H4123     1.0  0.65851  0.05309  0.10169  1.0000
  C   C2333     1.0  0.68172  0.14893  0.00109  1.0000
  C   C2334     1.0  0.61189  0.47803  0.02501  1.0000
  H   H4124     1.0  0.54424  0.35244  0.99533  1.0000
  H   H4125     1.0  0.71881  0.28893  0.16491  1.0000
  H   H4126     1.0  0.76462  0.12310  0.16466  1.0000
  C   C2335     1.0  0.54489  0.08501  0.05952  1.0000
  C   C2336     1.0  0.62569  0.20861  0.08908  1.0000
  C   C2337     1.0  0.61359  0.40796  0.11163  1.0000
  H   H4127     1.0  0.67687  0.21226  0.07491  1.0000
  H   H4128     1.0  0.62273  0.13728  0.06674  1.0000
  C   C2338     1.0  0.49855  0.10504  0.09074  1.0000
  H   H4129     1.0  0.62591  0.26497  0.07245  1.0000
  H   H4130     1.0  0.75206  0.17219  0.06010  1.0000
  H   H4131     1.0  0.58891  0.19538  0.09486  1.0000
  H   H4132     1.0  0.61293  0.21542  0.09650  1.0000
  H   H4133     1.0  0.70661  0.03729  0.03983  1.0000
  H   H4134     1.0  0.62631  0.32296  0.13811  1.0000
  C   C2339     1.0  0.59828  0.18589  0.10305  1.0000
  H   H4135     1.0  0.57475  0.30348  0.12954  1.0000
  Fe  Fe263     1.0  0.86174  0.00716  0.01460  1.0000
  H   H4136     1.0  0.58311  0.45347  0.00302  1.0000
  N   N130      1.0  0.72892  0.15654  0.12239  1.0000
  C   C2340     1.0  0.74519  0.14309  0.12734  1.0000
  C   C2341     1.0  0.72877  0.15715  0.10322  1.0000
  C   C2342     1.0  0.72979  0.17449  0.12493  1.0000
  C   C2343     1.0  0.71192  0.15137  0.13402  1.0000
  H   H4137     1.0  0.55354  0.07220  0.06455  1.0000
  H   H4138     1.0  0.50824  0.09301  0.08711  1.0000
  C   C2344     1.0  0.71430  0.19008  0.11976  1.0000
  C   C2345     1.0  0.74299  0.16622  0.08886  1.0000
  C   C2346     1.0  0.74259  0.16463  0.07017  1.0000
  H   H4139     1.0  0.72895  0.17018  0.06729  1.0000
  H   H4140     1.0  0.66893  0.22605  0.10142  1.0000
  C   C2347     1.0  0.71841  0.20812  0.11884  1.0000
  H   H4141     1.0  0.75769  0.14726  0.11907  1.0000
  H   H4142     1.0  0.74571  0.13007  0.12421  1.0000
  H   H4143     1.0  0.73079  0.14344  0.10101  1.0000
  H   H4144     1.0  0.71538  0.16386  0.10005  1.0000
  H   H4145     1.0  0.74287  0.17806  0.11764  1.0000
  H   H4146     1.0  0.72933  0.17402  0.13917  1.0000
  H   H4147     1.0  0.75670  0.16006  0.09120  1.0000
  H   H4148     1.0  0.70019  0.16069  0.12932  1.0000
  H   H4149     1.0  0.74040  0.18067  0.08885  1.0000
  H   H4150     1.0  0.71013  0.13070  0.12093  1.0000
  H   H4151     1.0  0.64305  0.27413  0.07622  1.0000
  C   C2348     1.0  0.62245  0.19544  0.07932  1.0000
  S   S531      1.0  0.69527  0.38201  0.15725  1.0000
  H   H4152     1.0  0.53862  0.25312  0.08397  1.0000
  H   H4153     1.0  0.93112  0.03343  0.14446  1.0000
  H   H4154     1.0  0.57527  0.28072  0.15523  1.0000
  C   C2349     1.0  0.87094  0.99242  0.13265  1.0000
  H   H4155     1.0  0.52451  0.30393  0.07903  1.0000
  C   C2350     1.0  0.53841  0.00734  0.05956  1.0000
  H   H4156     1.0  0.64915  0.25784  0.06240  1.0000
  H   H4157     1.0  0.61298  0.20321  0.07041  1.0000
  H   H4158     1.0  0.89954  0.01411  0.12459  1.0000
  H   H4159     1.0  0.53582  0.42972  0.11133  1.0000
  H   H4160     1.0  0.69796  0.24123  0.13554  1.0000
  H   H4161     1.0  0.60056  0.19356  0.11190  1.0000
  H   H4162     1.0  0.64328  0.16961  0.09437  1.0000
  H   H4163     1.0  0.62781  0.17394  0.11393  1.0000
  C   C2351     1.0  0.53215  0.00073  0.03380  1.0000
  S   S532      1.0  0.71420  0.46190  0.12137  1.0000
  H   H4164     1.0  0.57459  0.31821  0.16919  1.0000
  H   H4165     1.0  0.92372  0.01527  0.00528  1.0000
  Fe  Fe264     1.0  0.52639  0.19764  0.08634  1.0000
  H   H4166     1.0  0.53132  0.25448  0.11584  1.0000
  H   H4167     1.0  0.57127  0.07176  0.08659  1.0000
  C   C2352     1.0  0.51594  0.05239  0.05757  1.0000
  N   N131      1.0  0.69128  0.45631  0.04181  1.0000
  C   C2353     1.0  0.62950  0.16833  0.10193  1.0000
  H   H4168     1.0  0.64514  0.15273  0.01082  1.0000
  C   C2354     1.0  0.66948  0.13888  0.99724  1.0000
  H   H4169     1.0  0.94532  0.04246  0.10348  1.0000
  H   H4170     1.0  0.63399  0.36263  0.12051  1.0000
  N   N132      1.0  0.61570  0.17921  0.09106  1.0000
  H   H4171     1.0  0.63058  0.17510  0.05319  1.0000
  H   H4172     1.0  0.82804  0.07981  0.99600  1.0000
  S   S533      1.0  0.82122  0.09311  0.15172  1.0000
  C   C2355     1.0  0.86609  0.11179  0.16328  1.0000
  S   S534      1.0  0.87195  0.09428  0.15154  1.0000
  H   H4173     1.0  0.84510  0.08821  0.00075  1.0000
  H   H4174     1.0  0.91794  0.01130  0.13535  1.0000
  C   C2356     1.0  0.60687  0.42063  0.14548  1.0000
  H   H4175     1.0  0.66481  0.26860  0.16821  1.0000
  H   H4176     1.0  0.62490  0.41229  0.11411  1.0000
  H   H4177     1.0  0.55061  0.30803  0.10490  1.0000
  Fe  Fe265     1.0  0.68264  0.41085  0.14917  1.0000
  H   H4178     1.0  0.58496  0.41407  0.09791  1.0000
  C   C2357     1.0  0.70976  0.04712  0.02727  1.0000
  H   H4179     1.0  0.64103  0.15837  0.06945  1.0000
  Fe  Fe266     1.0  0.50118  0.34857  0.00414  1.0000
  H   H4180     1.0  0.64019  0.12527  0.12753  1.0000
  C   C2358     1.0  0.52074  0.25956  0.10782  1.0000
  S   S535      1.0  0.65502  0.26317  0.13795  1.0000
  H   H4181     1.0  0.93842  0.02240  0.11499  1.0000
  H   H4182     1.0  0.51999  0.09205  0.03120  1.0000
  C   C2359     1.0  0.69052  0.31849  0.16670  1.0000
  C   C2360     1.0  0.61219  0.16913  0.07894  1.0000
  C   C2361     1.0  0.62853  0.16344  0.06424  1.0000
  H   H4183     1.0  0.60122  0.17738  0.07204  1.0000
  H   H4184     1.0  0.65127  0.14373  0.12271  1.0000
  H   H4185     1.0  0.53727  0.27511  0.08708  1.0000
  H   H4186     1.0  0.66656  0.30450  0.16088  1.0000
  C   C2362     1.0  0.59776  0.44453  0.08826  1.0000
  H   H4187     1.0  0.53565  0.11023  0.00393  1.0000
  H   H4188     1.0  0.87814  0.02080  0.15251  1.0000
  H   H4189     1.0  0.59071  0.08184  0.07989  1.0000
  H   H4190     1.0  0.84384  0.12637  0.15096  1.0000
  H   H4191     1.0  0.90286  0.04431  0.14061  1.0000
  C   C2363     1.0  0.95929  0.02672  0.13412  1.0000
  H   H4192     1.0  0.71801  0.45880  0.04137  1.0000
  H   H4193     1.0  0.61046  0.05066  0.07911  1.0000
  C   C2364     1.0  0.51402  0.04711  0.07783  1.0000
  C   C2365     1.0  0.58820  0.17165  0.11585  1.0000
  C   C2366     1.0  0.57125  0.18034  0.12759  1.0000
  H   H4194     1.0  0.57473  0.18733  0.13632  1.0000
  H   H4195     1.0  0.63728  0.37849  0.09983  1.0000
  C   C2367     1.0  0.87627  0.11157  0.17551  1.0000
  H   H4196     1.0  0.61312  0.46525  0.08329  1.0000
  C   C2368     1.0  0.72203  0.30181  0.15671  1.0000
  C   C2369     1.0  0.90289  0.03919  0.12876  1.0000
  C   C2370     1.0  0.63018  0.14788  0.10797  1.0000
  C   C2371     1.0  0.63816  0.14006  0.12466  1.0000
  H   H4197     1.0  0.59661  0.16266  0.12511  1.0000
  H   H4198     1.0  0.66119  0.35730  0.15607  1.0000
  H   H4199     1.0  0.71750  0.43383  0.06356  1.0000
  H   H4200     1.0  0.70115  0.30733  0.14225  1.0000
  C   C2372     1.0  0.62575  0.14903  0.05619  1.0000
  C   C2373     1.0  0.55362  0.29461  0.11356  1.0000
  H   H4201     1.0  0.92797  0.02632  0.98201  1.0000
  H   H4202     1.0  0.64183  0.10484  0.98906  1.0000
  C   C2374     1.0  0.58902  0.99056  0.13660  1.0000
  H   H4203     1.0  0.56219  0.19012  0.11940  1.0000
  H   H4204     1.0  0.94520  0.02085  0.99470  1.0000
  C   C2375     1.0  0.58146  0.07553  0.09145  1.0000
  H   H4205     1.0  0.60556  0.38233  0.11549  1.0000
  C   C2376     1.0  0.70646  0.41026  0.07217  1.0000
  H   H4206     1.0  0.58419  0.16377  0.10838  1.0000
  C   C2377     1.0  0.94070  0.99810  0.98726  1.0000
  H   H4207     1.0  0.90012  0.10007  0.11702  1.0000
  H   H4208     1.0  0.96960  0.03102  0.12238  1.0000
  H   H4209     1.0  0.50114  0.04277  0.08417  1.0000
  H   H4210     1.0  0.85977  0.99509  0.11005  1.0000
  H   H4211     1.0  0.53569  0.33134  0.06679  1.0000
  H   H4212     1.0  0.57457  0.08550  0.09993  1.0000
  H   H4213     1.0  0.51402  0.05087  0.02342  1.0000
  H   H4214     1.0  0.77549  0.12752  0.14148  1.0000
  H   H4215     1.0  0.63074  0.02373  0.07664  1.0000
  C   C2378     1.0  0.66770  0.02158  0.00046  1.0000
  H   H4216     1.0  0.56241  0.44101  0.11053  1.0000
  H   H4217     1.0  0.56797  0.28845  0.10945  1.0000
  C   C2379     1.0  0.91346  0.04336  0.09584  1.0000
  H   H4218     1.0  0.67502  0.03266  0.99466  1.0000
  H   H4219     1.0  0.52136  0.08114  0.99591  1.0000
  C   C2380     1.0  0.59206  0.17417  0.00748  1.0000
  H   H4220     1.0  0.61698  0.14424  0.11094  1.0000
  Fe  Fe267     1.0  0.60830  0.25597  0.13752  1.0000
  Fe  Fe268     1.0  0.65710  0.44422  0.15889  1.0000
  H   H4221     1.0  0.90217  0.98622  0.07712  1.0000
  H   H4222     1.0  0.53575  0.00627  0.07384  1.0000
  H   H4223     1.0  0.56586  0.25605  0.02403  1.0000
  H   H4224     1.0  0.64548  0.31860  0.98670  1.0000
  H   H4225     1.0  0.60699  0.15706  0.08660  1.0000
  H   H4226     1.0  0.60124  0.46696  0.06615  1.0000
  H   H4227     1.0  0.60145  0.06353  0.10716  1.0000
  H   H4228     1.0  0.64654  0.03518  0.08829  1.0000
  H   H4229     1.0  0.63063  0.05518  0.09250  1.0000
  C   C2381     1.0  0.89666  0.07752  0.10811  1.0000
  H   H4230     1.0  0.63655  0.32149  0.16536  1.0000
  S   S536      1.0  0.62334  0.24071  0.15900  1.0000
  H   H4231     1.0  0.63871  0.14097  0.09722  1.0000
  C   C2382     1.0  0.52852  0.99969  0.05222  1.0000
  H   H4232     1.0  0.66311  0.45924  0.04242  1.0000
  C   C2383     1.0  0.89226  0.01387  0.15259  1.0000
  H   H4233     1.0  0.71304  0.34929  0.17616  1.0000
  C   C2384     1.0  0.62350  0.03047  0.11033  1.0000
  H   H4234     1.0  0.62895  0.33663  0.97767  1.0000
  H   H4235     1.0  0.53029  0.07140  0.02482  1.0000
  C   C2385     1.0  0.59652  0.99561  0.99706  1.0000
  H   H4236     1.0  0.64336  0.30322  0.14223  1.0000
  H   H4237     1.0  0.84227  0.00607  0.08451  1.0000
  C   C2386     1.0  0.63732  0.04188  0.09887  1.0000
  S   S537      1.0  0.58157  0.25052  0.13779  1.0000
  H   H4238     1.0  0.53191  0.30658  0.16391  1.0000
  H   H4239     1.0  0.63144  0.01754  0.11625  1.0000
  C   C2387     1.0  0.90420  0.01876  0.13433  1.0000
  C   C2388     1.0  0.58204  0.34918  0.14710  1.0000
  C   C2389     1.0  0.76296  0.12458  0.15083  1.0000
  H   H4240     1.0  0.51837  0.99268  0.06082  1.0000
  H   H4241     1.0  0.88921  0.04486  0.12602  1.0000
  H   H4242     1.0  0.80637  0.02304  0.02617  1.0000
  H   H4243     1.0  0.58187  0.05390  0.11401  1.0000
  C   C2390     1.0  0.60416  0.99849  0.12326  1.0000
  H   H4244     1.0  0.61850  0.40933  0.14410  1.0000
  H   H4245     1.0  0.70118  0.46948  0.05696  1.0000
  S   S538      1.0  0.61233  0.28216  0.13991  1.0000
  H   H4246     1.0  0.61592  0.03678  0.12185  1.0000
  H   H4247     1.0  0.51476  0.33436  0.06021  1.0000
  S   S539      1.0  0.50777  0.19312  0.11290  1.0000
  Fe  Fe269     1.0  0.69203  0.44674  0.13237  1.0000
  S   S540      1.0  0.66361  0.46018  0.13120  1.0000
  C   C2391     1.0  0.70964  0.13237  0.13451  1.0000
  H   H4248     1.0  0.55582  0.32146  0.12899  1.0000
  C   C2392     1.0  0.56591  0.28861  0.16489  1.0000
  C   C2393     1.0  0.74694  0.13957  0.14708  1.0000
  H   H4249     1.0  0.52134  0.30703  0.04035  1.0000
  C   C2394     1.0  0.67262  0.46755  0.04212  1.0000
  H   H4250     1.0  0.54104  0.25778  0.05030  1.0000
  C   C2395     1.0  0.53656  0.09952  0.99683  1.0000
  H   H4251     1.0  0.57613  0.26889  0.03289  1.0000
  H   H4252     1.0  0.78437  0.08663  0.99411  1.0000
  H   H4253     1.0  0.90720  0.10119  0.09318  1.0000
  H   H4254     1.0  0.55715  0.42501  0.13074  1.0000
  H   H4255     1.0  0.54545  0.28603  0.11163  1.0000
  C   C2396     1.0  0.56720  0.33957  0.14811  1.0000
  H   H4256     1.0  0.73270  0.29903  0.14494  1.0000
  H   H4257     1.0  0.58906  0.47323  0.08695  1.0000
  C   C2397     1.0  0.58659  0.43619  0.98513  1.0000
  C   C2398     1.0  0.60047  0.42081  0.16536  1.0000
  N   N133      1.0  0.67248  0.32889  0.16297  1.0000
  H   H4258     1.0  0.96279  0.02819  0.14630  1.0000
  H   H4259     1.0  0.67341  0.01282  0.01190  1.0000
  Fe  Fe270     1.0  0.50858  0.31877  0.98430  1.0000
  H   H4260     1.0  0.59613  0.40819  0.17279  1.0000
  S   S541      1.0  0.52075  0.99059  0.02416  1.0000
  C   C2399     1.0  0.66439  0.47737  0.05785  1.0000
  H   H4261     1.0  0.49971  0.06628  0.01003  1.0000
  H   H4262     1.0  0.87372  0.04398  0.17520  1.0000
  C   C2400     1.0  0.68733  0.22660  0.16166  1.0000
  H   H4263     1.0  0.84680  0.02733  0.16970  1.0000
  H   H4264     1.0  0.89221  0.98786  0.98612  1.0000
  H   H4265     1.0  0.62304  0.16991  0.98221  1.0000
  H   H4266     1.0  0.62354  0.31498  0.98732  1.0000
  H   H4267     1.0  0.67625  0.15284  0.01424  1.0000
  H   H4268     1.0  0.69308  0.21369  0.15732  1.0000
  H   H4269     1.0  0.84561  0.99649  0.06520  1.0000
  H   H4270     1.0  0.72722  0.30816  0.16476  1.0000
  C   C2401     1.0  0.72059  0.45364  0.17332  1.0000
  C   C2402     1.0  0.84025  0.99484  0.07980  1.0000
  C   C2403     1.0  0.69858  0.23992  0.14966  1.0000
  H   H4271     1.0  0.69620  0.32586  0.17337  1.0000
  H   H4272     1.0  0.69517  0.14020  0.00142  1.0000
  H   H4273     1.0  0.89771  0.98977  0.02646  1.0000
  H   H4274     1.0  0.57328  0.98450  0.00172  1.0000
  H   H4275     1.0  0.71278  0.23529  0.15103  1.0000
  H   H4276     1.0  0.63656  0.48006  0.05644  1.0000
  H   H4277     1.0  0.56887  0.47097  0.97792  1.0000
  H   H4278     1.0  0.53768  0.10545  0.98238  1.0000
  S   S542      1.0  0.69102  0.08588  0.97913  1.0000
  S   S543      1.0  0.53075  0.29575  0.97779  1.0000
  Fe  Fe271     1.0  0.49352  0.98582  0.03981  1.0000
  H   H4279     1.0  0.85977  0.98706  0.14247  1.0000
  H   H4280     1.0  0.49887  0.02696  0.02155  1.0000
  H   H4281     1.0  0.82564  0.99541  0.08233  1.0000
  H   H4282     1.0  0.68896  0.30573  0.17625  1.0000
  H   H4283     1.0  0.67349  0.23138  0.15938  1.0000
  H   H4284     1.0  0.87371  0.98763  0.08138  1.0000
  H   H4285     1.0  0.88891  0.05736  0.17577  1.0000
  H   H4286     1.0  0.94180  0.48084  0.97975  1.0000
  H   H4287     1.0  0.58259  0.48039  0.00658  1.0000
  H   H4288     1.0  0.77793  0.07064  0.97736  1.0000
  C   C2404     1.0  0.68875  0.00474  0.97720  1.0000
  H   H4289     1.0  0.56927  0.01130  0.97847  1.0000
  C   C2405     1.0  0.55172  0.98674  0.97772  1.0000
  H   H4290     1.0  0.65029  0.05271  0.97754  1.0000
  H   H4291     1.0  0.81609  0.02097  0.97696  1.0000
  H   H4292     1.0  0.72520  0.37188  0.23556  1.0000
  C   C2406     1.0  0.64198  0.46680  0.19403  1.0000
  H   H4293     1.0  0.71243  0.30645  0.32117  1.0000
  C   C2407     1.0  0.70464  0.40508  0.22460  1.0000
  C   C2408     1.0  0.70562  0.44930  0.18932  1.0000
  C   C2409     1.0  0.85848  0.00102  0.28043  1.0000
  H   H4294     1.0  0.88920  0.03068  0.31038  1.0000
  H   H4295     1.0  0.83052  0.25691  0.26778  1.0000
  Fe  Fe272     1.0  0.96067  0.30162  0.36100  1.0000
  S   S544      1.0  0.94976  0.32300  0.33952  1.0000
  H   H4296     1.0  0.83234  0.20674  0.33713  1.0000
  Fe  Fe273     1.0  0.96143  0.34090  0.34938  1.0000
  H   H4297     1.0  0.69607  0.45197  0.25687  1.0000
  Fe  Fe274     1.0  0.92582  0.32884  0.36116  1.0000
  S   S545      1.0  0.89668  0.33252  0.36082  1.0000
  H   H4298     1.0  0.82845  0.00761  0.23499  1.0000
  C   C2410     1.0  0.97686  0.06928  0.24377  1.0000
  Fe  Fe275     1.0  0.82796  0.27314  0.34001  1.0000
  S   S546      1.0  0.82560  0.30122  0.32426  1.0000
  H   H4299     1.0  0.69305  0.18959  0.19082  1.0000
  Fe  Fe276     1.0  0.84587  0.25671  0.30772  1.0000
  S   S547      1.0  0.84468  0.28345  0.28913  1.0000
  S   S548      1.0  0.86252  0.23209  0.29791  1.0000
  Fe  Fe277     1.0  0.85361  0.29162  0.30996  1.0000
  S   S549      1.0  0.87712  0.30529  0.30126  1.0000
  Fe  Fe278     1.0  0.81683  0.29048  0.30496  1.0000
  S   S550      1.0  0.79363  0.30768  0.29271  1.0000
  S   S551      1.0  0.85672  0.26441  0.32752  1.0000
  S   S552      1.0  0.81715  0.26291  0.32187  1.0000
  Fe  Fe279     1.0  0.68128  0.29232  0.27125  1.0000
  S   S553      1.0  0.70078  0.27051  0.25887  1.0000
  S   S554      1.0  0.65858  0.28638  0.29415  1.0000
  Fe  Fe280     1.0  0.69810  0.32134  0.24546  1.0000
  S   S555      1.0  0.71962  0.30223  0.23095  1.0000
  S   S556      1.0  0.69243  0.35140  0.23954  1.0000
  Fe  Fe281     1.0  0.69730  0.28861  0.23257  1.0000
  S   S557      1.0  0.69727  0.27840  0.20832  1.0000
  Fe  Fe282     1.0  0.72148  0.28560  0.25829  1.0000
  S   S558      1.0  0.74687  0.26898  0.26704  1.0000
  S   S559      1.0  0.67575  0.30901  0.24496  1.0000
  S   S560      1.0  0.70212  0.30603  0.27270  1.0000
  C   C2411     1.0  0.84300  0.02347  0.18396  1.0000
  C   C2412     1.0  0.82023  0.21542  0.21183  1.0000
  N   N134      1.0  0.72067  0.28100  0.33823  1.0000
  C   C2413     1.0  0.93962  0.08374  0.24151  1.0000
  C   C2414     1.0  0.65555  0.22368  0.19330  1.0000
  C   C2415     1.0  0.95601  0.12811  0.22045  1.0000
  H   H4300     1.0  0.89750  0.38987  0.33315  1.0000
  H   H4301     1.0  0.67283  0.45348  0.25679  1.0000
  H   H4302     1.0  0.87714  0.02451  0.25878  1.0000
  S   S561      1.0  0.91742  0.05836  0.32286  1.0000
  Fe  Fe283     1.0  0.85519  0.16377  0.25350  1.0000
  S   S562      1.0  0.86580  0.17897  0.22654  1.0000
  S   S563      1.0  0.83314  0.17836  0.27228  1.0000
  Fe  Fe284     1.0  0.88029  0.12901  0.24641  1.0000
  S   S564      1.0  0.89332  0.14173  0.21903  1.0000
  S   S565      1.0  0.88804  0.09910  0.25311  1.0000
  Fe  Fe285     1.0  0.89272  0.16397  0.23214  1.0000
  S   S566      1.0  0.91413  0.17992  0.22674  1.0000
  Fe  Fe286     1.0  0.86520  0.15521  0.21625  1.0000
  S   S567      1.0  0.88217  0.15001  0.25987  1.0000
  S   S568      1.0  0.85217  0.14126  0.24291  1.0000
  S   S569      1.0  0.93677  0.01361  0.30399  1.0000
  C   C2416     1.0  0.64658  0.27685  0.19121  1.0000
  H   H4303     1.0  0.96957  0.10158  0.36907  1.0000
  H   H4304     1.0  0.88714  0.26766  0.35389  1.0000
  C   C2417     1.0  0.64813  0.41964  0.22149  1.0000
  S   S570      1.0  0.95955  0.18901  0.31274  1.0000
  H   H4305     1.0  0.65747  0.47077  0.31986  1.0000
  C   C2418     1.0  0.85022  0.07993  0.24509  1.0000
  H   H4306     1.0  0.73452  0.25400  0.34709  1.0000
  H   H4307     1.0  0.83557  0.08208  0.24993  1.0000
  C   C2419     1.0  0.70144  0.27113  0.36960  1.0000
  H   H4308     1.0  0.69692  0.29688  0.35188  1.0000
  H   H4309     1.0  0.70340  0.45900  0.19796  1.0000
  C   C2420     1.0  0.66425  0.42108  0.22794  1.0000
  C   C2421     1.0  0.67867  0.19585  0.19086  1.0000
  H   H4310     1.0  0.74218  0.30121  0.34175  1.0000
  H   H4311     1.0  0.97080  0.23768  0.25259  1.0000
  C   C2422     1.0  0.97809  0.08643  0.34091  1.0000
  C   C2423     1.0  0.72484  0.29787  0.32544  1.0000
  C   C2424     1.0  0.97213  0.24607  0.34500  1.0000
  H   H4312     1.0  0.94397  0.06081  0.22922  1.0000
  H   H4313     1.0  0.71205  0.42071  0.19040  1.0000
  H   H4314     1.0  0.74067  0.27015  0.35473  1.0000
  C   C2425     1.0  0.92822  0.17393  0.24220  1.0000
  C   C2426     1.0  0.93004  0.15707  0.25342  1.0000
  C   C2427     1.0  0.94219  0.15208  0.26486  1.0000
  C   C2428     1.0  0.95207  0.16413  0.26568  1.0000
  C   C2429     1.0  0.93812  0.18601  0.24297  1.0000
  H   H4315     1.0  0.92248  0.14770  0.25287  1.0000
  H   H4316     1.0  0.94377  0.13896  0.27331  1.0000
  C   C2430     1.0  0.90845  0.06981  0.30394  1.0000
  C   C2431     1.0  0.91007  0.06095  0.29029  1.0000
  C   C2432     1.0  0.90338  0.07004  0.27498  1.0000
  C   C2433     1.0  0.89554  0.08822  0.27291  1.0000
  C   C2434     1.0  0.89417  0.09727  0.28635  1.0000
  C   C2435     1.0  0.90026  0.08797  0.30207  1.0000
  H   H4317     1.0  0.90472  0.06303  0.26450  1.0000
  H   H4318     1.0  0.88848  0.11137  0.28455  1.0000
  H   H4319     1.0  0.89915  0.09492  0.31252  1.0000
  H   H4320     1.0  0.95476  0.13650  0.19221  1.0000
  H   H4321     1.0  0.90758  0.28862  0.34505  1.0000
  H   H4322     1.0  0.61085  0.47695  0.36542  1.0000
  C   C2436     1.0  0.66607  0.33814  0.19358  1.0000
  C   C2437     1.0  0.94796  0.99507  0.25869  1.0000
  S   S571      1.0  0.85252  0.15785  0.19288  1.0000
  S   S572      1.0  0.96717  0.15712  0.28023  1.0000
  H   H4323     1.0  0.95583  0.40514  0.37228  1.0000
  H   H4324     1.0  0.96275  0.02051  0.21854  1.0000
  Fe  Fe287     1.0  0.97495  0.21101  0.30139  1.0000
  H   H4325     1.0  0.80104  0.27158  0.22746  1.0000
  C   C2438     1.0  0.65216  0.42862  0.30986  1.0000
  C   C2439     1.0  0.66572  0.41443  0.31545  1.0000
  H   H4326     1.0  0.65541  0.43913  0.29860  1.0000
  H   H4327     1.0  0.67948  0.41409  0.30849  1.0000
  C   C2440     1.0  0.65618  0.29266  0.31454  1.0000
  C   C2441     1.0  0.64311  0.28668  0.32888  1.0000
  C   C2442     1.0  0.64057  0.29122  0.34540  1.0000
  C   C2443     1.0  0.65090  0.30200  0.34775  1.0000
  C   C2444     1.0  0.66398  0.30819  0.33344  1.0000
  C   C2445     1.0  0.66669  0.30341  0.31683  1.0000
  H   H4328     1.0  0.63495  0.27839  0.32722  1.0000
  H   H4329     1.0  0.63045  0.28640  0.35640  1.0000
  H   H4330     1.0  0.67685  0.30803  0.30586  1.0000
  C   C2446     1.0  0.69298  0.35976  0.21668  1.0000
  C   C2447     1.0  0.70375  0.34986  0.20411  1.0000
  C   C2448     1.0  0.94032  0.10132  0.28987  1.0000
  H   H4331     1.0  0.85127  0.98575  0.26444  1.0000
  H   H4332     1.0  0.93609  0.14759  0.20698  1.0000
  C   C2449     1.0  0.68266  0.37654  0.21097  1.0000
  H   H4333     1.0  0.71181  0.33694  0.20839  1.0000
  H   H4334     1.0  0.86822  0.00525  0.18676  1.0000
  H   H4335     1.0  0.84685  0.09995  0.20823  1.0000
  H   H4336     1.0  0.67408  0.38394  0.22076  1.0000
  C   C2450     1.0  0.78123  0.29691  0.28483  1.0000
  C   C2451     1.0  0.78516  0.27837  0.28687  1.0000
  C   C2452     1.0  0.77448  0.26997  0.28141  1.0000
  C   C2453     1.0  0.75991  0.28002  0.27375  1.0000
  C   C2454     1.0  0.75603  0.29860  0.27156  1.0000
  C   C2455     1.0  0.76673  0.30702  0.27702  1.0000
  H   H4337     1.0  0.79633  0.27048  0.29280  1.0000
  H   H4338     1.0  0.77737  0.25563  0.28347  1.0000
  H   H4339     1.0  0.74487  0.30647  0.26558  1.0000
  H   H4340     1.0  0.76369  0.32140  0.27533  1.0000
  C   C2456     1.0  0.85310  0.21941  0.28912  1.0000
  C   C2457     1.0  0.83530  0.21755  0.29555  1.0000
  C   C2458     1.0  0.82908  0.20502  0.29025  1.0000
  C   C2459     1.0  0.84044  0.19489  0.27801  1.0000
  C   C2460     1.0  0.85792  0.19746  0.27096  1.0000
  C   C2461     1.0  0.86433  0.20945  0.27674  1.0000
  H   H4341     1.0  0.82664  0.22511  0.30524  1.0000
  H   H4342     1.0  0.81559  0.20294  0.29589  1.0000
  H   H4343     1.0  0.86677  0.18978  0.26147  1.0000
  H   H4344     1.0  0.87813  0.21080  0.27177  1.0000
  H   H4345     1.0  0.95752  0.19043  0.25542  1.0000
  S   S573      1.0  0.97593  0.36138  0.32960  1.0000
  C   C2462     1.0  0.94985  0.18119  0.25489  1.0000
  H   H4346     1.0  0.83536  0.29591  0.35975  1.0000
  H   H4347     1.0  0.98427  0.31579  0.31233  1.0000
  H   H4348     1.0  0.79354  0.21313  0.22703  1.0000
  H   H4349     1.0  0.78356  0.24540  0.21830  1.0000
  C   C2463     1.0  0.85884  0.07058  0.26117  1.0000
  C   C2464     1.0  0.79493  0.24811  0.22241  1.0000
  H   H4350     1.0  0.92709  0.11039  0.28914  1.0000
  C   C2465     1.0  0.90625  0.02408  0.23191  1.0000
  C   C2466     1.0  0.89136  0.32549  0.34387  1.0000
  C   C2467     1.0  0.90355  0.32391  0.32780  1.0000
  C   C2468     1.0  0.89892  0.31805  0.31462  1.0000
  C   C2469     1.0  0.88229  0.31332  0.31765  1.0000
  C   C2470     1.0  0.87009  0.31497  0.33370  1.0000
  C   C2471     1.0  0.87451  0.32137  0.34662  1.0000
  H   H4351     1.0  0.91652  0.32720  0.32548  1.0000
  H   H4352     1.0  0.90838  0.31683  0.30219  1.0000
  H   H4353     1.0  0.85722  0.31144  0.33607  1.0000
  H   H4354     1.0  0.86503  0.32274  0.35895  1.0000
  C   C2472     1.0  0.76810  0.28477  0.36650  1.0000
  C   C2473     1.0  0.96373  0.27566  0.32758  1.0000
  C   C2474     1.0  0.96122  0.26811  0.31441  1.0000
  C   C2475     1.0  0.96413  0.24952  0.31656  1.0000
  C   C2476     1.0  0.77127  0.31326  0.37313  1.0000
  H   H4355     1.0  0.67284  0.47544  0.33036  1.0000
  H   H4356     1.0  0.96180  0.28997  0.32566  1.0000
  H   H4357     1.0  0.95735  0.27666  0.30240  1.0000
  H   H4358     1.0  0.67453  0.43951  0.20548  1.0000
  H   H4359     1.0  0.97801  0.09715  0.24056  1.0000
  C   C2477     1.0  0.64375  0.40124  0.33902  1.0000
  H   H4360     1.0  0.97454  0.39286  0.35864  1.0000
  C   C2478     1.0  0.95457  0.00920  0.24639  1.0000
  H   H4361     1.0  0.93676  0.19907  0.23428  1.0000
  S   S574      1.0  0.62717  0.27625  0.18440  1.0000
  C   C2479     1.0  0.68469  0.45689  0.31319  1.0000
  C   C2480     1.0  0.96736  0.07175  0.32189  1.0000
  C   C2481     1.0  0.67743  0.27789  0.20232  1.0000
  C   C2482     1.0  0.66047  0.28243  0.21293  1.0000
  C   C2483     1.0  0.64507  0.28191  0.20736  1.0000
  H   H4362     1.0  0.82557  0.06021  0.21232  1.0000
  H   H4363     1.0  0.79704  0.05489  0.23268  1.0000
  H   H4364     1.0  0.65923  0.28631  0.22540  1.0000
  H   H4365     1.0  0.63198  0.28540  0.21561  1.0000
  Fe  Fe288     1.0  0.96015  0.02074  0.28283  1.0000
  H   H4366     1.0  0.68156  0.41723  0.20241  1.0000
  H   H4367     1.0  0.92349  0.09696  0.21142  1.0000
  C   C2484     1.0  0.81813  0.06286  0.24005  1.0000
  H   H4368     1.0  0.81081  0.07692  0.23879  1.0000
  C   C2485     1.0  0.94535  0.10484  0.25634  1.0000
  H   H4369     1.0  0.65964  0.43188  0.23565  1.0000
  C   C2486     1.0  0.83232  0.25115  0.25590  1.0000
  H   H4370     1.0  0.92081  0.02323  0.22656  1.0000
  C   C2487     1.0  0.80419  0.05140  0.24389  1.0000
  C   C2488     1.0  0.73298  0.30954  0.33296  1.0000
  H   H4371     1.0  0.63104  0.44740  0.34427  1.0000
  C   C2489     1.0  0.91300  0.27431  0.34498  1.0000
  C   C2490     1.0  0.97626  0.11933  0.33414  1.0000
  H   H4372     1.0  0.86766  0.35982  0.35513  1.0000
  H   H4373     1.0  0.98734  0.11288  0.36398  1.0000
  H   H4374     1.0  0.80718  0.02958  0.21791  1.0000
  H   H4375     1.0  0.68545  0.44921  0.22586  1.0000
  H   H4376     1.0  0.86460  0.03797  0.20775  1.0000
  H   H4377     1.0  0.82961  0.18645  0.21788  1.0000
  Fe  Fe289     1.0  0.66010  0.32725  0.37304  1.0000
  H   H4378     1.0  0.93281  0.29130  0.28276  1.0000
  C   C2491     1.0  0.70450  0.35690  0.18586  1.0000
  H   H4379     1.0  0.95309  0.07522  0.32858  1.0000
  H   H4380     1.0  0.83819  0.43413  0.34990  1.0000
  C   C2492     1.0  0.95487  0.99550  0.22211  1.0000
  H   H4381     1.0  0.83555  0.19687  0.19477  1.0000
  H   H4382     1.0  0.67567  0.44428  0.34934  1.0000
  C   C2493     1.0  0.81793  0.23504  0.24119  1.0000
  C   C2494     1.0  0.82725  0.00126  0.27724  1.0000
  C   C2495     1.0  0.66157  0.40085  0.33019  1.0000
  N   N135      1.0  0.91671  0.24775  0.27388  1.0000
  C   C2496     1.0  0.90584  0.25278  0.25955  1.0000
  C   C2497     1.0  0.93459  0.23596  0.26794  1.0000
  C   C2498     1.0  0.90654  0.23708  0.29024  1.0000
  C   C2499     1.0  0.91898  0.26391  0.27918  1.0000
  C   C2500     1.0  0.92850  0.27728  0.26436  1.0000
  C   C2501     1.0  0.88745  0.26559  0.26335  1.0000
  C   C2502     1.0  0.91707  0.22680  0.30518  1.0000
  C   C2503     1.0  0.94408  0.24039  0.24802  1.0000
  H   H4383     1.0  0.97348  0.05841  0.32887  1.0000
  C   C2504     1.0  0.92696  0.29437  0.27071  1.0000
  C   C2505     1.0  0.87676  0.26767  0.24911  1.0000
  C   C2506     1.0  0.90451  0.22007  0.32242  1.0000
  H   H4384     1.0  0.90362  0.24044  0.25687  1.0000
  H   H4385     1.0  0.91305  0.25943  0.24666  1.0000
  H   H4386     1.0  0.94400  0.23558  0.27635  1.0000
  H   H4387     1.0  0.93313  0.22187  0.27017  1.0000
  H   H4388     1.0  0.90149  0.22694  0.28647  1.0000
  H   H4389     1.0  0.89446  0.24589  0.29657  1.0000
  H   H4390     1.0  0.90575  0.27134  0.28534  1.0000
  H   H4391     1.0  0.92691  0.25984  0.28978  1.0000
  H   H4392     1.0  0.92269  0.28110  0.25226  1.0000
  H   H4393     1.0  0.94299  0.27134  0.26093  1.0000
  H   H4394     1.0  0.87924  0.26062  0.27637  1.0000
  H   H4395     1.0  0.88928  0.27902  0.26337  1.0000
  H   H4396     1.0  0.92453  0.23519  0.30838  1.0000
  H   H4397     1.0  0.92687  0.21505  0.30098  1.0000
  H   H4398     1.0  0.93799  0.23500  0.23987  1.0000
  H   H4399     1.0  0.94285  0.25484  0.24253  1.0000
  H   H4400     1.0  0.97031  0.23480  0.23089  1.0000
  H   H4401     1.0  0.61959  0.24101  0.19886  1.0000
  H   H4402     1.0  0.92898  0.07622  0.20386  1.0000
  H   H4403     1.0  0.93434  0.30356  0.26005  1.0000
  H   H4404     1.0  0.91271  0.30125  0.27389  1.0000
  H   H4405     1.0  0.87374  0.25465  0.24937  1.0000
  H   H4406     1.0  0.86388  0.27730  0.25178  1.0000
  H   H4407     1.0  0.88433  0.27277  0.23565  1.0000
  H   H4408     1.0  0.91249  0.21195  0.33249  1.0000
  H   H4409     1.0  0.89531  0.23152  0.32786  1.0000
  H   H4410     1.0  0.89645  0.21170  0.31999  1.0000
  N   N136      1.0  0.87498  0.38458  0.35479  1.0000
  H   H4411     1.0  0.75344  0.28728  0.37202  1.0000
  C   C2507     1.0  0.86153  0.37256  0.35976  1.0000
  C   C2508     1.0  0.88823  0.38038  0.33810  1.0000
  C   C2509     1.0  0.86571  0.40392  0.35065  1.0000
  C   C2510     1.0  0.88239  0.04598  0.18319  1.0000
  C   C2511     1.0  0.90080  0.39111  0.36531  1.0000
  S   S575      1.0  0.98097  0.00186  0.29708  1.0000
  S   S576      1.0  0.81754  0.26596  0.36946  1.0000
  C   C2512     1.0  0.84559  0.43160  0.36077  1.0000
  S   S577      1.0  0.97732  0.16003  0.35529  1.0000
  Fe  Fe290     1.0  0.98196  0.17575  0.32714  1.0000
  H   H4412     1.0  0.93252  0.24232  0.36494  1.0000
  H   H4413     1.0  0.85026  0.37873  0.35265  1.0000
  H   H4414     1.0  0.62671  0.47842  0.23468  1.0000
  H   H4415     1.0  0.89694  0.36695  0.34114  1.0000
  H   H4416     1.0  0.87563  0.41259  0.34422  1.0000
  H   H4417     1.0  0.85749  0.40601  0.34053  1.0000
  H   H4418     1.0  0.69090  0.26712  0.36546  1.0000
  H   H4419     1.0  0.94541  0.99478  0.27282  1.0000
  H   H4420     1.0  0.91227  0.38544  0.35549  1.0000
  H   H4421     1.0  0.89649  0.40551  0.35985  1.0000
  H   H4422     1.0  0.89804  0.29182  0.37356  1.0000
  C   C2513     1.0  0.64813  0.47346  0.36121  1.0000
  C   C2514     1.0  0.69436  0.37379  0.18013  1.0000
  Fe  Fe291     1.0  0.67227  0.36243  0.36154  1.0000
  H   H4423     1.0  0.98095  0.13011  0.33716  1.0000
  H   H4424     1.0  0.59793  0.45117  0.35081  1.0000
  H   H4425     1.0  0.85485  0.99244  0.29380  1.0000
  C   C2515     1.0  0.63049  0.46939  0.21030  1.0000
  N   N137      1.0  0.98586  0.10127  0.34261  1.0000
  C   C2516     1.0  0.65993  0.33009  0.18082  1.0000
  C   C2517     1.0  0.66353  0.27235  0.18069  1.0000
  C   C2518     1.0  0.66487  0.47323  0.36815  1.0000
  H   H4426     1.0  0.70832  0.44150  0.22697  1.0000
  H   H4427     1.0  0.97970  0.12141  0.31931  1.0000
  H   H4428     1.0  0.70626  0.26058  0.33981  1.0000
  H   H4429     1.0  0.87041  0.07292  0.22308  1.0000
  C   C2519     1.0  0.81432  0.11561  0.19681  1.0000
  C   C2520     1.0  0.80584  0.21586  0.22933  1.0000
  H   H4430     1.0  0.67750  0.46748  0.35973  1.0000
  H   H4431     1.0  0.86055  0.05466  0.23608  1.0000
  C   C2521     1.0  0.68330  0.38357  0.19269  1.0000
  H   H4432     1.0  0.81936  0.99979  0.26815  1.0000
  N   N138      1.0  0.67450  0.21423  0.19501  1.0000
  H   H4433     1.0  0.97410  0.06105  0.23577  1.0000
  H   H4434     1.0  0.64042  0.39084  0.35037  1.0000
  S   S578      1.0  0.61713  0.44693  0.31252  1.0000
  H   H4435     1.0  0.72692  0.41106  0.23275  1.0000
  C   C2522     1.0  0.63017  0.41529  0.33326  1.0000
  Fe  Fe292     1.0  0.98026  0.02450  0.30978  1.0000
  H   H4436     1.0  0.77763  0.20197  0.29415  1.0000
  H   H4437     1.0  0.79418  0.05383  0.25619  1.0000
  H   H4438     1.0  0.83483  0.09638  0.18427  1.0000
  H   H4439     1.0  0.90437  0.38456  0.30183  1.0000
  C   C2523     1.0  0.96405  0.23201  0.24530  1.0000
  C   C2524     1.0  0.89490  0.37531  0.30649  1.0000
  S   S579      1.0  0.95831  0.01761  0.33313  1.0000
  H   H4440     1.0  0.92527  0.08988  0.24540  1.0000
  C   C2525     1.0  0.57896  0.26557  0.18963  1.0000
  C   C2526     1.0  0.67397  0.16410  0.19832  1.0000
  H   H4441     1.0  0.69724  0.28215  0.32839  1.0000
  C   C2527     1.0  0.78607  0.23085  0.25262  1.0000
  H   H4442     1.0  0.70250  0.41980  0.25421  1.0000
  H   H4443     1.0  0.69657  0.45086  0.31936  1.0000
  C   C2528     1.0  0.79419  0.33058  0.35678  1.0000
  H   H4444     1.0  0.96983  0.06527  0.25764  1.0000
  S   S580      1.0  0.64682  0.30728  0.36883  1.0000
  H   H4445     1.0  0.95328  0.15224  0.33353  1.0000
  C   C2529     1.0  0.84703  0.99902  0.26811  1.0000
  C   C2530     1.0  0.66335  0.47989  0.20103  1.0000
  H   H4446     1.0  0.69163  0.20435  0.21432  1.0000
  S   S581      1.0  0.65161  0.47819  0.28415  1.0000
  H   H4447     1.0  0.81063  0.03700  0.24596  1.0000
  H   H4448     1.0  0.67340  0.16494  0.18424  1.0000
  H   H4449     1.0  0.97620  0.09106  0.22129  1.0000
  C   C2531     1.0  0.97075  0.08944  0.23592  1.0000
  H   H4450     1.0  0.65317  0.18709  0.20139  1.0000
  C   C2532     1.0  0.88305  0.01065  0.25671  1.0000
  H   H4451     1.0  0.82239  0.34082  0.32941  1.0000
  H   H4452     1.0  0.85401  0.05805  0.26789  1.0000
  H   H4453     1.0  0.94951  0.10754  0.21179  1.0000
  H   H4454     1.0  0.77904  0.22490  0.29092  1.0000
  H   H4455     1.0  0.92650  0.27083  0.34816  1.0000
  H   H4456     1.0  0.82264  0.12520  0.19612  1.0000
  S   S582      1.0  0.97441  0.27338  0.35874  1.0000
  H   H4457     1.0  0.97068  0.22430  0.33426  1.0000
  H   H4458     1.0  0.83275  0.21833  0.21323  1.0000
  N   N139      1.0  0.80131  0.23271  0.23665  1.0000
  C   C2533     1.0  0.68533  0.44427  0.26005  1.0000
  C   C2534     1.0  0.96911  0.23857  0.33212  1.0000
  H   H4459     1.0  0.82647  0.24149  0.22897  1.0000
  C   C2535     1.0  0.61270  0.46369  0.36218  1.0000
  C   C2536     1.0  0.53773  0.31702  0.18359  1.0000
  H   H4460     1.0  0.80091  0.35282  0.36413  1.0000
  C   C2537     1.0  0.85768  0.06741  0.19940  1.0000
  H   H4461     1.0  0.89535  0.02456  0.28082  1.0000
  H   H4462     1.0  0.64729  0.32845  0.21740  1.0000
  C   C2538     1.0  0.66885  0.46468  0.32664  1.0000
  N   N140      1.0  0.65135  0.36867  0.29563  1.0000
  C   C2539     1.0  0.64609  0.35870  0.31453  1.0000
  C   C2540     1.0  0.67127  0.36794  0.29147  1.0000
  C   C2541     1.0  0.64204  0.38803  0.29477  1.0000
  C   C2542     1.0  0.64605  0.36176  0.28201  1.0000
  C   C2543     1.0  0.64536  0.34166  0.28620  1.0000
  C   C2544     1.0  0.62565  0.36120  0.32230  1.0000
  C   C2545     1.0  0.64748  0.40109  0.27696  1.0000
  C   C2546     1.0  0.68355  0.34919  0.29189  1.0000
  C   C2547     1.0  0.70317  0.35009  0.28928  1.0000
  C   C2548     1.0  0.64076  0.33679  0.27071  1.0000
  C   C2549     1.0  0.62126  0.34628  0.33829  1.0000
  C   C2550     1.0  0.63321  0.41824  0.27468  1.0000
  H   H4463     1.0  0.65205  0.36290  0.32372  1.0000
  H   H4464     1.0  0.65174  0.34420  0.31578  1.0000
  H   H4465     1.0  0.67556  0.37572  0.27785  1.0000
  H   H4466     1.0  0.67464  0.37434  0.30086  1.0000
  H   H4467     1.0  0.64440  0.39313  0.30563  1.0000
  H   H4468     1.0  0.62727  0.38941  0.29723  1.0000
  H   H4469     1.0  0.63249  0.36910  0.27972  1.0000
  H   H4470     1.0  0.65522  0.36451  0.26878  1.0000
  H   H4471     1.0  0.63495  0.33831  0.29818  1.0000
  H   H4472     1.0  0.65826  0.33299  0.28858  1.0000
  H   H4473     1.0  0.62072  0.37408  0.32688  1.0000
  H   H4474     1.0  0.61813  0.36148  0.31215  1.0000
  H   H4475     1.0  0.64954  0.39503  0.26526  1.0000
  H   H4476     1.0  0.66015  0.40480  0.27686  1.0000
  H   H4477     1.0  0.68018  0.33989  0.30473  1.0000
  H   H4478     1.0  0.68257  0.34362  0.28078  1.0000
  H   H4479     1.0  0.70517  0.35539  0.30016  1.0000
  H   H4480     1.0  0.71164  0.33649  0.28945  1.0000
  H   H4481     1.0  0.70755  0.35869  0.27620  1.0000
  H   H4482     1.0  0.64089  0.32227  0.27371  1.0000
  H   H4483     1.0  0.62721  0.34422  0.26867  1.0000
  H   H4484     1.0  0.65072  0.33994  0.25823  1.0000
  H   H4485     1.0  0.62467  0.33329  0.33404  1.0000
  H   H4486     1.0  0.62884  0.34526  0.34864  1.0000
  H   H4487     1.0  0.60674  0.34909  0.34425  1.0000
  H   H4488     1.0  0.63005  0.42447  0.28641  1.0000
  H   H4489     1.0  0.63807  0.42800  0.26275  1.0000
  H   H4490     1.0  0.62075  0.41540  0.27302  1.0000
  C   C2551     1.0  0.68754  0.22457  0.18158  1.0000
  H   H4491     1.0  0.75508  0.31381  0.31071  1.0000
  S   S583      1.0  0.81124  0.04817  0.18181  1.0000
  H   H4492     1.0  0.87706  0.01290  0.31993  1.0000
  H   H4493     1.0  0.97068  0.09879  0.31463  1.0000
  C   C2552     1.0  0.65210  0.48191  0.21759  1.0000
  C   C2553     1.0  0.70655  0.25986  0.30570  1.0000
  H   H4494     1.0  0.95760  0.15348  0.20205  1.0000
  Fe  Fe293     1.0  0.93963  0.03547  0.31564  1.0000
  C   C2554     1.0  0.85292  0.41163  0.36650  1.0000
  C   C2555     1.0  0.80148  0.34799  0.35201  1.0000
  C   C2556     1.0  0.87136  0.04933  0.20131  1.0000
  H   H4495     1.0  0.92320  0.28106  0.31649  1.0000
  C   C2557     1.0  0.98381  0.10084  0.36216  1.0000
  H   H4496     1.0  0.76208  0.21936  0.28287  1.0000
  C   C2558     1.0  0.82105  0.34496  0.34215  1.0000
  C   C2559     1.0  0.66723  0.18251  0.20316  1.0000
  C   C2560     1.0  0.63559  0.47676  0.22210  1.0000
  H   H4497     1.0  0.65752  0.31660  0.18814  1.0000
  C   C2561     1.0  0.94630  0.11235  0.22445  1.0000
  C   C2562     1.0  0.78910  0.26687  0.22708  1.0000
  H   H4498     1.0  0.76755  0.33938  0.34063  1.0000
  H   H4499     1.0  0.76438  0.35738  0.35112  1.0000
  H   H4500     1.0  0.83563  0.26140  0.24374  1.0000
  C   C2563     1.0  0.73158  0.35789  0.34866  1.0000
  H   H4501     1.0  0.87286  0.39450  0.31711  1.0000
  H   H4502     1.0  0.68284  0.43851  0.27457  1.0000
  H   H4503     1.0  0.79363  0.35868  0.34326  1.0000
  C   C2564     1.0  0.90012  0.26294  0.35839  1.0000
  H   H4504     1.0  0.80565  0.24956  0.21025  1.0000
  C   C2565     1.0  0.90328  0.00928  0.24839  1.0000
  H   H4505     1.0  0.71379  0.25475  0.29343  1.0000
  H   H4506     1.0  0.70120  0.24884  0.31573  1.0000
  H   H4507     1.0  0.53915  0.30357  0.19240  1.0000
  H   H4508     1.0  0.77624  0.29386  0.21650  1.0000
  H   H4509     1.0  0.63108  0.47032  0.33748  1.0000
  H   H4510     1.0  0.62043  0.21823  0.19783  1.0000
  C   C2566     1.0  0.71005  0.27272  0.33041  1.0000
  S   S584      1.0  0.93618  0.34894  0.36904  1.0000
  H   H4511     1.0  0.90094  0.00772  0.31187  1.0000
  C   C2567     1.0  0.67809  0.21274  0.21322  1.0000
  H   H4512     1.0  0.97077  0.12341  0.21753  1.0000
  H   H4513     1.0  0.72214  0.31800  0.34102  1.0000
  H   H4514     1.0  0.73235  0.37115  0.35034  1.0000
  C   C2568     1.0  0.83662  0.09143  0.21237  1.0000
  H   H4515     1.0  0.80340  0.11602  0.20885  1.0000
  C   C2569     1.0  0.66370  0.45018  0.34324  1.0000
  H   H4516     1.0  0.66824  0.40820  0.23687  1.0000
  H   H4517     1.0  0.67771  0.32891  0.19866  1.0000
  H   H4518     1.0  0.82647  0.22181  0.24567  1.0000
  H   H4519     1.0  0.97146  0.41670  0.35535  1.0000
  C   C2570     1.0  0.67738  0.23077  0.21807  1.0000
  C   C2571     1.0  0.97014  0.40428  0.36555  1.0000
  H   H4520     1.0  0.95012  0.10914  0.28991  1.0000
  H   H4521     1.0  0.90913  0.99638  0.24403  1.0000
  C   C2572     1.0  0.62199  0.22691  0.20609  1.0000
  C   C2573     1.0  0.67537  0.22898  0.23810  1.0000
  H   H4522     1.0  0.68815  0.46769  0.30163  1.0000
  H   H4523     1.0  0.87365  0.06736  0.25696  1.0000
  H   H4524     1.0  0.66878  0.20561  0.22392  1.0000
  H   H4525     1.0  0.56600  0.26147  0.19613  1.0000
  H   H4526     1.0  0.95469  0.07791  0.21496  1.0000
  H   H4527     1.0  0.76733  0.27683  0.21254  1.0000
  C   C2574     1.0  0.67886  0.27292  0.18619  1.0000
  Fe  Fe294     1.0  0.62400  0.47269  0.29499  1.0000
  H   H4528     1.0  0.61152  0.45356  0.37477  1.0000
  H   H4529     1.0  0.64111  0.22972  0.21947  1.0000
  H   H4530     1.0  0.86746  0.25197  0.37183  1.0000
  H   H4531     1.0  0.72390  0.42837  0.20229  1.0000
  H   H4532     1.0  0.66615  0.24126  0.21366  1.0000
  C   C2575     1.0  0.69562  0.43682  0.22919  1.0000
  S   S585      1.0  0.96202  0.24025  0.29946  1.0000
  H   H4533     1.0  0.81641  0.08765  0.19947  1.0000
  H   H4534     1.0  0.85360  0.01489  0.28263  1.0000
  H   H4535     1.0  0.96800  0.07098  0.30797  1.0000
  C   C2576     1.0  0.64702  0.44194  0.37375  1.0000
  H   H4536     1.0  0.78718  0.20215  0.26260  1.0000
  H   H4537     1.0  0.81103  0.23718  0.26934  1.0000
  H   H4538     1.0  0.64248  0.43260  0.21363  1.0000
  H   H4539     1.0  0.87725  0.28809  0.37262  1.0000
  H   H4540     1.0  0.66243  0.22521  0.24546  1.0000
  H   H4541     1.0  0.68659  0.21882  0.24302  1.0000
  H   H4542     1.0  0.67557  0.24201  0.24082  1.0000
  H   H4543     1.0  0.68123  0.44661  0.30820  1.0000
  H   H4544     1.0  0.81536  0.22516  0.20042  1.0000
  H   H4545     1.0  0.77114  0.27692  0.35597  1.0000
  C   C2577     1.0  0.64064  0.22130  0.21043  1.0000
  H   H4546     1.0  0.58424  0.46803  0.36287  1.0000
  Fe  Fe295     1.0  0.95747  0.99629  0.31928  1.0000
  H   H4547     1.0  0.90488  0.24886  0.35663  1.0000
  C   C2578     1.0  0.94233  0.07556  0.22488  1.0000
  C   C2579     1.0  0.75467  0.26742  0.32823  1.0000
  C   C2580     1.0  0.83260  0.01211  0.22078  1.0000
  H   H4548     1.0  0.87080  0.37159  0.32553  1.0000
  C   C2581     1.0  0.71937  0.26657  0.31267  1.0000
  H   H4549     1.0  0.65458  0.23834  0.18872  1.0000
  C   C2582     1.0  0.76887  0.25070  0.33275  1.0000
  C   C2583     1.0  0.74331  0.32185  0.31815  1.0000
  H   H4550     1.0  0.73395  0.29495  0.31285  1.0000
  S   S586      1.0  0.68639  0.33445  0.35880  1.0000
  C   C2584     1.0  0.63099  0.45919  0.34936  1.0000
  C   C2585     1.0  0.69079  0.42932  0.24958  1.0000
  C   C2586     1.0  0.73724  0.26775  0.34288  1.0000
  H   H4551     1.0  0.76044  0.27920  0.32685  1.0000
  H   H4552     1.0  0.75230  0.26773  0.31502  1.0000
  N   N141      1.0  0.84568  0.07201  0.21654  1.0000
  H   H4553     1.0  0.71597  0.29233  0.36164  1.0000
  C   C2587     1.0  0.83247  0.05978  0.22306  1.0000
  H   H4554     1.0  0.88885  0.37560  0.29519  1.0000
  H   H4555     1.0  0.72408  0.27757  0.30215  1.0000
  H   H4556     1.0  0.73080  0.25525  0.31476  1.0000
  H   H4557     1.0  0.69522  0.27087  0.30236  1.0000
  C   C2588     1.0  0.63438  0.42913  0.31883  1.0000
  H   H4558     1.0  0.94187  0.07229  0.25274  1.0000
  H   H4559     1.0  0.76415  0.23853  0.33312  1.0000
  H   H4560     1.0  0.78132  0.25118  0.32235  1.0000
  H   H4561     1.0  0.77207  0.24983  0.34583  1.0000
  H   H4562     1.0  0.73368  0.39949  0.21458  1.0000
  H   H4563     1.0  0.74833  0.33043  0.32394  1.0000
  H   H4564     1.0  0.96107  0.08495  0.27443  1.0000
  H   H4565     1.0  0.86555  0.07797  0.19251  1.0000
  N   N142      1.0  0.64746  0.45621  0.35693  1.0000
  H   H4566     1.0  0.61170  0.22566  0.21863  1.0000
  H   H4567     1.0  0.80462  0.25785  0.25479  1.0000
  H   H4568     1.0  0.67198  0.31657  0.33518  1.0000
  H   H4569     1.0  0.80299  0.21041  0.26933  1.0000
  H   H4570     1.0  0.77957  0.26701  0.23999  1.0000
  H   H4571     1.0  0.61776  0.46529  0.21400  1.0000
  H   H4572     1.0  0.88098  0.04929  0.20931  1.0000
  N   N143      1.0  0.69748  0.42439  0.21689  1.0000
  H   H4573     1.0  0.91081  0.01036  0.25793  1.0000
  C   C2589     1.0  0.94691  0.09160  0.27428  1.0000
  H   H4574     1.0  0.85361  0.09337  0.24004  1.0000
  C   C2590     1.0  0.78918  0.21358  0.26705  1.0000
  H   H4575     1.0  0.65173  0.21960  0.18256  1.0000
  C   C2591     1.0  0.81512  0.24560  0.25606  1.0000
  H   H4576     1.0  0.93158  0.11796  0.22691  1.0000
  H   H4577     1.0  0.93118  0.11237  0.25765  1.0000
  H   H4578     1.0  0.94953  0.11380  0.33676  1.0000
  S   S587      1.0  0.96028  0.02585  0.25350  1.0000
  H   H4579     1.0  0.90201  0.27437  0.32229  1.0000
  H   H4580     1.0  0.79610  0.32630  0.34398  1.0000
  C   C2592     1.0  0.82479  0.19708  0.20696  1.0000
  H   H4581     1.0  0.82453  0.05890  0.25178  1.0000
  N   N144      1.0  0.95086  0.09714  0.23968  1.0000
  H   H4582     1.0  0.69600  0.40025  0.23745  1.0000
  H   H4583     1.0  0.71734  0.35662  0.35288  1.0000
  H   H4584     1.0  0.90178  0.13012  0.35833  1.0000
  H   H4585     1.0  0.65632  0.34659  0.21889  1.0000
  H   H4586     1.0  0.68489  0.23832  0.18383  1.0000
  H   H4587     1.0  0.93876  0.09142  0.30263  1.0000
  H   H4588     1.0  0.90038  0.03744  0.23528  1.0000
  H   H4589     1.0  0.95360  0.11458  0.25546  1.0000
  H   H4590     1.0  0.93275  0.14510  0.33619  1.0000
  C   C2593     1.0  0.85728  0.06913  0.22995  1.0000
  H   H4591     1.0  0.63094  0.42536  0.36870  1.0000
  H   H4592     1.0  0.77359  0.23121  0.24832  1.0000
  H   H4593     1.0  0.85529  0.07948  0.27089  1.0000
  H   H4594     1.0  0.65186  0.40950  0.21309  1.0000
  C   C2594     1.0  0.65129  0.34122  0.20991  1.0000
  C   C2595     1.0  0.82565  0.09672  0.19745  1.0000
  C   C2596     1.0  0.72414  0.40058  0.22749  1.0000
  H   H4595     1.0  0.82608  0.35749  0.33906  1.0000
  C   C2597     1.0  0.88016  0.38085  0.32201  1.0000
  H   H4596     1.0  0.82532  0.99088  0.28962  1.0000
  H   H4597     1.0  0.83958  0.04565  0.22615  1.0000
  H   H4598     1.0  0.66977  0.35113  0.18666  1.0000
  H   H4599     1.0  0.87694  0.00912  0.24617  1.0000
  N   N145      1.0  0.87002  0.16186  0.32089  1.0000
  C   C2598     1.0  0.88432  0.16653  0.30471  1.0000
  C   C2599     1.0  0.85730  0.15374  0.31566  1.0000
  C   C2600     1.0  0.85945  0.17913  0.32639  1.0000
  C   C2601     1.0  0.87766  0.14963  0.33644  1.0000
  C   C2602     1.0  0.89553  0.13613  0.33188  1.0000
  C   C2603     1.0  0.89591  0.17873  0.30677  1.0000
  C   C2604     1.0  0.84247  0.17791  0.34137  1.0000
  C   C2605     1.0  0.86512  0.13575  0.30961  1.0000
  C   C2606     1.0  0.85149  0.13050  0.30230  1.0000
  C   C2607     1.0  0.90035  0.12295  0.34860  1.0000
  C   C2608     1.0  0.91328  0.17811  0.29286  1.0000
  N   N146      1.0  0.87851  0.99726  0.27367  1.0000
  H   H4600     1.0  0.87817  0.17354  0.29299  1.0000
  H   H4601     1.0  0.89334  0.15445  0.30043  1.0000
  H   H4602     1.0  0.84605  0.15101  0.32701  1.0000
  H   H4603     1.0  0.85110  0.16342  0.30485  1.0000
  H   H4604     1.0  0.85513  0.18888  0.31468  1.0000
  H   H4605     1.0  0.86800  0.18545  0.33103  1.0000
  H   H4606     1.0  0.88030  0.15752  0.34492  1.0000
  H   H4607     1.0  0.86761  0.14195  0.34541  1.0000
  H   H4608     1.0  0.90669  0.14329  0.32575  1.0000
  H   H4609     1.0  0.89503  0.12832  0.32236  1.0000
  H   H4610     1.0  0.88836  0.19280  0.30493  1.0000
  H   H4611     1.0  0.89932  0.17486  0.32017  1.0000
  H   H4612     1.0  0.84530  0.16687  0.35280  1.0000
  H   H4613     1.0  0.83160  0.17572  0.33616  1.0000
  H   H4614     1.0  0.87733  0.13633  0.29903  1.0000
  H   H4615     1.0  0.86830  0.12501  0.32115  1.0000
  H   H4616     1.0  0.83885  0.12987  0.31240  1.0000
  H   H4617     1.0  0.84850  0.14028  0.29007  1.0000
  H   H4618     1.0  0.85695  0.11715  0.29884  1.0000
  H   H4619     1.0  0.91413  0.07817  0.22505  1.0000
  H   H4620     1.0  0.73618  0.35720  0.33435  1.0000
  H   H4621     1.0  0.95236  0.13496  0.23178  1.0000
  H   H4622     1.0  0.92075  0.18772  0.29403  1.0000
  H   H4623     1.0  0.92184  0.16454  0.29506  1.0000
  H   H4624     1.0  0.91046  0.18169  0.27921  1.0000
  H   H4625     1.0  0.98858  0.02546  0.34732  1.0000
  S   S588      1.0  0.97412  0.31893  0.36938  1.0000
  H   H4626     1.0  0.94981  0.14301  0.31633  1.0000
  S   S589      1.0  0.67898  0.38366  0.33716  1.0000
  H   H4627     1.0  0.70435  0.39642  0.21565  1.0000
  H   H4628     1.0  0.78887  0.28132  0.19962  1.0000
  C   C2609     1.0  0.70873  0.28633  0.35510  1.0000
  H   H4629     1.0  0.66163  0.43916  0.33818  1.0000
  H   H4630     1.0  0.67968  0.42216  0.25330  1.0000
  H   H4631     1.0  0.63641  0.47736  0.37175  1.0000
  C   C2610     1.0  0.65829  0.47236  0.18930  1.0000
  H   H4632     1.0  0.91645  0.04705  0.29151  1.0000
  H   H4633     1.0  0.63753  0.41582  0.23313  1.0000
  C   C2611     1.0  0.84989  0.00540  0.21206  1.0000
  H   H4634     1.0  0.78260  0.24234  0.25921  1.0000
  C   C2612     1.0  0.71039  0.42978  0.19968  1.0000
  C   C2613     1.0  0.67974  0.42574  0.21220  1.0000
  C   C2614     1.0  0.95555  0.12339  0.34011  1.0000
  H   H4635     1.0  0.91329  0.11371  0.34490  1.0000
  C   C2615     1.0  0.77986  0.28049  0.21300  1.0000
  H   H4636     1.0  0.81103  0.20412  0.23923  1.0000
  C   C2616     1.0  0.91522  0.27167  0.32604  1.0000
  C   C2617     1.0  0.77612  0.21513  0.28480  1.0000
  H   H4637     1.0  0.61640  0.41563  0.34021  1.0000
  H   H4638     1.0  0.73468  0.33044  0.30886  1.0000
  H   H4639     1.0  0.74230  0.37931  0.24137  1.0000
  C   C2618     1.0  0.82059  0.02456  0.21115  1.0000
  S   S590      1.0  0.96156  0.04378  0.29335  1.0000
  C   C2619     1.0  0.74283  0.34298  0.36018  1.0000
  C   C2620     1.0  0.88834  0.01719  0.30940  1.0000
  C   C2621     1.0  0.77438  0.30237  0.35855  1.0000
  H   H4640     1.0  0.84366  0.23948  0.25618  1.0000
  H   H4641     1.0  0.92236  0.25784  0.32494  1.0000
  N   N147      1.0  0.77494  0.33184  0.36657  1.0000
  H   H4642     1.0  0.58654  0.25704  0.17987  1.0000
  H   H4643     1.0  0.90242  0.36151  0.31059  1.0000
  H   H4644     1.0  0.67513  0.39642  0.18826  1.0000
  H   H4645     1.0  0.64203  0.20739  0.21804  1.0000
  H   H4646     1.0  0.96440  0.08677  0.34936  1.0000
  H   H4647     1.0  0.71962  0.38342  0.25386  1.0000
  C   C2622     1.0  0.76308  0.34322  0.35389  1.0000
  H   H4648     1.0  0.50867  0.32042  0.18836  1.0000
  H   H4649     1.0  0.82756  0.09587  0.22431  1.0000
  C   C2623     1.0  0.94740  0.14208  0.33093  1.0000
  H   H4650     1.0  0.93872  0.08144  0.27688  1.0000
  H   H4651     1.0  0.90021  0.02248  0.22136  1.0000
  H   H4652     1.0  0.69346  0.45148  0.18398  1.0000
  S   S591      1.0  0.86500  0.99103  0.22480  1.0000
  H   H4653     1.0  0.70153  0.21847  0.18338  1.0000
  C   C2624     1.0  0.72800  0.38269  0.24037  1.0000
  C   C2625     1.0  0.96946  0.26461  0.34278  1.0000
  H   H4654     1.0  0.95149  0.12282  0.35468  1.0000
  H   H4655     1.0  0.87195  0.02622  0.28991  1.0000
  C   C2626     1.0  0.95763  0.00959  0.22809  1.0000
  H   H4656     1.0  0.63944  0.35102  0.20587  1.0000
  H   H4657     1.0  0.84958  0.06713  0.18988  1.0000
  H   H4658     1.0  0.69001  0.23552  0.21137  1.0000
  H   H4659     1.0  0.96619  0.21735  0.25015  1.0000
  C   C2627     1.0  0.59718  0.46439  0.35366  1.0000
  H   H4660     1.0  0.73775  0.34478  0.37411  1.0000
  H   H4661     1.0  0.66764  0.18082  0.21738  1.0000
  C   C2628     1.0  0.88727  0.99860  0.28798  1.0000
  C   C2629     1.0  0.85500  0.01074  0.19357  1.0000
  C   C2630     1.0  0.83534  0.19532  0.34822  1.0000
  S   S592      1.0  0.91381  0.98677  0.19420  1.0000
  H   H4662     1.0  0.84528  0.19792  0.35442  1.0000
  C   C2631     1.0  0.92625  0.08221  0.21575  1.0000
  H   H4663     1.0  0.85666  0.43903  0.35612  1.0000
  H   H4664     1.0  0.59744  0.47452  0.34101  1.0000
  C   C2632     1.0  0.88542  0.38087  0.36932  1.0000
  H   H4665     1.0  0.56842  0.29320  0.19057  1.0000
  H   H4666     1.0  0.81290  0.19405  0.20425  1.0000
  H   H4667     1.0  0.78887  0.29905  0.35257  1.0000
  C   C2633     1.0  0.95078  0.14220  0.20441  1.0000
  H   H4668     1.0  0.66537  0.15485  0.20709  1.0000
  C   C2634     1.0  0.82595  0.03079  0.19285  1.0000
  S   S593      1.0  0.64543  0.35537  0.37388  1.0000
  H   H4669     1.0  0.89160  0.36637  0.37230  1.0000
  C   C2635     1.0  0.87201  0.12542  0.18495  1.0000
  H   H4670     1.0  0.87988  0.12511  0.19438  1.0000
  Fe  Fe296     1.0  0.97717  0.17629  0.29027  1.0000
  C   C2636     1.0  0.88532  0.01774  0.29096  1.0000
  C   C2637     1.0  0.83039  0.29329  0.37400  1.0000
  H   H4671     1.0  0.76716  0.30981  0.34775  1.0000
  H   H4672     1.0  0.88181  0.99042  0.30098  1.0000
  H   H4673     1.0  0.89295  0.03374  0.18519  1.0000
  H   H4674     1.0  0.65478  0.41803  0.36194  1.0000
  H   H4675     1.0  0.82208  0.01470  0.28056  1.0000
  H   H4676     1.0  0.51664  0.32799  0.20390  1.0000
  H   H4677     1.0  0.88991  0.11487  0.35494  1.0000
  H   H4678     1.0  0.80825  0.11981  0.18481  1.0000
  H   H4679     1.0  0.84806  0.00945  0.25570  1.0000
  H   H4680     1.0  0.82950  0.33448  0.35051  1.0000
  H   H4681     1.0  0.83623  0.43675  0.37229  1.0000
  C   C2638     1.0  0.85788  0.13988  0.18179  1.0000
  H   H4682     1.0  0.82282  0.19439  0.35844  1.0000
  C   C2639     1.0  0.97747  0.08584  0.32169  1.0000
  H   H4683     1.0  0.64661  0.33841  0.17891  1.0000
  H   H4684     1.0  0.74041  0.33005  0.35933  1.0000
  H   H4685     1.0  0.97657  0.23745  0.35672  1.0000
  H   H4686     1.0  0.95803  0.99549  0.20799  1.0000
  H   H4687     1.0  0.68795  0.15852  0.20017  1.0000
  H   H4688     1.0  0.88749  0.10065  0.17770  1.0000
  H   H4689     1.0  0.58690  0.26341  0.19999  1.0000
  C   C2640     1.0  0.57587  0.28524  0.18036  1.0000
  H   H4690     1.0  0.71225  0.25928  0.37217  1.0000
  H   H4691     1.0  0.84126  0.40506  0.37143  1.0000
  C   C2641     1.0  0.64404  0.42381  0.37223  1.0000
  H   H4692     1.0  0.51671  0.34110  0.18164  1.0000
  H   H4693     1.0  0.54719  0.32418  0.18554  1.0000
  C   C2642     1.0  0.51876  0.32727  0.18967  1.0000
  H   H4694     1.0  0.80314  0.31990  0.36443  1.0000
  H   H4695     1.0  0.98608  0.07320  0.34616  1.0000
  H   H4696     1.0  0.93544  0.99142  0.37301  1.0000
  H   H4697     1.0  0.90187  0.99262  0.28527  1.0000
  S   S594      1.0  0.63582  0.45602  0.18028  1.0000
  H   H4698     1.0  0.73335  0.45184  0.17764  1.0000
  H   H4699     1.0  0.67665  0.19672  0.17725  1.0000
  H   H4700     1.0  0.69194  0.26958  0.17786  1.0000
  H   H4701     1.0  0.84302  0.34510  0.37651  1.0000
  H   H4702     1.0  0.82709  0.36616  0.37639  1.0000
  H   H4703     1.0  0.99016  0.07189  0.37282  1.0000
  Fe  Fe297     1.0  0.69141  0.33176  0.38606  1.0000
  H   H4704     1.0  0.95420  0.40858  0.54557  1.0000
  S   S595      1.0  0.53442  0.20871  0.52262  1.0000
  Fe  Fe298     1.0  0.58165  0.01979  0.54943  1.0000
  S   S596      1.0  0.60988  0.00541  0.54010  1.0000
  S   S597      1.0  0.56532  0.03689  0.52926  1.0000
  H   H4705     1.0  0.92257  0.29944  0.43837  1.0000
  H   H4706     1.0  0.67527  0.29230  0.49073  1.0000
  Fe  Fe299     1.0  0.61658  0.01608  0.56082  1.0000
  S   S598      1.0  0.64130  0.02594  0.55956  1.0000
  H   H4707     1.0  0.51004  0.02290  0.47395  1.0000
  H   H4708     1.0  0.65989  0.43895  0.37829  1.0000
  H   H4709     1.0  0.65461  0.24276  0.53906  1.0000
  H   H4710     1.0  0.88257  0.30621  0.43820  1.0000
  H   H4711     1.0  0.94020  0.43954  0.56195  1.0000
  H   H4712     1.0  0.59662  0.02480  0.47301  1.0000
  H   H4713     1.0  0.84182  0.34180  0.54510  1.0000
  H   H4714     1.0  0.84833  0.37798  0.38679  1.0000
  C   C2643     1.0  0.88899  0.43163  0.57298  1.0000
  H   H4715     1.0  0.58068  0.31157  0.48073  1.0000
  H   H4716     1.0  0.51730  0.39501  0.57092  1.0000
  H   H4717     1.0  0.68555  0.26923  0.51504  1.0000
  Fe  Fe300     1.0  0.89471  0.37461  0.51343  1.0000
  S   S599      1.0  0.86931  0.39482  0.51901  1.0000
  S   S600      1.0  0.90240  0.35161  0.53537  1.0000
  Fe  Fe301     1.0  0.90546  0.39423  0.47539  1.0000
  S   S601      1.0  0.88135  0.41646  0.47834  1.0000
  S   S602      1.0  0.92301  0.39597  0.44779  1.0000
  Fe  Fe302     1.0  0.88674  0.41482  0.50523  1.0000
  S   S603      1.0  0.88261  0.43831  0.51829  1.0000
  Fe  Fe303     1.0  0.86642  0.39444  0.49171  1.0000
  S   S604      1.0  0.84129  0.39600  0.48240  1.0000
  S   S605      1.0  0.91239  0.39457  0.50115  1.0000
  S   S606      1.0  0.89021  0.37228  0.48737  1.0000
  Fe  Fe304     1.0  0.56524  0.30509  0.53204  1.0000
  S   S607      1.0  0.57970  0.28290  0.51750  1.0000
  C   C2644     1.0  0.52029  0.27190  0.53965  1.0000
  H   H4718     1.0  0.50538  0.34729  0.52624  1.0000
  S   S608      1.0  0.61083  0.27502  0.54098  1.0000
  Fe  Fe305     1.0  0.60450  0.29291  0.51528  1.0000
  S   S609      1.0  0.62717  0.29279  0.49108  1.0000
  Fe  Fe306     1.0  0.58471  0.26708  0.54423  1.0000
  H   H4719     1.0  0.74664  0.34676  0.51405  1.0000
  S   S610      1.0  0.58972  0.31652  0.52758  1.0000
  C   C2645     1.0  0.56019  0.21612  0.55732  1.0000
  Fe  Fe307     1.0  0.65364  0.35035  0.40021  1.0000
  H   H4720     1.0  0.53627  0.98441  0.53842  1.0000
  S   S611      1.0  0.63341  0.35744  0.42473  1.0000
  H   H4721     1.0  0.89890  0.45922  0.47852  1.0000
  H   H4722     1.0  0.56440  0.08905  0.54265  1.0000
  H   H4723     1.0  0.66414  0.46520  0.38195  1.0000
  H   H4724     1.0  0.83783  0.35980  0.44000  1.0000
  S   S612      1.0  0.71752  0.31561  0.39314  1.0000
  H   H4725     1.0  0.84733  0.30320  0.50420  1.0000
  C   C2646     1.0  0.80013  0.35988  0.54723  1.0000
  S   S613      1.0  0.66640  0.32174  0.40004  1.0000
  H   H4726     1.0  0.97201  0.36647  0.42653  1.0000
  Fe  Fe308     1.0  0.76896  0.32274  0.45977  1.0000
  S   S614      1.0  0.78458  0.30003  0.44670  1.0000
  S   S615      1.0  0.74181  0.33717  0.45373  1.0000
  Fe  Fe309     1.0  0.79852  0.32018  0.47937  1.0000
  S   S616      1.0  0.81624  0.29736  0.46740  1.0000
  S   S617      1.0  0.80969  0.32644  0.50001  1.0000
  Fe  Fe310     1.0  0.80796  0.31282  0.44197  1.0000
  S   S618      1.0  0.82760  0.31545  0.41559  1.0000
  Fe  Fe311     1.0  0.79117  0.28691  0.47344  1.0000
  S   S619      1.0  0.79173  0.25775  0.48412  1.0000
  S   S620      1.0  0.79197  0.33675  0.45340  1.0000
  S   S621      1.0  0.77376  0.30866  0.48717  1.0000
  N   N148      1.0  0.92276  0.42069  0.57357  1.0000
  S   S622      1.0  0.54118  0.15705  0.53561  1.0000
  Fe  Fe312     1.0  0.52440  0.18400  0.53845  1.0000
  C   C2647     1.0  0.55496  0.33447  0.57419  1.0000
  C   C2648     1.0  0.85302  0.33041  0.56858  1.0000
  H   H4727     1.0  0.53765  0.27175  0.50389  1.0000
  H   H4728     1.0  0.86288  0.22742  0.39905  1.0000
  H   H4729     1.0  0.75736  0.33992  0.39035  1.0000
  H   H4730     1.0  0.79372  0.29358  0.55836  1.0000
  C   C2649     1.0  0.82137  0.27929  0.38208  1.0000
  C   C2650     1.0  0.89268  0.32840  0.44131  1.0000
  C   C2651     1.0  0.72417  0.32188  0.40984  1.0000
  C   C2652     1.0  0.73734  0.31005  0.41843  1.0000
  C   C2653     1.0  0.74282  0.31467  0.43183  1.0000
  C   C2654     1.0  0.73545  0.33127  0.43657  1.0000
  C   C2655     1.0  0.72239  0.34320  0.42783  1.0000
  C   C2656     1.0  0.71673  0.33850  0.41455  1.0000
  H   H4731     1.0  0.74310  0.29712  0.41498  1.0000
  H   H4732     1.0  0.75229  0.30508  0.43886  1.0000
  H   H4733     1.0  0.71652  0.35604  0.43146  1.0000
  H   H4734     1.0  0.70663  0.34778  0.40799  1.0000
  H   H4735     1.0  0.78421  0.35679  0.40232  1.0000
  H   H4736     1.0  0.76695  0.34550  0.41700  1.0000
  C   C2657     1.0  0.81799  0.28630  0.41098  1.0000
  C   C2658     1.0  0.82617  0.30086  0.40289  1.0000
  H   H4737     1.0  0.70270  0.28137  0.39227  1.0000
  H   H4738     1.0  0.81381  0.28304  0.42529  1.0000
  H   H4739     1.0  0.71644  0.29197  0.45882  1.0000
  C   C2659     1.0  0.74051  0.24618  0.52319  1.0000
  C   C2660     1.0  0.74690  0.26114  0.52305  1.0000
  C   C2661     1.0  0.76257  0.26486  0.51095  1.0000
  C   C2662     1.0  0.77211  0.25338  0.49936  1.0000
  C   C2663     1.0  0.76597  0.23817  0.49990  1.0000
  C   C2664     1.0  0.74999  0.23477  0.51154  1.0000
  H   H4740     1.0  0.73954  0.27007  0.53192  1.0000
  H   H4741     1.0  0.76738  0.27644  0.51081  1.0000
  H   H4742     1.0  0.77333  0.22923  0.49099  1.0000
  H   H4743     1.0  0.74505  0.22322  0.51162  1.0000
  C   C2665     1.0  0.63232  0.34030  0.44412  1.0000
  C   C2666     1.0  0.64608  0.32516  0.44549  1.0000
  C   C2667     1.0  0.64435  0.31087  0.46011  1.0000
  C   C2668     1.0  0.62913  0.31179  0.47387  1.0000
  C   C2669     1.0  0.61571  0.32732  0.47309  1.0000
  C   C2670     1.0  0.61725  0.34149  0.45815  1.0000
  H   H4744     1.0  0.65808  0.32436  0.43526  1.0000
  H   H4745     1.0  0.65482  0.29896  0.46071  1.0000
  H   H4746     1.0  0.60396  0.32819  0.48372  1.0000
  H   H4747     1.0  0.60664  0.35326  0.45733  1.0000
  C   C2671     1.0  0.56765  0.23088  0.54765  1.0000
  C   C2672     1.0  0.54727  0.21688  0.53245  1.0000
  C   C2673     1.0  0.55461  0.23169  0.52284  1.0000
  C   C2674     1.0  0.56481  0.23866  0.53041  1.0000
  H   H4748     1.0  0.82871  0.24797  0.54086  1.0000
  H   H4749     1.0  0.57075  0.24980  0.52274  1.0000
  C   C2675     1.0  0.76277  0.29577  0.54514  1.0000
  Fe  Fe313     1.0  0.60244  0.98294  0.56256  1.0000
  C   C2676     1.0  0.52092  0.32740  0.54363  1.0000
  C   C2677     1.0  0.93891  0.42775  0.57318  1.0000
  C   C2678     1.0  0.51368  0.01602  0.48702  1.0000
  H   H4750     1.0  0.52689  0.29413  0.49493  1.0000
  C   C2679     1.0  0.92919  0.37626  0.43939  1.0000
  C   C2680     1.0  0.93337  0.37729  0.42089  1.0000
  C   C2681     1.0  0.93846  0.36167  0.41393  1.0000
  C   C2682     1.0  0.93948  0.34497  0.42549  1.0000
  C   C2683     1.0  0.93543  0.34397  0.44397  1.0000
  C   C2684     1.0  0.93022  0.35957  0.45091  1.0000
  H   H4751     1.0  0.93253  0.39021  0.41195  1.0000
  H   H4752     1.0  0.94174  0.36253  0.39966  1.0000
  H   H4753     1.0  0.93637  0.33108  0.45297  1.0000
  H   H4754     1.0  0.92726  0.35866  0.46519  1.0000
  C   C2685     1.0  0.90131  0.44636  0.51857  1.0000
  C   C2686     1.0  0.91825  0.44054  0.50860  1.0000
  C   C2687     1.0  0.93292  0.44715  0.50921  1.0000
  C   C2688     1.0  0.93074  0.45956  0.51984  1.0000
  C   C2689     1.0  0.91379  0.46545  0.52974  1.0000
  C   C2690     1.0  0.89909  0.45898  0.52898  1.0000
  H   H4755     1.0  0.92005  0.43098  0.50038  1.0000
  H   H4756     1.0  0.94604  0.44254  0.50152  1.0000
  H   H4757     1.0  0.91368  0.41095  0.55498  1.0000
  C   C2691     1.0  0.83317  0.37633  0.48690  1.0000
  C   C2692     1.0  0.83967  0.36120  0.49890  1.0000
  C   C2693     1.0  0.83234  0.34592  0.50290  1.0000
  C   C2694     1.0  0.81885  0.34558  0.49451  1.0000
  C   C2695     1.0  0.81246  0.36065  0.48241  1.0000
  C   C2696     1.0  0.81957  0.37602  0.47867  1.0000
  H   H4758     1.0  0.85008  0.36143  0.50536  1.0000
  H   H4759     1.0  0.83717  0.33436  0.51247  1.0000
  H   H4760     1.0  0.80182  0.36057  0.47615  1.0000
  H   H4761     1.0  0.81443  0.38777  0.46947  1.0000
  C   C2697     1.0  0.51345  0.25423  0.56981  1.0000
  C   C2698     1.0  0.88350  0.34331  0.54814  1.0000
  C   C2699     1.0  0.86836  0.34649  0.54088  1.0000
  C   C2700     1.0  0.85329  0.33974  0.55096  1.0000
  H   H4762     1.0  0.49595  0.40403  0.54985  1.0000
  H   H4763     1.0  0.86844  0.35387  0.52736  1.0000
  H   H4764     1.0  0.53988  0.02183  0.47871  1.0000
  H   H4765     1.0  0.50863  0.02556  0.49616  1.0000
  H   H4766     1.0  0.53275  0.30849  0.56438  1.0000
  H   H4767     1.0  0.94889  0.42288  0.43853  1.0000
  S   S623      1.0  0.58069  0.23915  0.55725  1.0000
  C   C2701     1.0  0.58891  0.00392  0.49570  1.0000
  H   H4768     1.0  0.68772  0.26620  0.39732  1.0000
  C   C2702     1.0  0.68997  0.31974  0.46054  1.0000
  H   H4769     1.0  0.81385  0.28648  0.51664  1.0000
  H   H4770     1.0  0.56855  0.30547  0.44927  1.0000
  C   C2703     1.0  0.54315  0.03514  0.53085  1.0000
  C   C2704     1.0  0.53526  0.02226  0.54390  1.0000
  C   C2705     1.0  0.51754  0.02125  0.54477  1.0000
  C   C2706     1.0  0.50769  0.03294  0.53245  1.0000
  C   C2707     1.0  0.51560  0.04581  0.51939  1.0000
  C   C2708     1.0  0.53328  0.04689  0.51859  1.0000
  H   H4771     1.0  0.54274  0.01311  0.55337  1.0000
  H   H4772     1.0  0.51150  0.01124  0.55488  1.0000
  C   C2709     1.0  0.52739  0.09074  0.55673  1.0000
  H   H4773     1.0  0.53930  0.05692  0.50846  1.0000
  C   C2710     1.0  0.63734  0.04796  0.56269  1.0000
  C   C2711     1.0  0.63736  0.06211  0.54792  1.0000
  C   C2712     1.0  0.63690  0.07935  0.54984  1.0000
  H   H4774     1.0  0.98322  0.34760  0.40455  1.0000
  C   C2713     1.0  0.78362  0.33176  0.39599  1.0000
  H   H4775     1.0  0.50692  0.00450  0.49252  1.0000
  H   H4776     1.0  0.63833  0.05964  0.53487  1.0000
  H   H4777     1.0  0.63740  0.09011  0.53823  1.0000
  H   H4778     1.0  0.96633  0.38415  0.39900  1.0000
  H   H4779     1.0  0.83786  0.26549  0.55504  1.0000
  C   C2714     1.0  0.90632  0.43541  0.57575  1.0000
  C   C2715     1.0  0.56261  0.98428  0.52057  1.0000
  H   H4780     1.0  0.78010  0.30513  0.38249  1.0000
  C   C2716     1.0  0.57715  0.31114  0.45443  1.0000
  Fe  Fe314     1.0  0.71753  0.24735  0.56432  1.0000
  H   H4781     1.0  0.91314  0.30629  0.41854  1.0000
  H   H4782     1.0  0.75861  0.28273  0.55055  1.0000
  C   C2717     1.0  0.59708  0.02044  0.48740  1.0000
  Fe  Fe315     1.0  0.59428  0.29788  0.55338  1.0000
  S   S624      1.0  0.52131  0.13189  0.51381  1.0000
  S   S625      1.0  0.94948  0.46716  0.52065  1.0000
  C   C2718     1.0  0.78313  0.33613  0.56134  1.0000
  H   H4783     1.0  0.91264  0.25794  0.39833  1.0000
  C   C2719     1.0  0.53402  0.00979  0.48459  1.0000
  H   H4784     1.0  0.61128  0.01729  0.48874  1.0000
  H   H4785     1.0  0.83911  0.31528  0.37814  1.0000
  H   H4786     1.0  0.82362  0.22844  0.52338  1.0000
  S   S626      1.0  0.67925  0.36032  0.38791  1.0000
  C   C2720     1.0  0.94231  0.40230  0.54988  1.0000
  H   H4787     1.0  0.53144  0.98974  0.50865  1.0000
  C   C2721     1.0  0.88781  0.36826  0.43921  1.0000
  C   C2722     1.0  0.80247  0.37751  0.53350  1.0000
  S   S627      1.0  0.56852  0.28853  0.55887  1.0000
  H   H4788     1.0  0.71026  0.29764  0.53624  1.0000
  H   H4789     1.0  0.75963  0.30316  0.55610  1.0000
  C   C2723     1.0  0.53938  0.08441  0.53970  1.0000
  H   H4790     1.0  0.89215  0.33452  0.42707  1.0000
  H   H4791     1.0  0.97102  0.41618  0.44334  1.0000
  C   C2724     1.0  0.69285  0.30165  0.51762  1.0000
  H   H4792     1.0  0.53166  0.08812  0.52894  1.0000
  C   C2725     1.0  0.88343  0.33361  0.56565  1.0000
  H   H4793     1.0  0.88955  0.43306  0.55857  1.0000
  H   H4794     1.0  0.54089  0.29059  0.51070  1.0000
  H   H4795     1.0  0.55135  0.10789  0.52983  1.0000
  C   C2726     1.0  0.98669  0.36448  0.42103  1.0000
  C   C2727     1.0  0.65872  0.22946  0.54750  1.0000
  H   H4796     1.0  0.78693  0.27320  0.56118  1.0000
  H   H4797     1.0  0.65069  0.22019  0.54664  1.0000
  H   H4798     1.0  0.53835  0.00076  0.47497  1.0000
  H   H4799     1.0  0.75740  0.31360  0.38112  1.0000
  H   H4800     1.0  0.50543  0.27823  0.51782  1.0000
  H   H4801     1.0  0.56400  0.38168  0.52257  1.0000
  C   C2728     1.0  0.98065  0.38443  0.39309  1.0000
  C   C2729     1.0  0.55566  0.09313  0.53273  1.0000
  H   H4802     1.0  0.79006  0.33707  0.41860  1.0000
  H   H4803     1.0  0.50817  0.29746  0.52422  1.0000
  H   H4804     1.0  0.82597  0.28750  0.55730  1.0000
  C   C2730     1.0  0.86072  0.33075  0.45828  1.0000
  H   H4805     1.0  0.95350  0.38564  0.53013  1.0000
  H   H4806     1.0  0.80871  0.26464  0.40695  1.0000
  S   S628      1.0  0.51603  0.17652  0.56835  1.0000
  H   H4807     1.0  0.56643  0.98619  0.47571  1.0000
  H   H4808     1.0  0.56353  0.08885  0.52020  1.0000
  C   C2731     1.0  0.49430  0.39361  0.56224  1.0000
  C   C2732     1.0  0.51231  0.38469  0.56754  1.0000
  H   H4809     1.0  0.86163  0.33368  0.42926  1.0000
  N   N149      1.0  0.78213  0.35495  0.55048  1.0000
  N   N150      1.0  0.89737  0.26389  0.37769  1.0000
  H   H4810     1.0  0.79051  0.34651  0.52525  1.0000
  C   C2733     1.0  0.96335  0.41898  0.43264  1.0000
  H   H4811     1.0  0.52958  0.25950  0.53632  1.0000
  H   H4812     1.0  0.90877  0.44800  0.56620  1.0000
  H   H4813     1.0  0.86831  0.35872  0.43210  1.0000
  H   H4814     1.0  0.95339  0.22500  0.38407  1.0000
  H   H4815     1.0  0.91202  0.47495  0.53800  1.0000
  H   H4816     1.0  0.82520  0.34359  0.45403  1.0000
  H   H4817     1.0  0.79039  0.38825  0.53536  1.0000
  H   H4818     1.0  0.49745  0.06262  0.56528  1.0000
  H   H4819     1.0  0.53463  0.00983  0.51168  1.0000
  H   H4820     1.0  0.96173  0.39179  0.43585  1.0000
  H   H4821     1.0  0.52082  0.10482  0.55195  1.0000
  H   H4822     1.0  0.90580  0.33001  0.44277  1.0000
  H   H4823     1.0  0.87642  0.38764  0.41786  1.0000
  C   C2734     1.0  0.76690  0.36786  0.55935  1.0000
  H   H4824     1.0  0.68036  0.08814  0.55606  1.0000
  H   H4825     1.0  0.56724  0.34999  0.54229  1.0000
  C   C2735     1.0  0.63656  0.08255  0.56650  1.0000
  H   H4826     1.0  0.69765  0.06822  0.55501  1.0000
  H   H4827     1.0  0.51835  0.10388  0.49903  1.0000
  H   H4828     1.0  0.54433  0.06984  0.54193  1.0000
  C   C2736     1.0  0.51471  0.28371  0.52226  1.0000
  H   H4829     1.0  0.95808  0.40578  0.41472  1.0000
  H   H4830     1.0  0.89237  0.39473  0.42587  1.0000
  H   H4831     1.0  0.71315  0.27957  0.50906  1.0000
  C   C2737     1.0  0.81858  0.38419  0.53458  1.0000
  C   C2738     1.0  0.91113  0.29926  0.43273  1.0000
  H   H4832     1.0  0.89228  0.30092  0.45738  1.0000
  C   C2739     1.0  0.50286  0.12753  0.50854  1.0000
  H   H4833     1.0  0.58515  0.35368  0.39261  1.0000
  C   C2740     1.0  0.92770  0.24142  0.37952  1.0000
  H   H4834     1.0  0.70354  0.25818  0.50033  1.0000
  H   H4835     1.0  0.87361  0.45867  0.57372  1.0000
  H   H4836     1.0  0.56842  0.01332  0.48015  1.0000
  C   C2741     1.0  0.81535  0.27570  0.40059  1.0000
  C   C2742     1.0  0.53951  0.00015  0.50265  1.0000
  C   C2743     1.0  0.87272  0.35752  0.44464  1.0000
  H   H4837     1.0  0.56193  0.01928  0.50137  1.0000
  C   C2744     1.0  0.56919  0.36145  0.50740  1.0000
  H   H4838     1.0  0.60623  0.35993  0.38175  1.0000
  C   C2745     1.0  0.86806  0.32740  0.57599  1.0000
  H   H4839     1.0  0.75585  0.36659  0.50798  1.0000
  H   H4840     1.0  0.71938  0.30041  0.50101  1.0000
  C   C2746     1.0  0.52587  0.37675  0.55208  1.0000
  H   H4841     1.0  0.73317  0.26689  0.48943  1.0000
  H   H4842     1.0  0.87653  0.38356  0.38208  1.0000
  H   H4843     1.0  0.65741  0.40754  0.39370  1.0000
  C   C2747     1.0  0.78094  0.34360  0.40926  1.0000
  C   C2748     1.0  0.81450  0.25513  0.54362  1.0000
  H   H4844     1.0  0.82946  0.34632  0.43020  1.0000
  H   H4845     1.0  0.55346  0.39117  0.54797  1.0000
  H   H4846     1.0  0.75502  0.25404  0.46517  1.0000
  C   C2749     1.0  0.57242  0.30619  0.47478  1.0000
  H   H4847     1.0  0.56351  0.99474  0.52725  1.0000
  H   H4848     1.0  0.74605  0.27220  0.44876  1.0000
  C   C2750     1.0  0.67967  0.33903  0.45670  1.0000
  H   H4849     1.0  0.68155  0.31093  0.45960  1.0000
  C   C2751     1.0  0.87264  0.38008  0.57405  1.0000
  H   H4850     1.0  0.59531  0.38052  0.56526  1.0000
  H   H4851     1.0  0.49862  0.09887  0.54015  1.0000
  H   H4852     1.0  0.68753  0.34834  0.45779  1.0000
  H   H4853     1.0  0.62762  0.23452  0.56905  1.0000
  H   H4854     1.0  0.83288  0.35278  0.39698  1.0000
  H   H4855     1.0  0.85340  0.24439  0.41242  1.0000
  H   H4856     1.0  0.92535  0.42845  0.54495  1.0000
  H   H4857     1.0  0.80845  0.24762  0.55674  1.0000
  C   C2752     1.0  0.88123  0.38742  0.42990  1.0000
  H   H4858     1.0  0.65849  0.26553  0.43099  1.0000
  H   H4859     1.0  0.86656  0.31255  0.39107  1.0000
  H   H4860     1.0  0.63345  0.41508  0.40062  1.0000
  H   H4861     1.0  0.80485  0.22440  0.54164  1.0000
  H   H4862     1.0  0.69001  0.28137  0.47407  1.0000
  H   H4863     1.0  0.66048  0.21765  0.57484  1.0000
  H   H4864     1.0  0.53206  0.04338  0.56697  1.0000
  C   C2753     1.0  0.55008  0.20906  0.54971  1.0000
  C   C2754     1.0  0.85216  0.33179  0.44229  1.0000
  H   H4865     1.0  0.68144  0.28871  0.38525  1.0000
  H   H4866     1.0  0.66336  0.26326  0.50127  1.0000
  H   H4867     1.0  0.58278  0.35576  0.51030  1.0000
  C   C2755     1.0  0.89356  0.30816  0.44335  1.0000
  H   H4868     1.0  0.89076  0.47579  0.46034  1.0000
  C   C2756     1.0  0.80491  0.25253  0.53000  1.0000
  C   C2757     1.0  0.49645  0.08514  0.54230  1.0000
  H   H4869     1.0  0.89949  0.36198  0.43002  1.0000
  H   H4870     1.0  0.67832  0.24305  0.50940  1.0000
  H   H4871     1.0  0.67984  0.29849  0.51804  1.0000
  H   H4872     1.0  0.77958  0.38669  0.56544  1.0000
  H   H4873     1.0  0.88981  0.38395  0.54778  1.0000
  H   H4874     1.0  0.89095  0.27889  0.40794  1.0000
  C   C2758     1.0  0.52152  0.31897  0.56133  1.0000
  H   H4875     1.0  0.88597  0.46364  0.53661  1.0000
  H   H4876     1.0  0.91372  0.47977  0.48709  1.0000
  C   C2759     1.0  0.64428  0.41021  0.38982  1.0000
  C   C2760     1.0  0.53634  0.04993  0.57540  1.0000
  H   H4877     1.0  0.69119  0.31641  0.51464  1.0000
  H   H4878     1.0  0.86395  0.35704  0.38664  1.0000
  H   H4879     1.0  0.93911  0.40639  0.52249  1.0000
  H   H4880     1.0  0.91090  0.28516  0.43338  1.0000
  H   H4881     1.0  0.66046  0.16469  0.52726  1.0000
  H   H4882     1.0  0.61180  0.17862  0.56807  1.0000
  C   C2761     1.0  0.68992  0.26661  0.50132  1.0000
  H   H4883     1.0  0.58213  0.16345  0.56218  1.0000
  C   C2762     1.0  0.88098  0.28532  0.39941  1.0000
  H   H4884     1.0  0.54864  0.05495  0.56805  1.0000
  H   H4885     1.0  0.69802  0.28006  0.54027  1.0000
  S   S629      1.0  0.63811  0.10398  0.56766  1.0000
  C   C2763     1.0  0.53108  0.28509  0.50705  1.0000
  C   C2764     1.0  0.76187  0.34846  0.53258  1.0000
  H   H4886     1.0  0.67307  0.22410  0.54231  1.0000
  H   H4887     1.0  0.59830  0.06720  0.56846  1.0000
  H   H4888     1.0  0.75684  0.27636  0.46448  1.0000
  C   C2765     1.0  0.83268  0.30414  0.38441  1.0000
  C   C2766     1.0  0.85588  0.24154  0.39888  1.0000
  C   C2767     1.0  0.88595  0.25080  0.38892  1.0000
  H   H4889     1.0  0.70454  0.32329  0.47868  1.0000
  H   H4890     1.0  0.63464  0.25409  0.56827  1.0000
  H   H4891     1.0  0.58007  0.28371  0.39907  1.0000
  H   H4892     1.0  0.63495  0.28694  0.56065  1.0000
  H   H4893     1.0  0.77765  0.36860  0.52402  1.0000
  H   H4894     1.0  0.58977  0.03157  0.49432  1.0000
  C   C2768     1.0  0.50634  0.07170  0.55653  1.0000
  H   H4895     1.0  0.55810  0.31190  0.47965  1.0000
  C   C2769     1.0  0.83818  0.35712  0.38252  1.0000
  H   H4896     1.0  0.56860  0.33690  0.57189  1.0000
  H   H4897     1.0  0.58981  0.11105  0.54917  1.0000
  H   H4898     1.0  0.75552  0.36111  0.56642  1.0000
  C   C2770     1.0  0.59493  0.28122  0.39553  1.0000
  C   C2771     1.0  0.55728  0.37127  0.52191  1.0000
  H   H4899     1.0  0.54447  0.19760  0.55719  1.0000
  H   H4900     1.0  0.68666  0.30128  0.54604  1.0000
  H   H4901     1.0  0.55254  0.23768  0.50944  1.0000
  S   S630      1.0  0.53874  0.32191  0.52592  1.0000
  H   H4902     1.0  0.88769  0.31096  0.39694  1.0000
  H   H4903     1.0  0.51710  0.06271  0.54910  1.0000
  H   H4904     1.0  0.85947  0.26803  0.38595  1.0000
  H   H4905     1.0  0.50812  0.05493  0.50988  1.0000
  H   H4906     1.0  0.76140  0.37910  0.54919  1.0000
  H   H4907     1.0  0.77063  0.33148  0.56280  1.0000
  H   H4908     1.0  0.86842  0.30650  0.41405  1.0000
  C   C2772     1.0  0.75848  0.35204  0.51371  1.0000
  H   H4909     1.0  0.66653  0.34076  0.46613  1.0000
  N   N151      1.0  0.55926  0.99259  0.50196  1.0000
  H   H4910     1.0  0.74981  0.35524  0.54097  1.0000
  H   H4911     1.0  0.75498  0.30356  0.53481  1.0000
  H   H4912     1.0  0.78627  0.30604  0.53048  1.0000
  H   H4913     1.0  0.83997  0.29129  0.49172  1.0000
  C   C2773     1.0  0.77884  0.35494  0.53251  1.0000
  H   H4914     1.0  0.57096  0.12203  0.53886  1.0000
  C   C2774     1.0  0.86684  0.25423  0.38525  1.0000
  H   H4915     1.0  0.86221  0.28413  0.49621  1.0000
  S   S631      1.0  0.72027  0.24206  0.53721  1.0000
  H   H4916     1.0  0.68143  0.25233  0.48584  1.0000
  H   H4917     1.0  0.93003  0.98682  0.39707  1.0000
  H   H4918     1.0  0.84276  0.26418  0.51602  1.0000
  H   H4919     1.0  0.79416  0.32682  0.55426  1.0000
  C   C2775     1.0  0.65620  0.23107  0.56681  1.0000
  C   C2776     1.0  0.78277  0.29281  0.53684  1.0000
  H   H4920     1.0  0.94015  0.23492  0.40261  1.0000
  C   C2777     1.0  0.67746  0.25570  0.49927  1.0000
  H   H4921     1.0  0.88131  0.40387  0.55657  1.0000
  C   C2778     1.0  0.57278  0.37165  0.56202  1.0000
  C   C2779     1.0  0.50600  0.34076  0.53992  1.0000
  H   H4922     1.0  0.77021  0.34529  0.50489  1.0000
  H   H4923     1.0  0.59635  0.36311  0.40418  1.0000
  C   C2780     1.0  0.91500  0.25908  0.38367  1.0000
  H   H4924     1.0  0.76359  0.33385  0.53763  1.0000
  N   N152      1.0  0.87753  0.33812  0.45362  1.0000
  H   H4925     1.0  0.88480  0.25009  0.40338  1.0000
  H   H4926     1.0  0.54593  0.38471  0.57116  1.0000
  C   C2781     1.0  0.80909  0.23298  0.52849  1.0000
  H   H4927     1.0  0.92961  0.38829  0.53775  1.0000
  H   H4928     1.0  0.51929  0.36807  0.54788  1.0000
  H   H4929     1.0  0.84824  0.31886  0.44384  1.0000
  H   H4930     1.0  0.82044  0.29872  0.52869  1.0000
  H   H4931     1.0  0.94463  0.39069  0.56094  1.0000
  H   H4932     1.0  0.59055  0.99975  0.50976  1.0000
  C   C2782     1.0  0.94098  0.39527  0.53412  1.0000
  C   C2783     1.0  0.55339  0.37929  0.55910  1.0000
  H   H4933     1.0  0.51134  0.24604  0.52863  1.0000
  H   H4934     1.0  0.87018  0.39442  0.43916  1.0000
  H   H4935     1.0  0.68254  0.31936  0.48857  1.0000
  S   S632      1.0  0.50688  0.14106  0.56104  1.0000
  C   C2784     1.0  0.90762  0.38958  0.38216  1.0000
  S   S633      1.0  0.94593  0.32504  0.41745  1.0000
  H   H4936     1.0  0.82076  0.39577  0.52346  1.0000
  H   H4937     1.0  0.67720  0.34250  0.44291  1.0000
  C   C2785     1.0  0.92520  0.41619  0.55556  1.0000
  C   C2786     1.0  0.83521  0.34635  0.44157  1.0000
  H   H4938     1.0  0.86095  0.38196  0.56794  1.0000
  N   N153      1.0  0.54388  0.36645  0.55603  1.0000
  H   H4939     1.0  0.79019  0.25631  0.53457  1.0000
  C   C2787     1.0  0.56886  0.00799  0.49449  1.0000
  H   H4940     1.0  0.80901  0.26046  0.51648  1.0000
  C   C2788     1.0  0.54062  0.35207  0.57261  1.0000
  H   H4941     1.0  0.86886  0.27950  0.40532  1.0000
  H   H4942     1.0  0.81624  0.38858  0.54733  1.0000
  H   H4943     1.0  0.54664  0.34866  0.53861  1.0000
  H   H4944     1.0  0.72892  0.29932  0.47030  1.0000
  C   C2789     1.0  0.49287  0.33788  0.57158  1.0000
  H   H4945     1.0  0.92026  0.39458  0.37851  1.0000
  C   C2790     1.0  0.88310  0.33777  0.47059  1.0000
  C   C2791     1.0  0.98168  0.40205  0.37908  1.0000
  H   H4946     1.0  0.52868  0.27912  0.54339  1.0000
  Fe  Fe316     1.0  0.51642  0.15091  0.53202  1.0000
  H   H4947     1.0  0.78504  0.28550  0.52608  1.0000
  C   C2792     1.0  0.82418  0.27377  0.55808  1.0000
  C   C2793     1.0  0.88761  0.31939  0.48302  1.0000
  C   C2794     1.0  0.89032  0.32161  0.50070  1.0000
  H   H4948     1.0  0.52745  0.38826  0.54071  1.0000
  C   C2795     1.0  0.79419  0.28306  0.55116  1.0000
  H   H4949     1.0  0.57362  0.32591  0.45060  1.0000
  H   H4950     1.0  0.85051  0.33742  0.46844  1.0000
  H   H4951     1.0  0.86306  0.31653  0.46509  1.0000
  H   H4952     1.0  0.89543  0.34320  0.46749  1.0000
  H   H4953     1.0  0.87250  0.34659  0.47857  1.0000
  H   H4954     1.0  0.86118  0.36475  0.45340  1.0000
  C   C2796     1.0  0.94413  0.23724  0.38784  1.0000
  H   H4955     1.0  0.72248  0.26155  0.47442  1.0000
  C   C2797     1.0  0.50752  0.32415  0.57522  1.0000
  H   H4956     1.0  0.89907  0.38654  0.56508  1.0000
  C   C2798     1.0  0.93943  0.98234  0.38523  1.0000
  H   H4957     1.0  0.78065  0.31863  0.40369  1.0000
  H   H4958     1.0  0.87683  0.31183  0.48632  1.0000
  H   H4959     1.0  0.90032  0.31144  0.47669  1.0000
  H   H4960     1.0  0.87783  0.32911  0.50791  1.0000
  H   H4961     1.0  0.89391  0.30830  0.50931  1.0000
  H   H4962     1.0  0.90131  0.32883  0.49840  1.0000
  H   H4963     1.0  0.95320  0.98335  0.38524  1.0000
  H   H4964     1.0  0.54447  0.37777  0.51752  1.0000
  H   H4965     1.0  0.87528  0.46592  0.47898  1.0000
  C   C2799     1.0  0.58159  0.38643  0.56275  1.0000
  H   H4966     1.0  0.52801  0.34774  0.57364  1.0000
  H   H4967     1.0  0.85022  0.27628  0.52822  1.0000
  H   H4968     1.0  0.80473  0.37525  0.51977  1.0000
  N   N154      1.0  0.60817  0.15782  0.54474  1.0000
  C   C2800     1.0  0.62757  0.15500  0.54569  1.0000
  C   C2801     1.0  0.59653  0.16158  0.56231  1.0000
  C   C2802     1.0  0.60523  0.14042  0.54261  1.0000
  C   C2803     1.0  0.60298  0.17246  0.52935  1.0000
  C   C2804     1.0  0.61258  0.18849  0.52376  1.0000
  C   C2805     1.0  0.64152  0.14790  0.53002  1.0000
  C   C2806     1.0  0.58592  0.14007  0.54185  1.0000
  C   C2807     1.0  0.74808  0.26827  0.46271  1.0000
  C   C2808     1.0  0.84807  0.28982  0.50174  1.0000
  C   C2809     1.0  0.60350  0.20373  0.51073  1.0000
  C   C2810     1.0  0.66021  0.15030  0.52965  1.0000
  C   C2811     1.0  0.58504  0.12216  0.53858  1.0000
  H   H4969     1.0  0.63025  0.14510  0.55795  1.0000
  H   H4970     1.0  0.63082  0.16735  0.54696  1.0000
  H   H4971     1.0  0.50364  0.29145  0.56418  1.0000
  C   C2812     1.0  0.65317  0.28995  0.57547  1.0000
  H   H4972     1.0  0.60931  0.12937  0.55366  1.0000
  H   H4973     1.0  0.61374  0.13669  0.53005  1.0000
  H   H4974     1.0  0.60555  0.16701  0.51709  1.0000
  H   H4975     1.0  0.58824  0.17783  0.53224  1.0000
  H   H4976     1.0  0.62670  0.18439  0.51700  1.0000
  H   H4977     1.0  0.61282  0.19387  0.53522  1.0000
  H   H4978     1.0  0.64234  0.13335  0.53168  1.0000
  H   H4979     1.0  0.63788  0.15468  0.51696  1.0000
  H   H4980     1.0  0.58113  0.15074  0.53096  1.0000
  H   H4981     1.0  0.57654  0.14182  0.55459  1.0000
  H   H4982     1.0  0.83091  0.37362  0.53337  1.0000
  H   H4983     1.0  0.59217  0.19053  0.55906  1.0000
  H   H4984     1.0  0.49275  0.09691  0.49143  1.0000
  C   C2813     1.0  0.73017  0.27078  0.47593  1.0000
  S   S634      1.0  0.58915  0.03243  0.56810  1.0000
  H   H4985     1.0  0.60383  0.19925  0.49844  1.0000
  H   H4986     1.0  0.58936  0.20854  0.51702  1.0000
  H   H4987     1.0  0.61051  0.21504  0.50699  1.0000
  S   S635      1.0  0.50025  0.17870  0.53223  1.0000
  H   H4988     1.0  0.66430  0.14337  0.54253  1.0000
  H   H4989     1.0  0.67003  0.14448  0.51878  1.0000
  C   C2814     1.0  0.87562  0.30506  0.40033  1.0000
  H   H4990     1.0  0.59328  0.12001  0.52536  1.0000
  C   C2815     1.0  0.50526  0.11252  0.50128  1.0000
  H   H4991     1.0  0.70210  0.31853  0.44984  1.0000
  C   C2816     1.0  0.82143  0.28489  0.52712  1.0000
  H   H4992     1.0  0.64209  0.39742  0.38830  1.0000
  C   C2817     1.0  0.88847  0.28273  0.37989  1.0000
  H   H4993     1.0  0.57468  0.29146  0.47936  1.0000
  C   C2818     1.0  0.88654  0.38927  0.56010  1.0000
  C   C2819     1.0  0.84128  0.27746  0.51908  1.0000
  C   C2820     1.0  0.69728  0.29470  0.53615  1.0000
  N   N155      1.0  0.50526  0.26741  0.55509  1.0000
  H   H4994     1.0  0.92266  0.26997  0.37779  1.0000
  H   H4995     1.0  0.57052  0.37090  0.49430  1.0000
  H   H4996     1.0  0.80334  0.36060  0.55981  1.0000
  N   N156      1.0  0.51367  0.07982  0.56770  1.0000
  H   H4997     1.0  0.97681  0.41384  0.38541  1.0000
  Fe  Fe317     1.0  0.53060  0.14886  0.56483  1.0000
  H   H4998     1.0  0.81099  0.34912  0.54218  1.0000
  C   C2821     1.0  0.63630  0.29275  0.57104  1.0000
  N   N157      1.0  0.81339  0.27414  0.54470  1.0000
  N   N158      1.0  0.60364  0.30731  0.42727  1.0000
  C   C2822     1.0  0.62384  0.30254  0.42336  1.0000
  C   C2823     1.0  0.59732  0.32696  0.41997  1.0000
  C   C2824     1.0  0.59735  0.30397  0.44733  1.0000
  C   C2825     1.0  0.59560  0.29586  0.42022  1.0000
  C   C2826     1.0  0.60183  0.29547  0.40011  1.0000
  C   C2827     1.0  0.63237  0.28319  0.43152  1.0000
  C   C2828     1.0  0.60833  0.33550  0.40202  1.0000
  C   C2829     1.0  0.59834  0.35419  0.39475  1.0000
  H   H4999     1.0  0.89520  0.33104  0.57125  1.0000
  C   C2830     1.0  0.65267  0.27946  0.42504  1.0000
  H   H5000     1.0  0.62910  0.31167  0.42829  1.0000
  H   H5001     1.0  0.62946  0.30486  0.40881  1.0000
  H   H5002     1.0  0.58309  0.32966  0.41873  1.0000
  H   H5003     1.0  0.59762  0.33504  0.42952  1.0000
  H   H5004     1.0  0.60504  0.31000  0.45331  1.0000
  H   H5005     1.0  0.60010  0.28943  0.45324  1.0000
  H   H5006     1.0  0.59792  0.28185  0.42787  1.0000
  H   H5007     1.0  0.58080  0.30031  0.42250  1.0000
  H   H5008     1.0  0.61660  0.29238  0.39595  1.0000
  C   C2831     1.0  0.96647  0.40242  0.42484  1.0000
  H   H5009     1.0  0.62970  0.28101  0.44629  1.0000
  H   H5010     1.0  0.62715  0.27331  0.42767  1.0000
  H   H5011     1.0  0.62125  0.33680  0.40416  1.0000
  H   H5012     1.0  0.61150  0.32752  0.39164  1.0000
  C   C2832     1.0  0.55400  0.35819  0.54017  1.0000
  S   S636      1.0  0.72246  0.27193  0.56968  1.0000
  H   H5013     1.0  0.57380  0.39340  0.57371  1.0000
  H   H5014     1.0  0.80166  0.23146  0.51900  1.0000
  C   C2833     1.0  0.59786  0.17837  0.56805  1.0000
  H   H5015     1.0  0.56326  0.35054  0.50639  1.0000
  H   H5016     1.0  0.65866  0.28864  0.42911  1.0000
  H   H5017     1.0  0.67451  0.06734  0.55712  1.0000
  H   H5018     1.0  0.65610  0.28116  0.41029  1.0000
  H   H5019     1.0  0.89226  0.36926  0.45098  1.0000
  H   H5020     1.0  0.96738  0.43032  0.42206  1.0000
  N   N159      1.0  0.70284  0.29535  0.48565  1.0000
  C   C2834     1.0  0.70798  0.29369  0.50317  1.0000
  C   C2835     1.0  0.71960  0.29023  0.47210  1.0000
  C   C2836     1.0  0.69504  0.31483  0.47914  1.0000
  C   C2837     1.0  0.68915  0.28443  0.48726  1.0000
  H   H5021     1.0  0.66479  0.28197  0.56847  1.0000
  H   H5022     1.0  0.95144  0.41766  0.57050  1.0000
  H   H5023     1.0  0.91029  0.37550  0.38948  1.0000
  H   H5024     1.0  0.60050  0.26772  0.40272  1.0000
  H   H5025     1.0  0.92101  0.22991  0.38493  1.0000
  C   C2838     1.0  0.77117  0.37676  0.57269  1.0000
  H   H5026     1.0  0.59630  0.30844  0.39206  1.0000
  H   H5027     1.0  0.79796  0.32969  0.38944  1.0000
  H   H5028     1.0  0.56219  0.21018  0.57073  1.0000
  H   H5029     1.0  0.52336  0.24309  0.56436  1.0000
  H   H5030     1.0  0.57733  0.08280  0.57243  1.0000
  Fe  Fe318     1.0  0.94804  0.32569  0.38835  1.0000
  H   H5031     1.0  0.59941  0.14987  0.57323  1.0000
  H   H5032     1.0  0.63667  0.44674  0.38494  1.0000
  C   C2839     1.0  0.88804  0.47074  0.47500  1.0000
  H   H5033     1.0  0.59689  0.99325  0.48849  1.0000
  H   H5034     1.0  0.68882  0.18890  0.57248  1.0000
  Fe  Fe319     1.0  0.49301  0.16935  0.56191  1.0000
  H   H5035     1.0  0.74641  0.39698  0.57397  1.0000
  S   S637      1.0  0.57383  0.99658  0.57053  1.0000
  H   H5036     1.0  0.83017  0.36715  0.57318  1.0000
  C   C2840     1.0  0.77116  0.34038  0.38246  1.0000
  H   H5037     1.0  0.95138  0.24842  0.38301  1.0000
  H   H5038     1.0  0.66526  0.23961  0.56702  1.0000
  C   C2841     1.0  0.85351  0.36663  0.37990  1.0000
  H   H5039     1.0  0.58136  0.36498  0.55116  1.0000
  H   H5040     1.0  0.57267  0.36205  0.57498  1.0000
  H   H5041     1.0  0.53330  0.26918  0.57054  1.0000
  C   C2842     1.0  0.69283  0.27728  0.38718  1.0000
  C   C2843     1.0  0.68358  0.07349  0.56118  1.0000
  H   H5042     1.0  0.49436  0.22311  0.53102  1.0000
  C   C2844     1.0  0.63658  0.23957  0.57440  1.0000
  H   H5043     1.0  0.53623  0.09179  0.56517  1.0000
  S   S638      1.0  0.59968  0.30713  0.57565  1.0000
  H   H5044     1.0  0.58263  0.39625  0.54988  1.0000
  H   H5045     1.0  0.55493  0.32696  0.56416  1.0000
  H   H5046     1.0  0.50200  0.08103  0.52923  1.0000
  C   C2845     1.0  0.49278  0.25900  0.54990  1.0000
  H   H5047     1.0  0.84273  0.24338  0.39529  1.0000
  H   H5048     1.0  0.50892  0.23171  0.55044  1.0000
  H   H5049     1.0  0.97738  0.08697  0.39872  1.0000
  S   S639      1.0  0.93583  0.30611  0.38195  1.0000
  C   C2846     1.0  0.98658  0.39629  0.41681  1.0000
  H   H5050     1.0  0.88272  0.48003  0.49929  1.0000
  H   H5051     1.0  0.89238  0.23707  0.38681  1.0000
  C   C2847     1.0  0.49470  0.28440  0.56106  1.0000
  H   H5052     1.0  0.97469  0.33303  0.43672  1.0000
  H   H5053     1.0  0.89762  0.39778  0.39109  1.0000
  C   C2848     1.0  0.50171  0.24254  0.54125  1.0000
  H   H5054     1.0  0.98535  0.37354  0.38543  1.0000
  H   H5055     1.0  0.49242  0.10347  0.56772  1.0000
  C   C2849     1.0  0.49204  0.34605  0.55385  1.0000
  H   H5056     1.0  0.85976  0.41000  0.37756  1.0000
  H   H5057     1.0  0.77144  0.35485  0.37806  1.0000
  H   H5058     1.0  0.59923  0.28153  0.38097  1.0000
  H   H5059     1.0  0.59741  0.08663  0.57657  1.0000
  H   H5060     1.0  0.77525  0.27678  0.37728  1.0000
  H   H5061     1.0  0.98816  0.13335  0.38534  1.0000
  C   C2850     1.0  0.49078  0.10852  0.49703  1.0000
  C   C2851     1.0  0.98879  0.33095  0.42924  1.0000
  H   H5062     1.0  0.87843  0.36564  0.57683  1.0000
  H   H5063     1.0  0.87333  0.34239  0.60515  1.0000
  S   S640      1.0  0.62948  0.09987  0.62110  1.0000
  S   S641      1.0  0.64268  0.13219  0.63135  1.0000
  Fe  Fe320     1.0  0.65424  0.10413  0.62708  1.0000
  S   S642      1.0  0.67024  0.08238  0.64483  1.0000
  Fe  Fe321     1.0  0.61891  0.12865  0.62291  1.0000
  S   S643      1.0  0.58972  0.13923  0.63266  1.0000
  Fe  Fe322     1.0  0.81850  0.33362  0.64345  1.0000
  S   S644      1.0  0.84508  0.32074  0.62887  1.0000
  S   S645      1.0  0.81380  0.36006  0.65141  1.0000
  Fe  Fe323     1.0  0.79941  0.30541  0.64110  1.0000
  S   S646      1.0  0.82460  0.28995  0.62693  1.0000
  S   S647      1.0  0.77189  0.29948  0.64541  1.0000
  Fe  Fe324     1.0  0.83778  0.29536  0.64647  1.0000
  S   S648      1.0  0.85786  0.27393  0.65993  1.0000
  Fe  Fe325     1.0  0.82943  0.31664  0.61079  1.0000
  H   H5064     1.0  0.74548  0.37707  0.59139  1.0000
  S   S649      1.0  0.81204  0.30854  0.66227  1.0000
  S   S650      1.0  0.80344  0.33182  0.62383  1.0000
  Fe  Fe326     1.0  0.70948  0.08127  0.72252  1.0000
  S   S651      1.0  0.73497  0.06084  0.71791  1.0000
  S   S652      1.0  0.69873  0.10444  0.70203  1.0000
  H   H5065     1.0  0.93747  0.45293  0.68745  1.0000
  C   C2852     1.0  0.68105  0.06964  0.58148  1.0000
  Fe  Fe327     1.0  0.73907  0.06403  0.74399  1.0000
  S   S653      1.0  0.76530  0.06242  0.75184  1.0000
  Fe  Fe328     1.0  0.71794  0.04127  0.73471  1.0000
  S   S654      1.0  0.72073  0.01583  0.72539  1.0000
  S   S655      1.0  0.71511  0.08632  0.74694  1.0000
  S   S656      1.0  0.69223  0.06156  0.73774  1.0000
  C   C2853     1.0  0.89419  0.46793  0.60588  1.0000
  H   H5066     1.0  0.49092  0.36995  0.69825  1.0000
  C   C2854     1.0  0.75405  0.38659  0.58316  1.0000
  H   H5067     1.0  0.50320  0.24763  0.57991  1.0000
  S   S657      1.0  0.69633  0.20802  0.62360  1.0000
  H   H5068     1.0  0.72057  0.11752  0.65897  1.0000
  H   H5069     1.0  0.70240  0.01997  0.60693  1.0000
  H   H5070     1.0  0.93297  0.46151  0.63005  1.0000
  C   C2855     1.0  0.91105  0.38849  0.61990  1.0000
  H   H5071     1.0  0.74687  0.15395  0.63900  1.0000
  C   C2856     1.0  0.85768  0.46714  0.71728  1.0000
  C   C2857     1.0  0.63580  0.06858  0.58148  1.0000
  S   S658      1.0  0.71023  0.25427  0.61231  1.0000
  S   S659      1.0  0.61182  0.99222  0.58227  1.0000
  C   C2858     1.0  0.69218  0.05280  0.61635  1.0000
  H   H5072     1.0  0.80204  0.30627  0.58180  1.0000
  C   C2859     1.0  0.54126  0.03550  0.59130  1.0000
  S   S660      1.0  0.87544  0.29407  0.72490  1.0000
  Fe  Fe329     1.0  0.87388  0.39667  0.68775  1.0000
  S   S661      1.0  0.89773  0.40256  0.66647  1.0000
  S   S662      1.0  0.86853  0.36905  0.69270  1.0000
  Fe  Fe330     1.0  0.86488  0.43328  0.69670  1.0000
  S   S663      1.0  0.88765  0.44231  0.67593  1.0000
  Fe  Fe331     1.0  0.87990  0.42879  0.65843  1.0000
  S   S664      1.0  0.87969  0.44106  0.62958  1.0000
  Fe  Fe332     1.0  0.90341  0.41538  0.68588  1.0000
  S   S665      1.0  0.93176  0.41398  0.68690  1.0000
  S   S666      1.0  0.85541  0.42210  0.67825  1.0000
  S   S667      1.0  0.88128  0.40712  0.70820  1.0000
  H   H5073     1.0  0.63375  0.18127  0.61276  1.0000
  H   H5074     1.0  0.50816  0.31766  0.58890  1.0000
  H   H5075     1.0  0.86005  0.40210  0.58690  1.0000
  C   C2860     1.0  0.98957  0.21232  0.77514  1.0000
  H   H5076     1.0  0.90708  0.37854  0.61486  1.0000
  C   C2861     1.0  0.66216  0.04908  0.61744  1.0000
  C   C2862     1.0  0.68619  0.98905  0.71913  1.0000
  H   H5077     1.0  0.92289  0.47067  0.66049  1.0000
  H   H5078     1.0  0.53718  0.02872  0.63748  1.0000
  C   C2863     1.0  0.93060  0.39034  0.71932  1.0000
  C   C2864     1.0  0.94109  0.39717  0.70306  1.0000
  C   C2865     1.0  0.95966  0.39126  0.69983  1.0000
  C   C2866     1.0  0.96779  0.37836  0.71263  1.0000
  H   H5079     1.0  0.91625  0.39508  0.72194  1.0000
  H   H5080     1.0  0.96780  0.39663  0.68733  1.0000
  H   H5081     1.0  0.90176  0.39036  0.63274  1.0000
  C   C2867     1.0  0.54214  0.09823  0.62976  1.0000
  C   C2868     1.0  0.90956  0.45235  0.62996  1.0000
  C   C2869     1.0  0.89556  0.45465  0.62127  1.0000
  H   H5082     1.0  0.83750  0.26160  0.76723  1.0000
  H   H5083     1.0  0.71362  0.99161  0.70810  1.0000
  H   H5084     1.0  0.91100  0.44183  0.64159  1.0000
  H   H5085     1.0  0.50529  0.08847  0.60329  1.0000
  H   H5086     1.0  0.81990  0.27308  0.75502  1.0000
  S   S668      1.0  0.69084  0.24800  0.58292  1.0000
  H   H5087     1.0  0.87943  0.38909  0.59465  1.0000
  H   H5088     1.0  0.67468  0.04410  0.58450  1.0000
  H   H5089     1.0  0.75751  0.39318  0.59225  1.0000
  C   C2870     1.0  0.97675  0.40507  0.74990  1.0000
  C   C2871     1.0  0.73554  0.16875  0.61651  1.0000
  C   C2872     1.0  0.84150  0.47076  0.65776  1.0000
  C   C2873     1.0  0.70161  0.99549  0.71770  1.0000
  H   H5090     1.0  0.56578  0.05396  0.66435  1.0000
  H   H5091     1.0  0.75445  0.19692  0.62929  1.0000
  H   H5092     1.0  0.88400  0.45213  0.70842  1.0000
  S   S669      1.0  0.82990  0.13942  0.77259  1.0000
  C   C2874     1.0  0.82015  0.37183  0.58459  1.0000
  H   H5093     1.0  0.53821  0.11557  0.64837  1.0000
  H   H5094     1.0  0.58837  0.02882  0.67665  1.0000
  C   C2875     1.0  0.77017  0.08096  0.75683  1.0000
  C   C2876     1.0  0.64505  0.24317  0.60053  1.0000
  N   N160      1.0  0.68173  0.04371  0.60925  1.0000
  S   S670      1.0  0.65108  0.98629  0.73377  1.0000
  H   H5095     1.0  0.80313  0.27424  0.58249  1.0000
  C   C2877     1.0  0.76064  0.09828  0.75173  1.0000
  Fe  Fe333     1.0  0.73548  0.25300  0.59132  1.0000
  H   H5096     1.0  0.84141  0.46475  0.67209  1.0000
  H   H5097     1.0  0.68262  0.98936  0.63099  1.0000
  H   H5098     1.0  0.74999  0.10052  0.74464  1.0000
  C   C2878     1.0  0.70142  0.00737  0.72821  1.0000
  H   H5099     1.0  0.61462  0.26322  0.59481  1.0000
  C   C2879     1.0  0.67068  0.00536  0.74254  1.0000
  C   C2880     1.0  0.68591  0.01226  0.74069  1.0000
  C   C2881     1.0  0.93325  0.43884  0.72325  1.0000
  H   H5100     1.0  0.68574  0.02124  0.74899  1.0000
  H   H5101     1.0  0.71910  0.05769  0.63023  1.0000
  C   C2882     1.0  0.86703  0.38804  0.59113  1.0000
  C   C2883     1.0  0.86377  0.27994  0.67717  1.0000
  C   C2884     1.0  0.85643  0.29675  0.68134  1.0000
  C   C2885     1.0  0.86082  0.30123  0.69546  1.0000
  C   C2886     1.0  0.87203  0.28871  0.70595  1.0000
  C   C2887     1.0  0.87975  0.27203  0.70152  1.0000
  C   C2888     1.0  0.87571  0.26770  0.68707  1.0000
  H   H5102     1.0  0.84728  0.30624  0.67370  1.0000
  H   H5103     1.0  0.85538  0.31437  0.69836  1.0000
  H   H5104     1.0  0.88872  0.26242  0.70927  1.0000
  H   H5105     1.0  0.88165  0.25477  0.68368  1.0000
  C   C2889     1.0  0.76948  0.28720  0.63084  1.0000
  C   C2890     1.0  0.78364  0.27402  0.62477  1.0000
  C   C2891     1.0  0.78123  0.26352  0.61412  1.0000
  C   C2892     1.0  0.76487  0.26647  0.60895  1.0000
  C   C2893     1.0  0.75066  0.27971  0.61491  1.0000
  C   C2894     1.0  0.75294  0.28996  0.62598  1.0000
  H   H5106     1.0  0.79627  0.27150  0.62879  1.0000
  H   H5107     1.0  0.63637  0.04032  0.59092  1.0000
  H   H5108     1.0  0.73795  0.28204  0.61103  1.0000
  H   H5109     1.0  0.74191  0.30010  0.63071  1.0000
  C   C2895     1.0  0.55151  0.14480  0.60458  1.0000
  H   H5110     1.0  0.68879  0.01945  0.62846  1.0000
  H   H5111     1.0  0.77863  0.34332  0.77553  1.0000
  H   H5112     1.0  0.53847  0.35745  0.58485  1.0000
  C   C2896     1.0  0.82898  0.36230  0.66307  1.0000
  C   C2897     1.0  0.84360  0.34855  0.66646  1.0000
  C   C2898     1.0  0.85576  0.35077  0.67548  1.0000
  C   C2899     1.0  0.85351  0.36685  0.68086  1.0000
  C   C2900     1.0  0.83899  0.38068  0.67734  1.0000
  C   C2901     1.0  0.82668  0.37835  0.66856  1.0000
  H   H5113     1.0  0.84557  0.33627  0.66202  1.0000
  H   H5114     1.0  0.86698  0.34003  0.67819  1.0000
  H   H5115     1.0  0.83698  0.39301  0.68171  1.0000
  H   H5116     1.0  0.81534  0.38900  0.66601  1.0000
  C   C2902     1.0  0.91834  0.42307  0.75167  1.0000
  C   C2903     1.0  0.67090  0.17311  0.61582  1.0000
  C   C2904     1.0  0.67722  0.18346  0.62389  1.0000
  C   C2905     1.0  0.68784  0.19562  0.61344  1.0000
  C   C2906     1.0  0.58586  0.06578  0.59650  1.0000
  H   H5117     1.0  0.97536  0.34610  0.69848  1.0000
  H   H5118     1.0  0.66272  0.16375  0.62392  1.0000
  H   H5119     1.0  0.67380  0.18209  0.63821  1.0000
  H   H5120     1.0  0.62913  0.04269  0.63668  1.0000
  H   H5121     1.0  0.83580  0.40289  0.60968  1.0000
  C   C2907     1.0  0.67854  0.08919  0.66002  1.0000
  C   C2908     1.0  0.66974  0.10460  0.66665  1.0000
  C   C2909     1.0  0.67603  0.10920  0.67955  1.0000
  C   C2910     1.0  0.69095  0.09827  0.68609  1.0000
  C   C2911     1.0  0.69979  0.08288  0.67942  1.0000
  C   C2912     1.0  0.69373  0.07850  0.66623  1.0000
  H   H5122     1.0  0.65794  0.11285  0.66209  1.0000
  H   H5123     1.0  0.66916  0.12113  0.68467  1.0000
  H   H5124     1.0  0.71138  0.07443  0.68434  1.0000
  H   H5125     1.0  0.70067  0.06664  0.66106  1.0000
  C   C2913     1.0  0.57818  0.13725  0.61726  1.0000
  H   H5126     1.0  0.57070  0.03472  0.65429  1.0000
  H   H5127     1.0  0.83983  0.31449  0.74978  1.0000
  H   H5128     1.0  0.91708  0.41978  0.76646  1.0000
  C   C2914     1.0  0.68832  0.02379  0.61403  1.0000
  H   H5129     1.0  0.53885  0.25281  0.60061  1.0000
  H   H5130     1.0  0.66731  0.07636  0.58693  1.0000
  H   H5131     1.0  0.94182  0.42092  0.60103  1.0000
  C   C2915     1.0  0.85382  0.40116  0.62664  1.0000
  H   H5132     1.0  0.55400  0.15556  0.62610  1.0000
  H   H5133     1.0  0.58344  0.99292  0.74563  1.0000
  C   C2916     1.0  0.62126  0.00176  0.64123  1.0000
  C   C2917     1.0  0.62052  0.01197  0.62409  1.0000
  C   C2918     1.0  0.76505  0.11281  0.75556  1.0000
  H   H5134     1.0  0.63191  0.01746  0.61611  1.0000
  S   S671      1.0  0.91209  0.24901  0.73470  1.0000
  C   C2919     1.0  0.87234  0.44469  0.58009  1.0000
  H   H5135     1.0  0.53745  0.31960  0.59552  1.0000
  H   H5136     1.0  0.66850  0.23920  0.62307  1.0000
  S   S672      1.0  0.91812  0.23789  0.77603  1.0000
  H   H5137     1.0  0.68645  0.06738  0.61450  1.0000
  C   C2920     1.0  0.88530  0.47596  0.71577  1.0000
  H   H5138     1.0  0.77817  0.30690  0.58907  1.0000
  C   C2921     1.0  0.90690  0.47878  0.59911  1.0000
  H   H5139     1.0  0.88614  0.41425  0.77278  1.0000
  H   H5140     1.0  0.96027  0.41011  0.73087  1.0000
  H   H5141     1.0  0.69882  0.98828  0.61018  1.0000
  H   H5142     1.0  0.67667  0.98451  0.61258  1.0000
  C   C2922     1.0  0.84393  0.39201  0.61809  1.0000
  H   H5143     1.0  0.66003  0.02714  0.64122  1.0000
  H   H5144     1.0  0.63264  0.04138  0.65859  1.0000
  H   H5145     1.0  0.69036  0.11055  0.62282  1.0000
  H   H5146     1.0  0.90192  0.12124  0.76312  1.0000
  H   H5147     1.0  0.95753  0.43626  0.69031  1.0000
  S   S673      1.0  0.62901  0.13916  0.59417  1.0000
  C   C2923     1.0  0.98446  0.29499  0.76849  1.0000
  S   S674      1.0  0.73270  0.22827  0.58422  1.0000
  H   H5148     1.0  0.66320  0.04714  0.64550  1.0000
  H   H5149     1.0  0.85598  0.29761  0.77345  1.0000
  H   H5150     1.0  0.83781  0.32803  0.77637  1.0000
  C   C2924     1.0  0.73125  0.12514  0.65208  1.0000
  H   H5151     1.0  0.88389  0.17518  0.76075  1.0000
  C   C2925     1.0  0.84971  0.32670  0.76534  1.0000
  S   S675      1.0  0.54799  0.12679  0.58063  1.0000
  C   C2926     1.0  0.85760  0.47959  0.64936  1.0000
  H   H5152     1.0  0.68067  0.17568  0.66815  1.0000
  H   H5153     1.0  0.69283  0.16215  0.68517  1.0000
  H   H5154     1.0  0.65875  0.00918  0.75224  1.0000
  H   H5155     1.0  0.57984  0.99167  0.65232  1.0000
  H   H5156     1.0  0.83405  0.38577  0.62905  1.0000
  H   H5157     1.0  0.59892  0.05939  0.60042  1.0000
  C   C2927     1.0  0.81652  0.26626  0.57790  1.0000
  N   N161      1.0  0.92356  0.33629  0.70704  1.0000
  C   C2928     1.0  0.94276  0.33843  0.70010  1.0000
  C   C2929     1.0  0.91242  0.34611  0.69314  1.0000
  C   C2930     1.0  0.91635  0.34478  0.72318  1.0000
  C   C2931     1.0  0.92202  0.31696  0.71275  1.0000
  C   C2932     1.0  0.92944  0.30571  0.69814  1.0000
  C   C2933     1.0  0.95571  0.32980  0.71317  1.0000
  C   C2934     1.0  0.89608  0.34606  0.73146  1.0000
  C   C2935     1.0  0.92180  0.34694  0.67318  1.0000
  C   C2936     1.0  0.90822  0.35236  0.66108  1.0000
  C   C2937     1.0  0.92845  0.28617  0.70577  1.0000
  C   C2938     1.0  0.89022  0.35718  0.74592  1.0000
  H   H5158     1.0  0.94315  0.35293  0.69591  1.0000
  H   H5159     1.0  0.94891  0.33287  0.68794  1.0000
  H   H5160     1.0  0.90026  0.34041  0.69565  1.0000
  H   H5161     1.0  0.90726  0.36037  0.69424  1.0000
  H   H5162     1.0  0.91899  0.35855  0.71976  1.0000
  H   H5163     1.0  0.92336  0.33730  0.73422  1.0000
  H   H5164     1.0  0.92844  0.31019  0.72437  1.0000
  H   H5165     1.0  0.90772  0.31591  0.71768  1.0000
  H   H5166     1.0  0.94363  0.30616  0.69194  1.0000
  H   H5167     1.0  0.92118  0.31047  0.68779  1.0000
  H   H5168     1.0  0.95191  0.33637  0.72478  1.0000
  H   H5169     1.0  0.95587  0.31533  0.71805  1.0000
  H   H5170     1.0  0.89316  0.33259  0.73772  1.0000
  H   H5171     1.0  0.88770  0.35247  0.72139  1.0000
  H   H5172     1.0  0.93043  0.35699  0.66899  1.0000
  H   H5173     1.0  0.93040  0.33406  0.67061  1.0000
  C   C2939     1.0  0.84142  0.41746  0.63327  1.0000
  H   H5174     1.0  0.89964  0.34235  0.66447  1.0000
  H   H5175     1.0  0.89959  0.36560  0.66251  1.0000
  H   H5176     1.0  0.93640  0.28045  0.71633  1.0000
  H   H5177     1.0  0.91434  0.28490  0.71140  1.0000
  H   H5178     1.0  0.93391  0.27836  0.69506  1.0000
  H   H5179     1.0  0.75094  0.13357  0.66208  1.0000
  C   C2940     1.0  0.67762  0.01226  0.60943  1.0000
  C   C2941     1.0  0.59523  0.98509  0.75137  1.0000
  N   N162      1.0  0.63915  0.05549  0.70729  1.0000
  C   C2942     1.0  0.65533  0.04067  0.70451  1.0000
  C   C2943     1.0  0.62289  0.04726  0.71542  1.0000
  C   C2944     1.0  0.63757  0.06763  0.68940  1.0000
  C   C2945     1.0  0.64081  0.06625  0.71975  1.0000
  C   C2946     1.0  0.64432  0.05555  0.73832  1.0000
  C   C2947     1.0  0.67387  0.04602  0.69982  1.0000
  C   C2948     1.0  0.62090  0.08315  0.68928  1.0000
  C   C2949     1.0  0.61696  0.03841  0.70319  1.0000
  C   C2950     1.0  0.60096  0.02991  0.71342  1.0000
  C   C2951     1.0  0.64336  0.06816  0.75041  1.0000
  C   C2952     1.0  0.68744  0.03567  0.68656  1.0000
  C   C2953     1.0  0.61949  0.09299  0.67024  1.0000
  H   H5180     1.0  0.65462  0.03424  0.69385  1.0000
  H   H5181     1.0  0.65532  0.02973  0.71653  1.0000
  H   H5182     1.0  0.62533  0.03659  0.72730  1.0000
  H   H5183     1.0  0.61121  0.05726  0.72056  1.0000
  H   H5184     1.0  0.63802  0.05983  0.67938  1.0000
  H   H5185     1.0  0.64934  0.07402  0.68383  1.0000
  H   H5186     1.0  0.65149  0.07410  0.71350  1.0000
  H   H5187     1.0  0.62829  0.07642  0.72231  1.0000
  H   H5188     1.0  0.65774  0.04664  0.73710  1.0000
  H   H5189     1.0  0.63426  0.04725  0.74526  1.0000
  H   H5190     1.0  0.67316  0.06036  0.69411  1.0000
  H   H5191     1.0  0.67929  0.04318  0.71209  1.0000
  H   H5192     1.0  0.62190  0.09303  0.69650  1.0000
  H   H5193     1.0  0.60830  0.07834  0.69560  1.0000
  H   H5194     1.0  0.61284  0.04835  0.69152  1.0000
  H   H5195     1.0  0.62792  0.02776  0.69830  1.0000
  H   H5196     1.0  0.59695  0.02345  0.70461  1.0000
  H   H5197     1.0  0.60454  0.01949  0.72505  1.0000
  H   H5198     1.0  0.58934  0.04015  0.71811  1.0000
  H   H5199     1.0  0.64644  0.06030  0.76340  1.0000
  H   H5200     1.0  0.65316  0.07697  0.74426  1.0000
  H   H5201     1.0  0.62971  0.07657  0.75298  1.0000
  H   H5202     1.0  0.70102  0.03797  0.68545  1.0000
  H   H5203     1.0  0.68779  0.02115  0.69104  1.0000
  H   H5204     1.0  0.68388  0.04023  0.67321  1.0000
  H   H5205     1.0  0.61757  0.08393  0.66261  1.0000
  H   H5206     1.0  0.60786  0.10442  0.67046  1.0000
  H   H5207     1.0  0.63177  0.09827  0.66331  1.0000
  N   N163      1.0  0.73572  0.24240  0.66332  1.0000
  C   C2954     1.0  0.75453  0.24478  0.66140  1.0000
  C   C2955     1.0  0.73515  0.23463  0.64799  1.0000
  C   C2956     1.0  0.72366  0.26075  0.66152  1.0000
  C   C2957     1.0  0.72888  0.23106  0.68107  1.0000
  C   C2958     1.0  0.74290  0.21602  0.68985  1.0000
  C   C2959     1.0  0.75683  0.25580  0.67398  1.0000
  C   C2960     1.0  0.70372  0.26160  0.66179  1.0000
  C   C2961     1.0  0.74686  0.21588  0.64672  1.0000
  C   C2962     1.0  0.74640  0.21060  0.62964  1.0000
  C   C2963     1.0  0.73378  0.20363  0.70579  1.0000
  C   C2964     1.0  0.77642  0.25289  0.67518  1.0000
  C   C2965     1.0  0.69257  0.28042  0.66233  1.0000
  H   H5208     1.0  0.75955  0.25159  0.64754  1.0000
  H   H5209     1.0  0.76404  0.23177  0.66319  1.0000
  H   H5210     1.0  0.72135  0.23323  0.64863  1.0000
  H   H5211     1.0  0.73898  0.24390  0.63507  1.0000
  H   H5212     1.0  0.72892  0.26965  0.64894  1.0000
  H   H5213     1.0  0.72351  0.26717  0.67251  1.0000
  H   H5214     1.0  0.72222  0.23950  0.69118  1.0000
  H   H5215     1.0  0.71819  0.22489  0.67984  1.0000
  H   H5216     1.0  0.75155  0.22184  0.69484  1.0000
  H   H5217     1.0  0.75179  0.20774  0.68047  1.0000
  H   H5218     1.0  0.75222  0.27026  0.66874  1.0000
  H   H5219     1.0  0.74883  0.25238  0.68764  1.0000
  H   H5220     1.0  0.69783  0.25229  0.67357  1.0000
  H   H5221     1.0  0.70232  0.25823  0.64957  1.0000
  H   H5222     1.0  0.76107  0.21527  0.64656  1.0000
  H   H5223     1.0  0.74154  0.20578  0.65801  1.0000
  H   H5224     1.0  0.57908  0.05515  0.59648  1.0000
  H   H5225     1.0  0.73245  0.21078  0.62904  1.0000
  H   H5226     1.0  0.71871  0.15951  0.65948  1.0000
  H   H5227     1.0  0.72552  0.19678  0.70144  1.0000
  H   H5228     1.0  0.74408  0.19330  0.71206  1.0000
  H   H5229     1.0  0.72514  0.21127  0.71595  1.0000
  H   H5230     1.0  0.77767  0.26174  0.68342  1.0000
  H   H5231     1.0  0.78144  0.23882  0.68141  1.0000
  H   H5232     1.0  0.78486  0.25624  0.66170  1.0000
  H   H5233     1.0  0.69782  0.29013  0.65050  1.0000
  H   H5234     1.0  0.67848  0.28076  0.66211  1.0000
  H   H5235     1.0  0.69274  0.28451  0.67467  1.0000
  H   H5236     1.0  0.88157  0.47349  0.76755  1.0000
  H   H5237     1.0  0.95952  0.44681  0.71602  1.0000
  H   H5238     1.0  0.69656  0.12310  0.64557  1.0000
  H   H5239     1.0  0.73570  0.05940  0.60976  1.0000
  H   H5240     1.0  0.51048  0.05904  0.59128  1.0000
  H   H5241     1.0  0.70642  0.16818  0.64240  1.0000
  H   H5242     1.0  0.70476  0.12305  0.60545  1.0000
  H   H5243     1.0  0.95849  0.45960  0.68406  1.0000
  H   H5244     1.0  0.71512  0.07592  0.61161  1.0000
  H   H5245     1.0  0.81421  0.35043  0.76611  1.0000
  H   H5246     1.0  0.74132  0.11636  0.64365  1.0000
  C   C2966     1.0  0.59771  0.24664  0.59277  1.0000
  C   C2967     1.0  0.98401  0.24359  0.76069  1.0000
  H   H5247     1.0  0.84227  0.45997  0.65083  1.0000
  H   H5248     1.0  0.83229  0.08026  0.75948  1.0000
  C   C2968     1.0  0.85709  0.17694  0.77668  1.0000
  C   C2969     1.0  0.65496  0.29782  0.58873  1.0000
  Fe  Fe334     1.0  0.58395  0.00790  0.58839  1.0000
  H   H5249     1.0  0.93082  0.37250  0.74506  1.0000
  H   H5250     1.0  0.59282  0.16804  0.59677  1.0000
  H   H5251     1.0  0.75254  0.10904  0.68848  1.0000
  H   H5252     1.0  0.55227  0.32883  0.60305  1.0000
  H   H5253     1.0  0.85553  0.06966  0.75362  1.0000
  C   C2970     1.0  0.63128  0.21770  0.60369  1.0000
  H   H5254     1.0  0.79045  0.31132  0.60314  1.0000
  H   H5255     1.0  0.69085  0.04801  0.63102  1.0000
  H   H5256     1.0  0.49435  0.24807  0.63612  1.0000
  H   H5257     1.0  0.95100  0.39934  0.75312  1.0000
  C   C2971     1.0  0.93953  0.43303  0.59045  1.0000
  H   H5258     1.0  0.95476  0.22233  0.75392  1.0000
  C   C2972     1.0  0.82865  0.26690  0.58987  1.0000
  Fe  Fe335     1.0  0.64105  0.11066  0.59261  1.0000
  H   H5259     1.0  0.72614  0.16838  0.60842  1.0000
  H   H5260     1.0  0.94049  0.46495  0.71290  1.0000
  H   H5261     1.0  0.66321  0.01538  0.61556  1.0000
  H   H5262     1.0  0.67586  0.04014  0.77578  1.0000
  C   C2973     1.0  0.87537  0.19909  0.77137  1.0000
  H   H5263     1.0  0.70507  0.15139  0.62285  1.0000
  H   H5264     1.0  0.81569  0.36013  0.59420  1.0000
  H   H5265     1.0  0.56091  0.30955  0.59300  1.0000
  C   C2974     1.0  0.52141  0.06522  0.58179  1.0000
  H   H5266     1.0  0.60677  0.98709  0.66495  1.0000
  H   H5267     1.0  0.75769  0.12619  0.75144  1.0000
  C   C2975     1.0  0.52795  0.04173  0.63886  1.0000
  H   H5268     1.0  0.60016  0.11867  0.60527  1.0000
  H   H5269     1.0  0.85684  0.33751  0.76378  1.0000
  C   C2976     1.0  0.58666  0.12603  0.60521  1.0000
  S   S676      1.0  0.96833  0.35551  0.74447  1.0000
  C   C2977     1.0  0.97484  0.33182  0.70400  1.0000
  C   C2978     1.0  0.92209  0.46342  0.62335  1.0000
  S   S677      1.0  0.90847  0.28043  0.75650  1.0000
  H   H5270     1.0  0.52222  0.10110  0.65424  1.0000
  N   N164      1.0  0.83021  0.34298  0.74157  1.0000
  C   C2979     1.0  0.82753  0.34086  0.72409  1.0000
  C   C2980     1.0  0.83770  0.35953  0.73842  1.0000
  C   C2981     1.0  0.84433  0.32719  0.74767  1.0000
  C   C2982     1.0  0.81330  0.34353  0.75587  1.0000
  C   C2983     1.0  0.79525  0.35225  0.74970  1.0000
  C   C2984     1.0  0.82209  0.32316  0.72466  1.0000
  C   C2985     1.0  0.82583  0.37764  0.73158  1.0000
  C   C2986     1.0  0.83556  0.39298  0.72797  1.0000
  H   H5271     1.0  0.56968  0.25839  0.59306  1.0000
  C   C2987     1.0  0.81412  0.32448  0.70861  1.0000
  H   H5272     1.0  0.84010  0.34154  0.71376  1.0000
  H   H5273     1.0  0.81744  0.35211  0.71866  1.0000
  H   H5274     1.0  0.84041  0.36104  0.75095  1.0000
  H   H5275     1.0  0.85085  0.35821  0.72887  1.0000
  C   C2988     1.0  0.52327  0.26184  0.57989  1.0000
  H   H5276     1.0  0.88327  0.46989  0.59923  1.0000
  H   H5277     1.0  0.97556  0.40500  0.76419  1.0000
  H   H5278     1.0  0.79157  0.34325  0.74323  1.0000
  H   H5279     1.0  0.79572  0.36496  0.73991  1.0000
  H   H5280     1.0  0.83400  0.31207  0.72448  1.0000
  H   H5281     1.0  0.81229  0.31926  0.73698  1.0000
  H   H5282     1.0  0.82209  0.37783  0.71897  1.0000
  H   H5283     1.0  0.81364  0.38059  0.74190  1.0000
  H   H5284     1.0  0.84781  0.39117  0.71744  1.0000
  H   H5285     1.0  0.82670  0.40583  0.72329  1.0000
  H   H5286     1.0  0.83930  0.39382  0.74027  1.0000
  H   H5287     1.0  0.56616  0.09016  0.64039  1.0000
  H   H5288     1.0  0.86037  0.44221  0.57701  1.0000
  H   H5289     1.0  0.54430  0.23836  0.58496  1.0000
  H   H5290     1.0  0.82362  0.32822  0.69595  1.0000
  H   H5291     1.0  0.81132  0.31136  0.70890  1.0000
  H   H5292     1.0  0.80140  0.33460  0.70884  1.0000
  C   C2989     1.0  0.57419  0.07819  0.60933  1.0000
  C   C2990     1.0  0.55367  0.05810  0.62594  1.0000
  C   C2991     1.0  0.53779  0.05466  0.64181  1.0000
  H   H5293     1.0  0.58413  0.11484  0.58423  1.0000
  S   S678      1.0  0.87767  0.25618  0.76812  1.0000
  H   H5294     1.0  0.56355  0.08704  0.60234  1.0000
  H   H5295     1.0  0.54754  0.06455  0.61406  1.0000
  H   H5296     1.0  0.56159  0.04488  0.62328  1.0000
  H   H5297     1.0  0.52786  0.06722  0.64333  1.0000
  H   H5298     1.0  0.54898  0.10741  0.61875  1.0000
  H   H5299     1.0  0.53368  0.09280  0.62414  1.0000
  H   H5300     1.0  0.91786  0.14425  0.77549  1.0000
  C   C2992     1.0  0.68445  0.99239  0.61622  1.0000
  H   H5301     1.0  0.51683  0.03931  0.65046  1.0000
  C   C2993     1.0  0.60645  0.99467  0.65154  1.0000
  H   H5302     1.0  0.52751  0.07082  0.58973  1.0000
  H   H5303     1.0  0.98735  0.25656  0.75736  1.0000
  C   C2994     1.0  0.90998  0.40635  0.60663  1.0000
  H   H5304     1.0  0.92485  0.38329  0.62238  1.0000
  H   H5305     1.0  0.96673  0.31969  0.75834  1.0000
  H   H5306     1.0  0.76721  0.36151  0.76085  1.0000
  C   C2995     1.0  0.69190  0.19761  0.59491  1.0000
  C   C2996     1.0  0.78851  0.09282  0.76972  1.0000
  H   H5307     1.0  0.76248  0.17399  0.61093  1.0000
  H   H5308     1.0  0.89975  0.47363  0.71226  1.0000
  C   C2997     1.0  0.62250  0.18833  0.60593  1.0000
  H   H5309     1.0  0.75824  0.10057  0.66824  1.0000
  H   H5310     1.0  0.75844  0.16353  0.59494  1.0000
  C   C2998     1.0  0.94645  0.45084  0.71190  1.0000
  C   C2999     1.0  0.93374  0.46533  0.75100  1.0000
  H   H5311     1.0  0.89567  0.41172  0.60616  1.0000
  C   C3000     1.0  0.67070  0.99397  0.73157  1.0000
  H   H5312     1.0  0.87563  0.35851  0.75131  1.0000
  H   H5313     1.0  0.65868  0.26259  0.61689  1.0000
  H   H5314     1.0  0.71925  0.03603  0.61222  1.0000
  H   H5315     1.0  0.77308  0.33934  0.58903  1.0000
  H   H5316     1.0  0.83684  0.36086  0.61477  1.0000
  H   H5317     1.0  0.59541  0.00653  0.76299  1.0000
  H   H5318     1.0  0.69821  0.13584  0.67198  1.0000
  H   H5319     1.0  0.86976  0.46906  0.65037  1.0000
  C   C3001     1.0  0.57592  0.04612  0.65526  1.0000
  H   H5320     1.0  0.81194  0.32978  0.76328  1.0000
  C   C3002     1.0  0.58063  0.25993  0.59858  1.0000
  C   C3003     1.0  0.71522  0.13935  0.62701  1.0000
  C   C3004     1.0  0.97572  0.20984  0.76863  1.0000
  C   C3005     1.0  0.89920  0.42893  0.74762  1.0000
  N   N165      1.0  0.72413  0.14258  0.64040  1.0000
  N   N166      1.0  0.84615  0.22981  0.72937  1.0000
  C   C3006     1.0  0.84134  0.21175  0.73709  1.0000
  C   C3007     1.0  0.86627  0.22789  0.72534  1.0000
  C   C3008     1.0  0.83828  0.24101  0.74346  1.0000
  C   C3009     1.0  0.83843  0.23944  0.71307  1.0000
  C   C3010     1.0  0.84307  0.22959  0.69744  1.0000
  C   C3011     1.0  0.82108  0.21156  0.74314  1.0000
  C   C3012     1.0  0.84394  0.25930  0.73932  1.0000
  C   C3013     1.0  0.87792  0.21121  0.71813  1.0000
  C   C3014     1.0  0.89740  0.21312  0.71105  1.0000
  C   C3015     1.0  0.83082  0.23867  0.68414  1.0000
  C   C3016     1.0  0.81793  0.19250  0.74770  1.0000
  C   C3017     1.0  0.62646  0.20577  0.59354  1.0000
  H   H5321     1.0  0.84747  0.20523  0.74892  1.0000
  H   H5322     1.0  0.84719  0.20254  0.72771  1.0000
  H   H5323     1.0  0.87010  0.23987  0.71581  1.0000
  H   H5324     1.0  0.87101  0.22730  0.73762  1.0000
  H   H5325     1.0  0.84193  0.23344  0.75642  1.0000
  H   H5326     1.0  0.82339  0.24392  0.74598  1.0000
  H   H5327     1.0  0.82361  0.24351  0.71685  1.0000
  H   H5328     1.0  0.84307  0.25221  0.70715  1.0000
  H   H5329     1.0  0.84158  0.21554  0.70188  1.0000
  H   H5330     1.0  0.85704  0.23008  0.69013  1.0000
  H   H5331     1.0  0.81534  0.21723  0.75534  1.0000
  H   H5332     1.0  0.81362  0.21928  0.73257  1.0000
  H   H5333     1.0  0.84040  0.26787  0.72676  1.0000
  H   H5334     1.0  0.85858  0.25747  0.73812  1.0000
  H   H5335     1.0  0.87775  0.19919  0.72909  1.0000
  H   H5336     1.0  0.87309  0.20875  0.70726  1.0000
  H   H5337     1.0  0.90298  0.21535  0.72163  1.0000
  H   H5338     1.0  0.90558  0.20072  0.70670  1.0000
  H   H5339     1.0  0.53776  0.15170  0.60466  1.0000
  H   H5340     1.0  0.83543  0.23245  0.67225  1.0000
  H   H5341     1.0  0.81683  0.23718  0.69030  1.0000
  H   H5342     1.0  0.83107  0.25310  0.67965  1.0000
  H   H5343     1.0  0.82211  0.18661  0.73560  1.0000
  H   H5344     1.0  0.82558  0.18394  0.75787  1.0000
  H   H5345     1.0  0.80350  0.19254  0.75321  1.0000
  C   C3018     1.0  0.88771  0.41535  0.75823  1.0000
  C   C3019     1.0  0.55995  0.13305  0.59298  1.0000
  H   H5346     1.0  0.72936  0.17978  0.62383  1.0000
  N   N167      1.0  0.56596  0.06904  0.62775  1.0000
  C   C3020     1.0  0.93884  0.37773  0.73243  1.0000
  H   H5347     1.0  0.61163  0.31898  0.60034  1.0000
  C   C3021     1.0  0.55634  0.08336  0.63831  1.0000
  H   H5348     1.0  0.54216  0.04896  0.65462  1.0000
  C   C3022     1.0  0.77905  0.11018  0.76446  1.0000
  H   H5349     1.0  0.83744  0.42801  0.62190  1.0000
  H   H5350     1.0  0.58266  0.08706  0.61030  1.0000
  H   H5351     1.0  0.89974  0.42979  0.73330  1.0000
  C   C3023     1.0  0.95018  0.44986  0.69223  1.0000
  S   S679      1.0  0.64082  0.99802  0.64942  1.0000
  H   H5352     1.0  0.85678  0.32638  0.73709  1.0000
  H   H5353     1.0  0.63231  0.06217  0.64247  1.0000
  H   H5354     1.0  0.89844  0.22448  0.69947  1.0000
  H   H5355     1.0  0.59677  0.04912  0.66700  1.0000
  C   C3024     1.0  0.88019  0.34943  0.61087  1.0000
  H   H5356     1.0  0.64121  0.31452  0.60768  1.0000
  H   H5357     1.0  0.57283  0.17862  0.58792  1.0000
  H   H5358     1.0  0.72948  0.13338  0.67709  1.0000
  C   C3025     1.0  0.86706  0.36479  0.61913  1.0000
  H   H5359     1.0  0.85550  0.16450  0.77462  1.0000
  H   H5360     1.0  0.92708  0.44215  0.59528  1.0000
  C   C3026     1.0  0.88923  0.33556  0.62497  1.0000
  Fe  Fe336     1.0  0.65387  0.13992  0.60203  1.0000
  H   H5361     1.0  0.87559  0.37114  0.62371  1.0000
  H   H5362     1.0  0.85829  0.35874  0.63139  1.0000
  H   H5363     1.0  0.60320  0.03099  0.65522  1.0000
  C   C3027     1.0  0.62316  0.31088  0.59333  1.0000
  H   H5364     1.0  0.85851  0.39178  0.63838  1.0000
  H   H5365     1.0  0.94016  0.45885  0.76266  1.0000
  H   H5366     1.0  0.91438  0.41564  0.61209  1.0000
  H   H5367     1.0  0.87911  0.32969  0.63592  1.0000
  H   H5368     1.0  0.89849  0.32461  0.61879  1.0000
  H   H5369     1.0  0.89704  0.34171  0.63065  1.0000
  H   H5370     1.0  0.89933  0.14520  0.75555  1.0000
  H   H5371     1.0  0.72511  0.13725  0.61447  1.0000
  C   C3028     1.0  0.61347  0.24892  0.59957  1.0000
  H   H5372     1.0  0.95733  0.43758  0.74445  1.0000
  S   S680      1.0  0.84644  0.45262  0.71312  1.0000
  C   C3029     1.0  0.75246  0.17350  0.60358  1.0000
  C   C3030     1.0  0.92092  0.47652  0.60779  1.0000
  C   C3031     1.0  0.64071  0.24460  0.62042  1.0000
  H   H5373     1.0  0.87422  0.41971  0.75486  1.0000
  C   C3032     1.0  0.83460  0.26962  0.75418  1.0000
  H   H5374     1.0  0.65834  0.23396  0.59832  1.0000
  H   H5375     1.0  0.90334  0.43879  0.58905  1.0000
  C   C3033     1.0  0.65612  0.24952  0.62519  1.0000
  N   N168      1.0  0.85561  0.37846  0.60728  1.0000
  S   S681      1.0  0.66699  0.11209  0.59816  1.0000
  H   H5376     1.0  0.60902  0.24678  0.61431  1.0000
  C   C3034     1.0  0.70608  0.12306  0.63264  1.0000
  Fe  Fe337     1.0  0.69681  0.27103  0.58999  1.0000
  C   C3035     1.0  0.94787  0.42841  0.74968  1.0000
  H   H5377     1.0  0.89740  0.35070  0.75704  1.0000
  H   H5378     1.0  0.62210  0.21706  0.61701  1.0000
  H   H5379     1.0  0.65268  0.25054  0.63943  1.0000
  C   C3036     1.0  0.82821  0.38186  0.59359  1.0000
  H   H5380     1.0  0.82926  0.41375  0.64273  1.0000
  H   H5381     1.0  0.84850  0.42299  0.64035  1.0000
  H   H5382     1.0  0.63820  0.23175  0.62927  1.0000
  H   H5383     1.0  0.62882  0.25533  0.62321  1.0000
  H   H5384     1.0  0.79205  0.25292  0.61001  1.0000
  H   H5385     1.0  0.93742  0.42577  0.71911  1.0000
  C   C3037     1.0  0.57756  0.12387  0.59321  1.0000
  S   S682      1.0  0.66742  0.16261  0.58642  1.0000
  H   H5386     1.0  0.61658  0.01803  0.76822  1.0000
  C   C3038     1.0  0.69584  0.12287  0.61883  1.0000
  H   H5387     1.0  0.68546  0.14858  0.65527  1.0000
  H   H5388     1.0  0.89388  0.40203  0.75486  1.0000
  C   C3039     1.0  0.68449  0.16195  0.67590  1.0000
  H   H5389     1.0  0.63511  0.07111  0.59442  1.0000
  C   C3040     1.0  0.60545  0.01434  0.61687  1.0000
  H   H5390     1.0  0.88734  0.41790  0.57967  1.0000
  S   S683      1.0  0.62341  0.98804  0.70066  1.0000
  H   H5391     1.0  0.75216  0.21986  0.61771  1.0000
  C   C3041     1.0  0.84501  0.07500  0.76437  1.0000
  H   H5392     1.0  0.82297  0.26147  0.60400  1.0000
  H   H5393     1.0  0.86552  0.40561  0.61698  1.0000
  S   S684      1.0  0.76282  0.25323  0.59515  1.0000
  C   C3042     1.0  0.92144  0.45361  0.74935  1.0000
  C   C3043     1.0  0.73993  0.15088  0.62998  1.0000
  H   H5394     1.0  0.97281  0.19669  0.77126  1.0000
  C   C3044     1.0  0.78924  0.31314  0.58911  1.0000
  H   H5395     1.0  0.86800  0.31992  0.58950  1.0000
  H   H5396     1.0  0.68452  0.13455  0.61803  1.0000
  H   H5397     1.0  0.92418  0.41023  0.74718  1.0000
  S   S685      1.0  0.72427  0.04255  0.76034  1.0000
  C   C3045     1.0  0.55108  0.32243  0.59260  1.0000
  C   C3046     1.0  0.72110  0.06151  0.61545  1.0000
  C   C3047     1.0  0.96992  0.30544  0.75750  1.0000
  C   C3048     1.0  0.65657  0.04190  0.63780  1.0000
  N   N169      1.0  0.93051  0.43622  0.74323  1.0000
  H   H5398     1.0  0.98218  0.37373  0.70996  1.0000
  C   C3049     1.0  0.87637  0.46394  0.71330  1.0000
  H   H5399     1.0  0.65370  0.04494  0.61063  1.0000
  H   H5400     1.0  0.92039  0.44502  0.71882  1.0000
  C   C3050     1.0  0.71255  0.05019  0.60839  1.0000
  C   C3051     1.0  0.86248  0.30915  0.77094  1.0000
  C   C3052     1.0  0.59584  0.99199  0.76748  1.0000
  H   H5401     1.0  0.96791  0.43419  0.58239  1.0000
  H   H5402     1.0  0.94524  0.42684  0.76443  1.0000
  H   H5403     1.0  0.62078  0.17942  0.59802  1.0000
  H   H5404     1.0  0.81729  0.38752  0.60389  1.0000
  H   H5405     1.0  0.74902  0.18681  0.59489  1.0000
  H   H5406     1.0  0.91279  0.45100  0.76291  1.0000
  C   C3053     1.0  0.95825  0.41005  0.74524  1.0000
  H   H5407     1.0  0.87991  0.13529  0.76367  1.0000
  Fe  Fe338     1.0  0.70634  0.23106  0.60348  1.0000
  H   H5408     1.0  0.64705  0.25651  0.59241  1.0000
  H   H5409     1.0  0.83960  0.28215  0.75130  1.0000
  Fe  Fe339     1.0  0.70011  0.06471  0.76186  1.0000
  C   C3054     1.0  0.95249  0.29871  0.76482  1.0000
  H   H5410     1.0  0.55134  0.02432  0.58648  1.0000
  Fe  Fe340     1.0  0.89118  0.27226  0.74289  1.0000
  C   C3055     1.0  0.84345  0.36928  0.60254  1.0000
  C   C3056     1.0  0.73972  0.12643  0.66723  1.0000
  H   H5411     1.0  0.91217  0.46203  0.74051  1.0000
  H   H5412     1.0  0.89232  0.47882  0.65195  1.0000
  N   N170      1.0  0.63145  0.23697  0.59446  1.0000
  C   C3057     1.0  0.53007  0.10943  0.64305  1.0000
  C   C3058     1.0  0.74721  0.10784  0.67726  1.0000
  C   C3059     1.0  0.96979  0.24116  0.75467  1.0000
  H   H5413     1.0  0.51356  0.27110  0.58795  1.0000
  C   C3060     1.0  0.59082  0.00690  0.62697  1.0000
  H   H5414     1.0  0.61002  0.19096  0.61607  1.0000
  H   H5415     1.0  0.52060  0.12033  0.63620  1.0000
  H   H5416     1.0  0.59046  0.06567  0.63675  1.0000
  H   H5417     1.0  0.81537  0.25219  0.57997  1.0000
  H   H5418     1.0  0.54715  0.04080  0.59960  1.0000
  C   C3061     1.0  0.59116  0.99739  0.64445  1.0000
  H   H5419     1.0  0.64468  0.21060  0.60667  1.0000
  H   H5420     1.0  0.73657  0.09992  0.68290  1.0000
  C   C3062     1.0  0.59211  0.03834  0.66403  1.0000
  H   H5421     1.0  0.70015  0.20690  0.58672  1.0000
  C   C3063     1.0  0.69469  0.14913  0.66348  1.0000
  C   C3064     1.0  0.50200  0.09931  0.59186  1.0000
  H   H5422     1.0  0.91537  0.35314  0.64697  1.0000
  C   C3065     1.0  0.95747  0.37173  0.72899  1.0000
  S   S686      1.0  0.89601  0.20571  0.76165  1.0000
  Fe  Fe341     1.0  0.92831  0.25583  0.75053  1.0000
  S   S687      1.0  0.95683  0.25930  0.74264  1.0000
  C   C3066     1.0  0.78411  0.07828  0.76587  1.0000
  H   H5423     1.0  0.79162  0.06492  0.76973  1.0000
  H   H5424     1.0  0.61471  0.21237  0.58743  1.0000
  C   C3067     1.0  0.71150  0.15552  0.65127  1.0000
  C   C3068     1.0  0.63639  0.04745  0.64423  1.0000
  H   H5425     1.0  0.89296  0.37082  0.74031  1.0000
  H   H5426     1.0  0.67213  0.15740  0.68397  1.0000
  H   H5427     1.0  0.58930  0.04741  0.62825  1.0000
  H   H5428     1.0  0.75005  0.14120  0.62257  1.0000
  C   C3069     1.0  0.56060  0.14678  0.61686  1.0000
  H   H5429     1.0  0.71631  0.11043  0.63384  1.0000
  S   S688      1.0  0.57264  0.00867  0.61732  1.0000
  H   H5430     1.0  0.60527  0.02178  0.60337  1.0000
  C   C3070     1.0  0.67511  0.17504  0.59725  1.0000
  H   H5431     1.0  0.98514  0.41468  0.74151  1.0000
  C   C3071     1.0  0.58115  0.05738  0.63634  1.0000
  H   H5432     1.0  0.54966  0.07759  0.65191  1.0000
  C   C3072     1.0  0.96557  0.22432  0.75876  1.0000
  H   H5433     1.0  0.52221  0.04740  0.62670  1.0000
  H   H5434     1.0  0.60633  0.04866  0.77427  1.0000
  H   H5435     1.0  0.97420  0.30469  0.74327  1.0000
  H   H5436     1.0  0.65799  0.06388  0.61531  1.0000
  H   H5437     1.0  0.59481  0.23314  0.59846  1.0000
  H   H5438     1.0  0.89225  0.44209  0.75099  1.0000
  C   C3073     1.0  0.58696  0.17925  0.58690  1.0000
  H   H5439     1.0  0.89095  0.35469  0.60035  1.0000
  H   H5440     1.0  0.98459  0.28053  0.77079  1.0000
  H   H5441     1.0  0.58269  0.27385  0.59350  1.0000
  H   H5442     1.0  0.63788  0.20220  0.58264  1.0000
  Fe  Fe342     1.0  0.89973  0.23331  0.76096  1.0000
  H   H5443     1.0  0.52939  0.03014  0.59958  1.0000
  H   H5444     1.0  0.84225  0.25876  0.58617  1.0000
  H   H5445     1.0  0.82881  0.48064  0.65654  1.0000
  H   H5446     1.0  0.62424  0.98666  0.76384  1.0000
  C   C3074     1.0  0.68556  0.18734  0.58685  1.0000
  H   H5447     1.0  0.95546  0.44564  0.60014  1.0000
  C   C3075     1.0  0.78001  0.35588  0.76554  1.0000
  H   H5448     1.0  0.84889  0.08626  0.76735  1.0000
  H   H5449     1.0  0.85110  0.35974  0.59384  1.0000
  H   H5450     1.0  0.52394  0.23853  0.60185  1.0000
  H   H5451     1.0  0.57653  0.25747  0.61335  1.0000
  H   H5452     1.0  0.71535  0.05416  0.59364  1.0000
  C   C3076     1.0  0.87314  0.18299  0.76885  1.0000
  H   H5453     1.0  0.69770  0.04304  0.58257  1.0000
  S   S689      1.0  0.78429  0.12898  0.76853  1.0000
  C   C3077     1.0  0.84796  0.48219  0.72430  1.0000
  C   C3078     1.0  0.68412  0.04925  0.58922  1.0000
  C   C3079     1.0  0.63635  0.05125  0.57953  1.0000
  H   H5454     1.0  0.87036  0.44290  0.59478  1.0000
  H   H5455     1.0  0.94445  0.46728  0.73899  1.0000
  H   H5456     1.0  0.98366  0.32656  0.71382  1.0000
  H   H5457     1.0  0.94221  0.30689  0.75711  1.0000
  H   H5458     1.0  0.51341  0.10622  0.58631  1.0000
  H   H5459     1.0  0.67893  0.01449  0.59478  1.0000
  C   C3080     1.0  0.95488  0.44261  0.58740  1.0000
  C   C3081     1.0  0.92127  0.40397  0.58786  1.0000
  H   H5460     1.0  0.91524  0.39489  0.58363  1.0000
  C   C3082     1.0  0.53314  0.24693  0.59260  1.0000
  H   H5461     1.0  0.58711  0.19198  0.59024  1.0000
  H   H5462     1.0  0.93487  0.39623  0.58960  1.0000
  H   H5463     1.0  0.50312  0.35354  0.71366  1.0000
  C   C3083     1.0  0.89361  0.13437  0.76552  1.0000
  H   H5464     1.0  0.95461  0.28465  0.76364  1.0000
  H   H5465     1.0  0.98351  0.39153  0.74739  1.0000
  H   H5466     1.0  0.82971  0.28088  0.58877  1.0000
  S   S690      1.0  0.67564  0.29533  0.59463  1.0000
  H   H5467     1.0  0.87473  0.30748  0.76034  1.0000
  H   H5468     1.0  0.60752  0.98629  0.74088  1.0000
  C   C3084     1.0  0.63992  0.30835  0.59751  1.0000
  H   H5469     1.0  0.98001  0.32426  0.69307  1.0000
  H   H5470     1.0  0.49213  0.25068  0.61356  1.0000
  H   H5471     1.0  0.69064  0.07585  0.58461  1.0000
  H   H5472     1.0  0.80837  0.38082  0.57963  1.0000
  H   H5473     1.0  0.78249  0.36568  0.77197  1.0000
  S   S691      1.0  0.83372  0.32253  0.58079  1.0000
  Fe  Fe343     1.0  0.95770  0.35727  0.77320  1.0000
  C   C3085     1.0  0.78555  0.33305  0.58073  1.0000
  H   H5474     1.0  0.50973  0.37428  0.57974  1.0000
  H   H5475     1.0  0.83300  0.39311  0.58347  1.0000
  H   H5476     1.0  0.79680  0.33853  0.58147  1.0000
  H   H5477     1.0  0.77850  0.36704  0.58246  1.0000
  C   C3086     1.0  0.49040  0.35761  0.70877  1.0000
  H   H5478     1.0  0.60051  0.24911  0.57802  1.0000
  C   C3087     1.0  0.62125  0.30321  0.58008  1.0000
  H   H5479     1.0  0.79935  0.09066  0.77653  1.0000
  C   C3088     1.0  0.49801  0.09176  0.57734  1.0000
  C   C3089     1.0  0.61316  0.98241  0.77467  1.0000
  C   C3090     1.0  0.58990  0.07631  0.57735  1.0000
  H   H5480     1.0  0.95266  0.45544  0.57767  1.0000
  H   H5481     1.0  0.96855  0.12986  0.79685  1.0000
  H   H5482     1.0  0.97160  0.43089  0.88406  1.0000
  Fe  Fe344     1.0  0.63055  0.00538  0.85263  1.0000
  S   S692      1.0  0.63031  0.01506  0.82335  1.0000
  Fe  Fe345     1.0  0.61708  0.00985  0.89135  1.0000
  S   S693      1.0  0.59833  0.02807  0.90930  1.0000
  S   S694      1.0  0.63966  0.01854  0.86963  1.0000
  N   N171      1.0  0.49101  0.41400  0.86855  1.0000
  H   H5483     1.0  0.92809  0.24067  0.81057  1.0000
  H   H5484     1.0  0.94206  0.32448  0.85203  1.0000
  H   H5485     1.0  0.95515  0.35001  0.86532  1.0000
  S   S695      1.0  0.93886  0.43097  0.87382  1.0000
  H   H5486     1.0  0.51844  0.36745  0.89746  1.0000
  Fe  Fe346     1.0  0.93220  0.07184  0.85235  1.0000
  S   S696      1.0  0.93431  0.08715  0.87163  1.0000
  S   S697      1.0  0.90442  0.06922  0.85256  1.0000
  Fe  Fe347     1.0  0.95622  0.06397  0.87877  1.0000
  S   S698      1.0  0.95686  0.05399  0.90801  1.0000
  Fe  Fe348     1.0  0.95568  0.09783  0.85003  1.0000
  S   S699      1.0  0.95276  0.04777  0.86091  1.0000
  H   H5487     1.0  0.92695  0.32693  0.88372  1.0000
  S   S700      1.0  0.83728  0.12841  0.81361  1.0000
  H   H5488     1.0  0.83338  0.98930  0.83628  1.0000
  H   H5489     1.0  0.74388  0.98833  0.93269  1.0000
  S   S701      1.0  0.79611  0.14101  0.80736  1.0000
  Fe  Fe349     1.0  0.82170  0.15143  0.79699  1.0000
  Fe  Fe350     1.0  0.81270  0.11670  0.82153  1.0000
  S   S702      1.0  0.80689  0.09848  0.84829  1.0000
  S   S703      1.0  0.82011  0.10226  0.79902  1.0000
  Fe  Fe351     1.0  0.94695  0.38090  0.80007  1.0000
  C   C3091     1.0  0.59873  0.04050  0.95585  1.0000
  S   S704      1.0  0.94195  0.41009  0.80092  1.0000
  Fe  Fe352     1.0  0.93099  0.34799  0.80733  1.0000
  S   S705      1.0  0.95624  0.33219  0.79394  1.0000
  S   S706      1.0  0.90784  0.33552  0.82366  1.0000
  Fe  Fe353     1.0  0.96994  0.34371  0.80841  1.0000
  C   C3092     1.0  0.86006  0.05193  0.78792  1.0000
  H   H5490     1.0  0.95079  0.22202  0.88316  1.0000
  C   C3093     1.0  0.77935  0.03676  0.95787  1.0000
  S   S707      1.0  0.94452  0.35796  0.82331  1.0000
  H   H5491     1.0  0.58752  0.03803  0.77891  1.0000
  H   H5492     1.0  0.82556  0.05610  0.85273  1.0000
  H   H5493     1.0  0.94848  0.32295  0.88933  1.0000
  Fe  Fe354     1.0  0.97256  0.06195  0.84005  1.0000
  C   C3094     1.0  0.72493  0.00025  0.83973  1.0000
  C   C3095     1.0  0.88007  0.23528  0.85232  1.0000
  H   H5494     1.0  0.70538  0.00446  0.94230  1.0000
  H   H5495     1.0  0.86629  0.04810  0.83842  1.0000
  H   H5496     1.0  0.97419  0.40690  0.86613  1.0000
  S   S708      1.0  0.88966  0.26820  0.80843  1.0000
  C   C3096     1.0  0.61504  0.03020  0.95977  1.0000
  H   H5497     1.0  0.75722  0.98433  0.86630  1.0000
  Fe  Fe355     1.0  0.70620  0.05115  0.93207  1.0000
  S   S709      1.0  0.69700  0.08045  0.93129  1.0000
  S   S710      1.0  0.68458  0.03787  0.93138  1.0000
  Fe  Fe356     1.0  0.74214  0.05038  0.93974  1.0000
  S   S711      1.0  0.73583  0.07980  0.93967  1.0000
  S   S712      1.0  0.76754  0.03070  0.94504  1.0000
  Fe  Fe357     1.0  0.70879  0.07517  0.95539  1.0000
  Fe  Fe358     1.0  0.72459  0.08246  0.91564  1.0000
  S   S713      1.0  0.72715  0.10501  0.89187  1.0000
  S   S714      1.0  0.73293  0.05342  0.91422  1.0000
  C   C3097     1.0  0.94111  0.32809  0.87828  1.0000
  C   C3098     1.0  0.93106  0.29536  0.87144  1.0000
  H   H5498     1.0  0.95843  0.24123  0.86783  1.0000
  S   S715      1.0  0.82264  0.17994  0.79666  1.0000
  H   H5499     1.0  0.97403  0.22053  0.87230  1.0000
  H   H5500     1.0  0.69237  0.01710  0.96792  1.0000
  S   S716      1.0  0.91504  0.46901  0.89975  1.0000
  C   C3099     1.0  0.94137  0.34797  0.87188  1.0000
  H   H5501     1.0  0.69499  0.08320  0.86942  1.0000
  H   H5502     1.0  0.62525  0.02066  0.78592  1.0000
  H   H5503     1.0  0.65616  0.00948  0.90212  1.0000
  S   S717      1.0  0.88991  0.01995  0.94998  1.0000
  H   H5504     1.0  0.88289  0.02130  0.80044  1.0000
  C   C3100     1.0  0.90399  0.31653  0.81881  1.0000
  C   C3101     1.0  0.91184  0.31114  0.80254  1.0000
  C   C3102     1.0  0.90766  0.29623  0.79906  1.0000
  C   C3103     1.0  0.89574  0.28673  0.81194  1.0000
  C   C3104     1.0  0.88829  0.29198  0.82827  1.0000
  C   C3105     1.0  0.89227  0.30687  0.83162  1.0000
  H   H5505     1.0  0.92074  0.31870  0.79254  1.0000
  C   C3106     1.0  0.52994  0.32460  0.92985  1.0000
  H   H5506     1.0  0.87907  0.28474  0.83825  1.0000
  H   H5507     1.0  0.88609  0.31104  0.84416  1.0000
  C   C3107     1.0  0.70110  0.00635  0.89463  1.0000
  C   C3108     1.0  0.68473  0.00333  0.89342  1.0000
  H   H5508     1.0  0.51029  0.25517  0.92145  1.0000
  S   S718      1.0  0.51228  0.34712  0.97532  1.0000
  H   H5509     1.0  0.96609  0.22578  0.84287  1.0000
  N   N172      1.0  0.56850  0.99117  0.96485  1.0000
  H   H5510     1.0  0.87698  0.23744  0.83891  1.0000
  H   H5511     1.0  0.98552  0.26805  0.90148  1.0000
  H   H5512     1.0  0.50325  0.36822  0.91866  1.0000
  H   H5513     1.0  0.91249  0.46932  0.79753  1.0000
  S   S719      1.0  0.71594  0.04556  0.95747  1.0000
  Fe  Fe359     1.0  0.87479  0.02601  0.97677  1.0000
  H   H5514     1.0  0.94937  0.25485  0.78644  1.0000
  C   C3109     1.0  0.78462  0.10057  0.86006  1.0000
  C   C3110     1.0  0.77129  0.11498  0.85470  1.0000
  C   C3111     1.0  0.75365  0.11644  0.86466  1.0000
  C   C3112     1.0  0.74931  0.10335  0.87980  1.0000
  C   C3113     1.0  0.76263  0.08886  0.88503  1.0000
  C   C3114     1.0  0.78027  0.08752  0.87521  1.0000
  H   H5515     1.0  0.77465  0.12517  0.84313  1.0000
  H   H5516     1.0  0.74340  0.12774  0.86067  1.0000
  H   H5517     1.0  0.75941  0.07879  0.89679  1.0000
  H   H5518     1.0  0.79058  0.07639  0.87945  1.0000
  C   C3115     1.0  0.89596  0.07829  0.83301  1.0000
  C   C3116     1.0  0.87740  0.08256  0.83450  1.0000
  C   C3117     1.0  0.86999  0.08946  0.81928  1.0000
  C   C3118     1.0  0.88111  0.09160  0.80236  1.0000
  C   C3119     1.0  0.89976  0.08716  0.80077  1.0000
  C   C3120     1.0  0.90720  0.08073  0.81613  1.0000
  H   H5519     1.0  0.86871  0.08046  0.84748  1.0000
  H   H5520     1.0  0.85563  0.09256  0.82066  1.0000
  H   H5521     1.0  0.59649  0.04003  0.79704  1.0000
  H   H5522     1.0  0.92158  0.07724  0.81489  1.0000
  H   H5523     1.0  0.53400  0.43517  0.83305  1.0000
  H   H5524     1.0  0.50096  0.44886  0.86021  1.0000
  C   C3121     1.0  0.93862  0.04407  0.92000  1.0000
  C   C3122     1.0  0.93111  0.04569  0.93774  1.0000
  C   C3123     1.0  0.91595  0.03855  0.94707  1.0000
  C   C3124     1.0  0.90877  0.02915  0.93890  1.0000
  C   C3125     1.0  0.91667  0.02701  0.92141  1.0000
  C   C3126     1.0  0.93137  0.03468  0.91189  1.0000
  H   H5525     1.0  0.93666  0.05301  0.94404  1.0000
  H   H5526     1.0  0.90973  0.04045  0.96048  1.0000
  H   H5527     1.0  0.91128  0.01959  0.91508  1.0000
  H   H5528     1.0  0.93719  0.03319  0.89830  1.0000
  C   C3127     1.0  0.89030  0.04351  0.80568  1.0000
  N   N173      1.0  0.61464  0.98572  0.79216  1.0000
  C   C3128     1.0  0.61994  0.47868  0.96006  1.0000
  H   H5529     1.0  0.83367  0.05399  0.82131  1.0000
  H   H5530     1.0  0.96038  0.20581  0.85761  1.0000
  C   C3129     1.0  0.94002  0.42527  0.85346  1.0000
  C   C3130     1.0  0.93998  0.40763  0.85325  1.0000
  C   C3131     1.0  0.94062  0.40279  0.83721  1.0000
  C   C3132     1.0  0.94146  0.41554  0.82126  1.0000
  C   C3133     1.0  0.94191  0.43306  0.82143  1.0000
  C   C3134     1.0  0.94114  0.43796  0.83749  1.0000
  H   H5531     1.0  0.93916  0.39777  0.86557  1.0000
  H   H5532     1.0  0.94026  0.38927  0.83725  1.0000
  H   H5533     1.0  0.94295  0.44285  0.80907  1.0000
  H   H5534     1.0  0.94154  0.45150  0.83750  1.0000
  H   H5535     1.0  0.63496  0.13406  0.96866  1.0000
  C   C3135     1.0  0.58890  0.09674  0.96480  1.0000
  H   H5536     1.0  0.94763  0.17577  0.82032  1.0000
  S   S720      1.0  0.95152  0.08471  0.82993  1.0000
  H   H5537     1.0  0.97131  0.15005  0.78042  1.0000
  C   C3136     1.0  0.60470  0.02860  0.92886  1.0000
  C   C3137     1.0  0.59366  0.03983  0.94028  1.0000
  H   H5538     1.0  0.90830  0.26069  0.87908  1.0000
  C   C3138     1.0  0.98210  0.14703  0.83543  1.0000
  C   C3139     1.0  0.62067  0.01796  0.93318  1.0000
  H   H5539     1.0  0.58123  0.04806  0.93702  1.0000
  H   H5540     1.0  0.62917  0.00922  0.92456  1.0000
  C   C3140     1.0  0.64398  0.03063  0.81306  1.0000
  C   C3141     1.0  0.65494  0.02973  0.79617  1.0000
  H   H5541     1.0  0.52827  0.32559  0.94394  1.0000
  C   C3142     1.0  0.66720  0.05442  0.79725  1.0000
  C   C3143     1.0  0.65557  0.05588  0.81369  1.0000
  C   C3144     1.0  0.64426  0.04377  0.82177  1.0000
  C   C3145     1.0  0.96240  0.14415  0.79261  1.0000
  H   H5542     1.0  0.98665  0.28715  0.87137  1.0000
  H   H5543     1.0  0.65565  0.06614  0.82040  1.0000
  H   H5544     1.0  0.63559  0.04473  0.83465  1.0000
  C   C3146     1.0  0.70139  0.01774  0.90554  1.0000
  C   C3147     1.0  0.68532  0.02558  0.91560  1.0000
  C   C3148     1.0  0.66912  0.02247  0.91431  1.0000
  C   C3149     1.0  0.66879  0.01175  0.90296  1.0000
  H   H5545     1.0  0.71399  0.01988  0.90671  1.0000
  H   H5546     1.0  0.65672  0.02817  0.92236  1.0000
  H   H5547     1.0  0.73319  0.01007  0.85954  1.0000
  C   C3150     1.0  0.96006  0.22651  0.87058  1.0000
  C   C3151     1.0  0.75786  0.07642  0.83387  1.0000
  H   H5548     1.0  0.94371  0.27160  0.79984  1.0000
  C   C3152     1.0  0.72401  0.08093  0.86157  1.0000
  C   C3153     1.0  0.77537  0.08078  0.82120  1.0000
  C   C3154     1.0  0.79169  0.06773  0.82726  1.0000
  H   H5549     1.0  0.54067  0.02661  0.92683  1.0000
  H   H5550     1.0  0.90133  0.23567  0.86426  1.0000
  H   H5551     1.0  0.75841  0.07912  0.84681  1.0000
  H   H5552     1.0  0.75870  0.06178  0.83610  1.0000
  C   C3155     1.0  0.62587  0.01889  0.94848  1.0000
  C   C3156     1.0  0.95678  0.22064  0.85498  1.0000
  H   H5553     1.0  0.72305  0.09502  0.86196  1.0000
  H   H5554     1.0  0.73567  0.07250  0.86716  1.0000
  H   H5555     1.0  0.77602  0.07990  0.80734  1.0000
  H   H5556     1.0  0.77664  0.09434  0.82148  1.0000
  H   H5557     1.0  0.79148  0.05386  0.82695  1.0000
  H   H5558     1.0  0.80404  0.07131  0.81817  1.0000
  H   H5559     1.0  0.79208  0.06846  0.84098  1.0000
  C   C3157     1.0  0.88024  0.46465  0.83499  1.0000
  C   C3158     1.0  0.50918  0.30273  0.93877  1.0000
  C   C3159     1.0  0.72553  0.07920  0.84217  1.0000
  N   N174      1.0  0.91175  0.14142  0.80418  1.0000
  C   C3160     1.0  0.93109  0.13804  0.80564  1.0000
  C   C3161     1.0  0.90206  0.12970  0.81993  1.0000
  H   H5560     1.0  0.49772  0.29613  0.91372  1.0000
  H   H5561     1.0  0.67387  0.00420  0.95060  1.0000
  C   C3162     1.0  0.90811  0.17201  0.81304  1.0000
  H   H5562     1.0  0.89455  0.19821  0.80074  1.0000
  H   H5563     1.0  0.93283  0.26811  0.88765  1.0000
  C   C3163     1.0  0.90079  0.13314  0.83862  1.0000
  C   C3164     1.0  0.89301  0.11881  0.85332  1.0000
  H   H5564     1.0  0.49564  0.25724  0.89696  1.0000
  H   H5565     1.0  0.65722  0.12901  0.97172  1.0000
  H   H5566     1.0  0.54345  0.32689  0.92261  1.0000
  H   H5567     1.0  0.93663  0.12340  0.80882  1.0000
  H   H5568     1.0  0.93238  0.14305  0.81697  1.0000
  H   H5569     1.0  0.88794  0.13121  0.81893  1.0000
  H   H5570     1.0  0.90843  0.11539  0.81995  1.0000
  C   C3165     1.0  0.94972  0.98767  0.94712  1.0000
  H   H5571     1.0  0.63562  0.98776  0.80415  1.0000
  H   H5572     1.0  0.53459  0.99012  0.95844  1.0000
  H   H5573     1.0  0.90270  0.03087  0.82867  1.0000
  C   C3166     1.0  0.84516  0.20336  0.78928  1.0000
  H   H5574     1.0  0.90940  0.16494  0.82675  1.0000
  C   C3167     1.0  0.64942  0.15557  0.95738  1.0000
  H   H5575     1.0  0.87979  0.44129  0.82514  1.0000
  H   H5576     1.0  0.95162  0.99945  0.97536  1.0000
  S   S721      1.0  0.68399  0.98871  0.88047  1.0000
  H   H5577     1.0  0.91407  0.13306  0.84094  1.0000
  H   H5578     1.0  0.89162  0.14611  0.84019  1.0000
  H   H5579     1.0  0.87978  0.11795  0.85157  1.0000
  H   H5580     1.0  0.90226  0.10567  0.85308  1.0000
  H   H5581     1.0  0.89135  0.12204  0.86656  1.0000
  C   C3168     1.0  0.56419  0.00443  0.94829  1.0000
  H   H5582     1.0  0.83526  0.01992  0.83550  1.0000
  H   H5583     1.0  0.57927  0.98527  0.81420  1.0000
  C   C3169     1.0  0.52809  0.30614  0.92890  1.0000
  C   C3170     1.0  0.54651  0.03365  0.93366  1.0000
  S   S722      1.0  0.97386  0.36743  0.78642  1.0000
  H   H5584     1.0  0.97691  0.30666  0.88062  1.0000
  C   C3171     1.0  0.70893  0.99218  0.95232  1.0000
  C   C3172     1.0  0.94963  0.31785  0.86284  1.0000
  H   H5585     1.0  0.50111  0.37910  0.85943  1.0000
  C   C3173     1.0  0.83592  0.99866  0.82324  1.0000
  H   H5586     1.0  0.58907  0.46756  0.96207  1.0000
  S   S723      1.0  0.95702  0.12692  0.84121  1.0000
  C   C3174     1.0  0.86131  0.20932  0.78158  1.0000
  H   H5587     1.0  0.60477  0.00521  0.80899  1.0000
  H   H5588     1.0  0.51452  0.39326  0.87214  1.0000
  H   H5589     1.0  0.94971  0.30948  0.83044  1.0000
  C   C3175     1.0  0.50603  0.28382  0.92034  1.0000
  H   H5590     1.0  0.49958  0.31366  0.93216  1.0000
  C   C3176     1.0  0.90243  0.16084  0.80277  1.0000
  H   H5591     1.0  0.85091  0.06602  0.81469  1.0000
  N   N175      1.0  0.74049  0.08647  0.82827  1.0000
  C   C3177     1.0  0.57814  0.99925  0.97391  1.0000
  H   H5592     1.0  0.84277  0.05283  0.86506  1.0000
  H   H5593     1.0  0.65564  0.05979  0.91225  1.0000
  H   H5594     1.0  0.73013  0.10221  0.77775  1.0000
  H   H5595     1.0  0.97681  0.41099  0.83240  1.0000
  H   H5596     1.0  0.97487  0.11349  0.87136  1.0000
  H   H5597     1.0  0.98841  0.40006  0.89246  1.0000
  H   H5598     1.0  0.86654  0.06315  0.78704  1.0000
  N   N176      1.0  0.87873  0.48038  0.81945  1.0000
  C   C3178     1.0  0.68406  0.99520  0.81620  1.0000
  H   H5599     1.0  0.83431  0.21129  0.79720  1.0000
  H   H5600     1.0  0.88096  0.18726  0.82051  1.0000
  H   H5601     1.0  0.51269  0.27041  0.88956  1.0000
  H   H5602     1.0  0.50574  0.25435  0.97034  1.0000
  H   H5603     1.0  0.73179  0.99134  0.83012  1.0000
  C   C3179     1.0  0.72161  0.08916  0.80519  1.0000
  C   C3180     1.0  0.87521  0.47487  0.80399  1.0000
  H   H5604     1.0  0.51980  0.28360  0.91215  1.0000
  H   H5605     1.0  0.76132  0.06192  0.95994  1.0000
  C   C3181     1.0  0.74539  0.13649  0.81160  1.0000
  H   H5606     1.0  0.96336  0.32047  0.85718  1.0000
  H   H5607     1.0  0.92130  0.17521  0.80595  1.0000
  H   H5608     1.0  0.98932  0.10802  0.82026  1.0000
  H   H5609     1.0  0.65931  0.16153  0.96034  1.0000
  N   N177      1.0  0.86844  0.06927  0.90821  1.0000
  C   C3182     1.0  0.85280  0.06259  0.92130  1.0000
  C   C3183     1.0  0.88005  0.05418  0.89951  1.0000
  C   C3184     1.0  0.87943  0.07390  0.91878  1.0000
  C   C3185     1.0  0.86286  0.08562  0.89439  1.0000
  C   C3186     1.0  0.84493  0.08755  0.88866  1.0000
  C   C3187     1.0  0.84129  0.07518  0.93399  1.0000
  C   C3188     1.0  0.89728  0.07944  0.90808  1.0000
  C   C3189     1.0  0.87170  0.04731  0.88761  1.0000
  C   C3190     1.0  0.88392  0.03053  0.88176  1.0000
  C   C3191     1.0  0.84155  0.10430  0.87420  1.0000
  C   C3192     1.0  0.82333  0.06987  0.94294  1.0000
  C   C3193     1.0  0.90492  0.08795  0.91894  1.0000
  H   H5610     1.0  0.85761  0.04959  0.93000  1.0000
  H   H5611     1.0  0.84378  0.05953  0.91435  1.0000
  H   H5612     1.0  0.89244  0.05808  0.89071  1.0000
  H   H5613     1.0  0.88453  0.04264  0.90995  1.0000
  H   H5614     1.0  0.88272  0.06245  0.92985  1.0000
  H   H5615     1.0  0.87157  0.08520  0.92527  1.0000
  H   H5616     1.0  0.86153  0.09803  0.89920  1.0000
  H   H5617     1.0  0.87358  0.08637  0.88206  1.0000
  H   H5618     1.0  0.83340  0.08888  0.90002  1.0000
  H   H5619     1.0  0.84471  0.07594  0.88347  1.0000
  H   H5620     1.0  0.84835  0.07423  0.94475  1.0000
  H   H5621     1.0  0.83878  0.08931  0.92685  1.0000
  H   H5622     1.0  0.89548  0.08912  0.89547  1.0000
  H   H5623     1.0  0.90746  0.06756  0.90476  1.0000
  H   H5624     1.0  0.85858  0.04389  0.89457  1.0000
  H   H5625     1.0  0.87009  0.05756  0.87531  1.0000
  H   H5626     1.0  0.88555  0.01951  0.89353  1.0000
  H   H5627     1.0  0.87798  0.02625  0.87270  1.0000
  H   H5628     1.0  0.89731  0.03323  0.87448  1.0000
  H   H5629     1.0  0.85234  0.10375  0.86209  1.0000
  H   H5630     1.0  0.82866  0.10538  0.87041  1.0000
  H   H5631     1.0  0.84069  0.11645  0.87915  1.0000
  H   H5632     1.0  0.82556  0.05568  0.94999  1.0000
  H   H5633     1.0  0.81586  0.07824  0.95286  1.0000
  H   H5634     1.0  0.81507  0.07170  0.93294  1.0000
  H   H5635     1.0  0.89617  0.10098  0.92107  1.0000
  H   H5636     1.0  0.90619  0.07904  0.93209  1.0000
  H   H5637     1.0  0.91845  0.09022  0.91168  1.0000
  H   H5638     1.0  0.96423  0.99630  0.92025  1.0000
  H   H5639     1.0  0.53752  0.01908  0.95983  1.0000
  H   H5640     1.0  0.91670  0.46576  0.81971  1.0000
  Fe  Fe360     1.0  0.93192  0.46037  0.87470  1.0000
  H   H5641     1.0  0.59062  0.00656  0.79461  1.0000
  C   C3194     1.0  0.96646  0.28706  0.81988  1.0000
  H   H5642     1.0  0.91937  0.12169  0.78752  1.0000
  C   C3195     1.0  0.95324  0.25920  0.79692  1.0000
  H   H5643     1.0  0.94585  0.00178  0.94873  1.0000
  C   C3196     1.0  0.84464  0.01304  0.82511  1.0000
  C   C3197     1.0  0.80426  0.02999  0.97309  1.0000
  C   C3198     1.0  0.95811  0.28908  0.88369  1.0000
  H   H5644     1.0  0.75064  0.14450  0.79843  1.0000
  C   C3199     1.0  0.50223  0.42365  0.85224  1.0000
  H   H5645     1.0  0.57653  0.00862  0.93971  1.0000
  H   H5646     1.0  0.92703  0.20495  0.81339  1.0000
  H   H5647     1.0  0.89505  0.04783  0.79108  1.0000
  H   H5648     1.0  0.97453  0.29403  0.84770  1.0000
  H   H5649     1.0  0.76222  0.03633  0.80459  1.0000
  C   C3200     1.0  0.96136  0.28994  0.85195  1.0000
  H   H5650     1.0  0.51779  0.38390  0.90999  1.0000
  C   C3201     1.0  0.89923  0.23723  0.85058  1.0000
  C   C3202     1.0  0.93693  0.22699  0.85307  1.0000
  C   C3203     1.0  0.83950  0.05741  0.85160  1.0000
  N   N178      1.0  0.50559  0.28477  0.93922  1.0000
  H   H5651     1.0  0.94572  0.21516  0.80148  1.0000
  H   H5652     1.0  0.94744  0.29972  0.77900  1.0000
  H   H5653     1.0  0.88388  0.05557  0.81123  1.0000
  H   H5654     1.0  0.97805  0.38072  0.84748  1.0000
  H   H5655     1.0  0.71348  0.99965  0.88741  1.0000
  H   H5656     1.0  0.52746  0.22619  0.97063  1.0000
  C   C3204     1.0  0.95214  0.18671  0.80948  1.0000
  H   H5657     1.0  0.95776  0.24937  0.82341  1.0000
  H   H5658     1.0  0.72337  0.11239  0.83087  1.0000
  C   C3205     1.0  0.51116  0.43765  0.85536  1.0000
  H   H5659     1.0  0.96286  0.23263  0.81004  1.0000
  H   H5660     1.0  0.70792  0.06065  0.87441  1.0000
  H   H5661     1.0  0.90022  0.25100  0.84336  1.0000
  S   S724      1.0  0.63330  0.98318  0.90173  1.0000
  H   H5662     1.0  0.83177  0.06624  0.79142  1.0000
  C   C3206     1.0  0.91300  0.22308  0.84080  1.0000
  H   H5663     1.0  0.51986  0.43159  0.86522  1.0000
  C   C3207     1.0  0.98735  0.34078  0.88945  1.0000
  C   C3208     1.0  0.98733  0.39626  0.81138  1.0000
  H   H5664     1.0  0.92607  0.25349  0.82636  1.0000
  H   H5665     1.0  0.73635  0.01922  0.79455  1.0000
  C   C3209     1.0  0.74008  0.08253  0.81074  1.0000
  H   H5666     1.0  0.90834  0.22388  0.82845  1.0000
  C   C3210     1.0  0.52286  0.44565  0.83806  1.0000
  C   C3211     1.0  0.77328  0.05300  0.96343  1.0000
  C   C3212     1.0  0.49945  0.26925  0.89846  1.0000
  C   C3213     1.0  0.94370  0.20805  0.83057  1.0000
  H   H5667     1.0  0.88743  0.46715  0.84423  1.0000
  H   H5668     1.0  0.93233  0.35430  0.86233  1.0000
  H   H5669     1.0  0.75938  0.11192  0.80365  1.0000
  C   C3214     1.0  0.90956  0.27485  0.87611  1.0000
  H   H5670     1.0  0.74368  0.10831  0.83799  1.0000
  C   C3215     1.0  0.68858  0.00504  0.82820  1.0000
  H   H5671     1.0  0.72329  0.00366  0.96590  1.0000
  H   H5672     1.0  0.96132  0.15121  0.80332  1.0000
  H   H5673     1.0  0.85789  0.47540  0.77732  1.0000
  H   H5674     1.0  0.91155  0.20971  0.84929  1.0000
  H   H5675     1.0  0.51333  0.41401  0.84580  1.0000
  H   H5676     1.0  0.65489  0.01948  0.78945  1.0000
  H   H5677     1.0  0.71292  0.07940  0.81217  1.0000
  Fe  Fe361     1.0  0.65527  0.99112  0.87878  1.0000
  H   H5678     1.0  0.64816  0.14380  0.93575  1.0000
  H   H5679     1.0  0.91627  0.04322  0.81029  1.0000
  H   H5680     1.0  0.95049  0.18483  0.79664  1.0000
  H   H5681     1.0  0.90539  0.28154  0.86323  1.0000
  H   H5682     1.0  0.75023  0.08813  0.79965  1.0000
  H   H5683     1.0  0.62280  0.06583  0.92813  1.0000
  C   C3216     1.0  0.74036  0.99827  0.94134  1.0000
  H   H5684     1.0  0.98410  0.40854  0.80123  1.0000
  C   C3217     1.0  0.74234  0.02153  0.80476  1.0000
  H   H5685     1.0  0.89925  0.41892  0.84395  1.0000
  H   H5686     1.0  0.72672  0.06484  0.84230  1.0000
  H   H5687     1.0  0.96690  0.26196  0.79181  1.0000
  C   C3218     1.0  0.72327  0.09113  0.78528  1.0000
  H   H5688     1.0  0.92953  0.21904  0.86513  1.0000
  C   C3219     1.0  0.95315  0.24462  0.81374  1.0000
  H   H5689     1.0  0.93241  0.24115  0.85459  1.0000
  H   H5690     1.0  0.95821  0.20771  0.82847  1.0000
  H   H5691     1.0  0.59909  0.07852  0.94699  1.0000
  H   H5692     1.0  0.74396  0.06789  0.81124  1.0000
  H   H5693     1.0  0.80877  0.47041  0.92057  1.0000
  C   C3220     1.0  0.90667  0.03417  0.81388  1.0000
  S   S725      1.0  0.91524  0.48072  0.85697  1.0000
  H   H5694     1.0  0.51479  0.45213  0.82765  1.0000
  H   H5695     1.0  0.87052  0.24546  0.85939  1.0000
  C   C3221     1.0  0.92895  0.27574  0.87489  1.0000
  H   H5696     1.0  0.71229  0.08625  0.83888  1.0000
  C   C3222     1.0  0.98913  0.40127  0.82812  1.0000
  C   C3223     1.0  0.52011  0.27041  0.94678  1.0000
  N   N179      1.0  0.63454  0.08621  0.93164  1.0000
  C   C3224     1.0  0.61774  0.09655  0.94144  1.0000
  C   C3225     1.0  0.64658  0.09891  0.92093  1.0000
  C   C3226     1.0  0.62935  0.07699  0.91983  1.0000
  H   H5697     1.0  0.97536  0.37634  0.87865  1.0000
  H   H5698     1.0  0.54097  0.23521  0.94977  1.0000
  C   C3227     1.0  0.98644  0.42796  0.88161  1.0000
  C   C3228     1.0  0.64487  0.06889  0.90583  1.0000
  C   C3229     1.0  0.63899  0.11372  0.90612  1.0000
  C   C3230     1.0  0.65334  0.12397  0.89460  1.0000
  H   H5699     1.0  0.86650  0.30915  0.78339  1.0000
  H   H5700     1.0  0.94092  0.28949  0.83761  1.0000
  C   C3231     1.0  0.63828  0.05836  0.89603  1.0000
  H   H5701     1.0  0.60995  0.10608  0.93181  1.0000
  H   H5702     1.0  0.62107  0.10504  0.94883  1.0000
  H   H5703     1.0  0.64978  0.10596  0.92978  1.0000
  H   H5704     1.0  0.65981  0.09140  0.91485  1.0000
  H   H5705     1.0  0.61905  0.08616  0.91260  1.0000
  C   C3232     1.0  0.74550  0.11784  0.80946  1.0000
  H   H5706     1.0  0.89840  0.19692  0.82250  1.0000
  H   H5707     1.0  0.65781  0.06624  0.93711  1.0000
  C   C3233     1.0  0.53158  0.23856  0.96210  1.0000
  H   H5708     1.0  0.92216  0.98699  0.95195  1.0000
  H   H5709     1.0  0.90446  0.16817  0.78859  1.0000
  C   C3234     1.0  0.66685  0.04136  0.78845  1.0000
  H   H5710     1.0  0.63601  0.08463  0.96813  1.0000
  H   H5711     1.0  0.65080  0.07944  0.89565  1.0000
  H   H5712     1.0  0.63410  0.10822  0.89720  1.0000
  H   H5713     1.0  0.62771  0.12345  0.91215  1.0000
  H   H5714     1.0  0.64759  0.13473  0.88430  1.0000
  H   H5715     1.0  0.65844  0.13014  0.90289  1.0000
  H   H5716     1.0  0.66473  0.11490  0.88774  1.0000
  H   H5717     1.0  0.79972  0.01264  0.95838  1.0000
  N   N180      1.0  0.93235  0.22490  0.83639  1.0000
  H   H5718     1.0  0.92313  0.30052  0.88351  1.0000
  C   C3235     1.0  0.94115  0.20481  0.81299  1.0000
  C   C3236     1.0  0.55045  0.02187  0.95136  1.0000
  N   N181      1.0  0.95003  0.29804  0.86752  1.0000
  C   C3237     1.0  0.98068  0.12434  0.86250  1.0000
  H   H5719     1.0  0.50706  0.30477  0.95262  1.0000
  H   H5720     1.0  0.67068  0.99179  0.82204  1.0000
  N   N182      1.0  0.71492  0.01773  0.83058  1.0000
  C   C3238     1.0  0.70220  0.02703  0.84475  1.0000
  H   H5721     1.0  0.84488  0.99091  0.81330  1.0000
  C   C3239     1.0  0.72749  0.02966  0.81926  1.0000
  C   C3240     1.0  0.70496  0.01374  0.81862  1.0000
  H   H5722     1.0  0.86290  0.22173  0.78367  1.0000
  C   C3241     1.0  0.69113  0.04557  0.83789  1.0000
  H   H5723     1.0  0.75414  0.13568  0.82084  1.0000
  H   H5724     1.0  0.93731  0.26892  0.86409  1.0000
  C   C3242     1.0  0.91312  0.47593  0.80799  1.0000
  S   S726      1.0  0.60633  0.99935  0.87328  1.0000
  C   C3243     1.0  0.67607  0.05195  0.85275  1.0000
  C   C3244     1.0  0.79494  0.02526  0.96264  1.0000
  H   H5725     1.0  0.70948  0.02922  0.85398  1.0000
  H   H5726     1.0  0.69283  0.01848  0.85339  1.0000
  H   H5727     1.0  0.61124  0.07469  0.96439  1.0000
  H   H5728     1.0  0.95975  0.28944  0.80857  1.0000
  H   H5729     1.0  0.73379  0.03430  0.82780  1.0000
  H   H5730     1.0  0.71990  0.04203  0.81189  1.0000
  H   H5731     1.0  0.97640  0.38880  0.81455  1.0000
  Fe  Fe362     1.0  0.89716  0.26218  0.78094  1.0000
  H   H5732     1.0  0.67673  0.01554  0.83190  1.0000
  C   C3245     1.0  0.84788  0.02662  0.80727  1.0000
  H   H5733     1.0  0.69978  0.05557  0.83292  1.0000
  H   H5734     1.0  0.68514  0.04521  0.82691  1.0000
  S   S727      1.0  0.87167  0.09949  0.78326  1.0000
  H   H5735     1.0  0.97254  0.34428  0.89133  1.0000
  C   C3246     1.0  0.63420  0.98405  0.79201  1.0000
  H   H5736     1.0  0.59378  0.10351  0.97271  1.0000
  H   H5737     1.0  0.84029  0.07170  0.84690  1.0000
  H   H5738     1.0  0.67158  0.05732  0.96426  1.0000
  H   H5739     1.0  0.70966  0.09440  0.78231  1.0000
  C   C3247     1.0  0.65835  0.06318  0.97180  1.0000
  H   H5740     1.0  0.92411  0.30344  0.86046  1.0000
  H   H5741     1.0  0.88018  0.43089  0.85740  1.0000
  H   H5742     1.0  0.68150  0.05225  0.86426  1.0000
  H   H5743     1.0  0.66883  0.06560  0.84768  1.0000
  H   H5744     1.0  0.66639  0.04294  0.85731  1.0000
  C   C3248     1.0  0.98392  0.28273  0.89961  1.0000
  H   H5745     1.0  0.66069  0.16135  0.92896  1.0000
  H   H5746     1.0  0.90203  0.43610  0.85347  1.0000
  C   C3249     1.0  0.50031  0.26748  0.91791  1.0000
  H   H5747     1.0  0.94904  0.29307  0.89594  1.0000
  H   H5748     1.0  0.94129  0.19621  0.84138  1.0000
  H   H5749     1.0  0.73724  0.11944  0.79953  1.0000
  H   H5750     1.0  0.64020  0.99355  0.78043  1.0000
  H   H5751     1.0  0.53860  0.24368  0.96958  1.0000
  C   C3250     1.0  0.97455  0.13295  0.84676  1.0000
  H   H5752     1.0  0.95956  0.27435  0.88608  1.0000
  H   H5753     1.0  0.87463  0.47816  0.91825  1.0000
  S   S728      1.0  0.97803  0.07601  0.85866  1.0000
  C   C3251     1.0  0.50355  0.40175  0.88011  1.0000
  H   H5754     1.0  0.97134  0.27249  0.82417  1.0000
  C   C3252     1.0  0.93405  0.24117  0.82169  1.0000
  H   H5755     1.0  0.87812  0.22182  0.85998  1.0000
  C   C3253     1.0  0.64851  0.07871  0.95968  1.0000
  H   H5756     1.0  0.85781  0.48053  0.94901  1.0000
  H   H5757     1.0  0.63846  0.01095  0.95154  1.0000
  N   N183      1.0  0.69287  0.98971  0.96726  1.0000
  H   H5758     1.0  0.91351  0.02180  0.80879  1.0000
  C   C3254     1.0  0.70731  0.07494  0.87393  1.0000
  H   H5759     1.0  0.70652  0.07653  0.88765  1.0000
  H   H5760     1.0  0.62806  0.06720  0.88856  1.0000
  H   H5761     1.0  0.88767  0.16191  0.80711  1.0000
  H   H5762     1.0  0.82293  0.00476  0.81904  1.0000
  C   C3255     1.0  0.73787  0.10623  0.82752  1.0000
  H   H5763     1.0  0.58968  0.00421  0.96428  1.0000
  C   C3256     1.0  0.95321  0.29483  0.83507  1.0000
  C   C3257     1.0  0.60494  0.00411  0.79519  1.0000
  H   H5764     1.0  0.90045  0.28138  0.88689  1.0000
  H   H5765     1.0  0.58116  0.10693  0.95556  1.0000
  H   H5766     1.0  0.73158  0.14338  0.81678  1.0000
  C   C3258     1.0  0.84306  0.18706  0.78699  1.0000
  C   C3259     1.0  0.59994  0.03772  0.78319  1.0000
  C   C3260     1.0  0.64462  0.07222  0.94444  1.0000
  C   C3261     1.0  0.84236  0.06037  0.78110  1.0000
  H   H5767     1.0  0.97811  0.29366  0.81535  1.0000
  H   H5768     1.0  0.94609  0.13861  0.77799  1.0000
  C   C3262     1.0  0.97696  0.29230  0.88261  1.0000
  H   H5769     1.0  0.55571  0.02974  0.95780  1.0000
  H   H5770     1.0  0.65709  0.08876  0.95434  1.0000
  C   C3263     1.0  0.91144  0.13557  0.78757  1.0000
  H   H5771     1.0  0.50848  0.24671  0.95020  1.0000
  H   H5772     1.0  0.52864  0.45596  0.84051  1.0000
  H   H5773     1.0  0.63771  0.06081  0.95050  1.0000
  C   C3264     1.0  0.73910  0.00154  0.84953  1.0000
  H   H5774     1.0  0.59021  0.04911  0.96463  1.0000
  H   H5775     1.0  0.75042  0.00864  0.81043  1.0000
  H   H5776     1.0  0.96659  0.18593  0.80856  1.0000
  C   C3265     1.0  0.78269  0.05784  0.97356  1.0000
  H   H5777     1.0  0.72477  0.09731  0.97114  1.0000
  H   H5778     1.0  0.90174  0.44565  0.82072  1.0000
  C   C3266     1.0  0.51507  0.25239  0.95752  1.0000
  H   H5779     1.0  0.53207  0.26756  0.93605  1.0000
  H   H5780     1.0  0.64969  0.05229  0.88646  1.0000
  C   C3267     1.0  0.89466  0.18965  0.81424  1.0000
  H   H5781     1.0  0.65697  0.98954  0.93512  1.0000
  H   H5782     1.0  0.59929  0.98598  0.93647  1.0000
  H   H5783     1.0  0.97912  0.29861  0.78179  1.0000
  H   H5784     1.0  0.55895  0.03733  0.92474  1.0000
  H   H5785     1.0  0.53053  0.30569  0.91459  1.0000
  C   C3268     1.0  0.88902  0.44587  0.83064  1.0000
  H   H5786     1.0  0.51037  0.40963  0.88499  1.0000
  H   H5787     1.0  0.55943  0.99813  0.93983  1.0000
  H   H5788     1.0  0.91780  0.00213  0.97504  1.0000
  C   C3269     1.0  0.61292  0.01983  0.78222  1.0000
  H   H5789     1.0  0.86668  0.46314  0.84304  1.0000
  H   H5790     1.0  0.64359  0.46753  0.97174  1.0000
  H   H5791     1.0  0.97469  0.28737  0.91144  1.0000
  H   H5792     1.0  0.53679  0.04611  0.93614  1.0000
  C   C3270     1.0  0.89280  0.43215  0.84743  1.0000
  H   H5793     1.0  0.63239  0.04739  0.90555  1.0000
  C   C3271     1.0  0.60463  0.08513  0.95448  1.0000
  C   C3272     1.0  0.98906  0.40470  0.86364  1.0000
  S   S729      1.0  0.93100  0.37236  0.78516  1.0000
  H   H5794     1.0  0.87662  0.02304  0.82302  1.0000
  H   H5795     1.0  0.53877  0.29617  0.93491  1.0000
  C   C3273     1.0  0.65762  0.14966  0.93957  1.0000
  H   H5796     1.0  0.96489  0.27511  0.85585  1.0000
  H   H5797     1.0  0.74763  0.04723  0.78894  1.0000
  H   H5798     1.0  0.52503  0.27517  0.95629  1.0000
  H   H5799     1.0  0.67031  0.13963  0.94043  1.0000
  C   C3274     1.0  0.64483  0.13952  0.97242  1.0000
  H   H5800     1.0  0.85465  0.01904  0.79645  1.0000
  H   H5801     1.0  0.85235  0.03212  0.84466  1.0000
  H   H5802     1.0  0.88644  0.46456  0.79891  1.0000
  H   H5803     1.0  0.64825  0.47428  0.94781  1.0000
  H   H5804     1.0  0.59400  0.43420  0.97159  1.0000
  S   S730      1.0  0.68265  0.06844  0.78852  1.0000
  N   N184      1.0  0.85825  0.04045  0.80654  1.0000
  H   H5805     1.0  0.75264  0.99854  0.94556  1.0000
  H   H5806     1.0  0.70018  0.02603  0.80905  1.0000
  C   C3275     1.0  0.49513  0.38943  0.89699  1.0000
  H   H5807     1.0  0.73558  0.01173  0.93355  1.0000
  C   C3276     1.0  0.85271  0.04630  0.83880  1.0000
  H   H5808     1.0  0.97773  0.15355  0.82310  1.0000
  H   H5809     1.0  0.68386  0.00357  0.80265  1.0000
  C   C3277     1.0  0.50961  0.37648  0.90626  1.0000
  C   C3278     1.0  0.84838  0.05224  0.81981  1.0000
  H   H5810     1.0  0.75024  0.00717  0.84002  1.0000
  H   H5811     1.0  0.86338  0.46841  0.80867  1.0000
  H   H5812     1.0  0.71467  0.10226  0.80870  1.0000
  H   H5813     1.0  0.91362  0.29215  0.78649  1.0000
  H   H5814     1.0  0.50106  0.39573  0.83897  1.0000
  C   C3279     1.0  0.58355  0.46983  0.97591  1.0000
  H   H5815     1.0  0.93658  0.35473  0.88340  1.0000
  H   H5816     1.0  0.51976  0.33520  0.92368  1.0000
  C   C3280     1.0  0.75510  0.03419  0.79518  1.0000
  H   H5817     1.0  0.63725  0.16600  0.95549  1.0000
  H   H5818     1.0  0.66503  0.98907  0.96905  1.0000
  H   H5819     1.0  0.61884  0.46513  0.95965  1.0000
  C   C3281     1.0  0.63943  0.47784  0.96030  1.0000
  H   H5820     1.0  0.71425  0.00475  0.80995  1.0000
  H   H5821     1.0  0.49399  0.43067  0.84202  1.0000
  C   C3282     1.0  0.67739  0.99063  0.95887  1.0000
  C   C3283     1.0  0.72605  0.99338  0.95780  1.0000
  C   C3284     1.0  0.87688  0.03111  0.80932  1.0000
  H   H5822     1.0  0.93850  0.16027  0.78377  1.0000
  H   H5823     1.0  0.85724  0.00614  0.82971  1.0000
  C   C3285     1.0  0.89268  0.13613  0.78451  1.0000
  H   H5824     1.0  0.83752  0.05008  0.77746  1.0000
  H   H5825     1.0  0.83425  0.03312  0.80475  1.0000
  H   H5826     1.0  0.71537  0.99276  0.84983  1.0000
  H   H5827     1.0  0.94086  0.47677  0.79558  1.0000
  Fe  Fe363     1.0  0.84367  0.11546  0.79013  1.0000
  H   H5828     1.0  0.76519  0.02843  0.78440  1.0000
  H   H5829     1.0  0.73076  0.07855  0.78086  1.0000
  H   H5830     1.0  0.88331  0.14867  0.78689  1.0000
  H   H5831     1.0  0.88691  0.12507  0.79380  1.0000
  H   H5832     1.0  0.69088  0.99522  0.84055  1.0000
  Fe  Fe364     1.0  0.80537  0.12730  0.78402  1.0000
  C   C3286     1.0  0.95404  0.98803  0.92711  1.0000
  H   H5833     1.0  0.58351  0.99029  0.77760  1.0000
  C   C3287     1.0  0.74719  0.98311  0.85934  1.0000
  S   S731      1.0  0.95206  0.47716  0.87133  1.0000
  H   H5834     1.0  0.86911  0.04411  0.77801  1.0000
  H   H5835     1.0  0.57983  0.08826  0.97415  1.0000
  H   H5836     1.0  0.90843  0.08874  0.78770  1.0000
  H   H5837     1.0  0.94190  0.99396  0.92135  1.0000
  C   C3288     1.0  0.94396  0.14597  0.78879  1.0000
  C   C3289     1.0  0.49251  0.38965  0.85129  1.0000
  S   S732      1.0  0.98896  0.32322  0.82366  1.0000
  H   H5838     1.0  0.66149  0.01959  0.97621  1.0000
  H   H5839     1.0  0.69415  0.98265  0.81502  1.0000
  C   C3290     1.0  0.69419  0.59510  0.17498  1.0000
  S   S733      1.0  0.66506  0.55968  0.99153  1.0000
  H   H5840     1.0  0.83179  0.69401  0.06420  1.0000
  Fe  Fe365     1.0  0.66223  0.51086  0.99384  1.0000
  S   S734      1.0  0.64193  0.52827  0.01088  1.0000
  H   H5841     1.0  0.95313  0.63854  0.01671  1.0000
  H   H5842     1.0  0.93885  0.65956  0.01122  1.0000
  N   N185      1.0  0.88013  0.96153  0.09833  1.0000
  Fe  Fe366     1.0  0.66561  0.53650  0.01487  1.0000
  S   S735      1.0  0.67093  0.53351  0.04233  1.0000
  C   C3291     1.0  0.74500  0.56454  0.97956  1.0000
  S   S736      1.0  0.68588  0.51763  0.99925  1.0000
  Fe  Fe367     1.0  0.73236  0.57892  0.10874  1.0000
  S   S737      1.0  0.71381  0.60485  0.10068  1.0000
  S   S738      1.0  0.76255  0.57523  0.10359  1.0000
  Fe  Fe368     1.0  0.70143  0.55950  0.12625  1.0000
  S   S739      1.0  0.68087  0.58410  0.11951  1.0000
  S   S740      1.0  0.68877  0.53681  0.14347  1.0000
  Fe  Fe369     1.0  0.69926  0.58797  0.09278  1.0000
  S   S741      1.0  0.68809  0.59597  0.06759  1.0000
  Fe  Fe370     1.0  0.69728  0.59808  0.12826  1.0000
  S   S742      1.0  0.71906  0.56239  0.09890  1.0000
  S   S743      1.0  0.71680  0.57316  0.13682  1.0000
  Fe  Fe371     1.0  0.82671  0.63702  0.08172  1.0000
  S   S744      1.0  0.82960  0.65985  0.05838  1.0000
  S   S745      1.0  0.79912  0.63910  0.09956  1.0000
  Fe  Fe372     1.0  0.86475  0.61752  0.07007  1.0000
  S   S746      1.0  0.87024  0.63867  0.04569  1.0000
  S   S747      1.0  0.88723  0.59419  0.07594  1.0000
  Fe  Fe373     1.0  0.85663  0.65789  0.06388  1.0000
  S   S748      1.0  0.86870  0.68214  0.05995  1.0000
  Fe  Fe374     1.0  0.84290  0.63870  0.04242  1.0000
  S   S749      1.0  0.83439  0.64188  0.01653  1.0000
  S   S750      1.0  0.85278  0.63667  0.08868  1.0000
  S   S751      1.0  0.83837  0.61591  0.06539  1.0000
  H   H5843     1.0  0.59438  0.97663  0.14297  1.0000
  Fe  Fe375     1.0  0.91510  0.88128  0.08231  1.0000
  S   S752      1.0  0.93558  0.86452  0.09788  1.0000
  S   S753      1.0  0.88717  0.87727  0.08575  1.0000
  Fe  Fe376     1.0  0.93873  0.90796  0.06193  1.0000
  S   S754      1.0  0.96141  0.89339  0.07595  1.0000
  S   S755      1.0  0.93986  0.93389  0.04195  1.0000
  Fe  Fe377     1.0  0.95533  0.86868  0.07181  1.0000
  C   C3292     1.0  0.77433  0.69939  0.10267  1.0000
  Fe  Fe378     1.0  0.93962  0.89072  0.10063  1.0000
  S   S756      1.0  0.93923  0.89414  0.12814  1.0000
  S   S757      1.0  0.93427  0.88353  0.05587  1.0000
  S   S758      1.0  0.91762  0.90720  0.08688  1.0000
  S   S759      1.0  0.90706  0.77451  0.12442  1.0000
  Fe  Fe379     1.0  0.88544  0.73555  0.12356  1.0000
  S   S760      1.0  0.89594  0.75392  0.09859  1.0000
  S   S761      1.0  0.87362  0.71155  0.12561  1.0000
  Fe  Fe380     1.0  0.91924  0.75113  0.11110  1.0000
  S   S762      1.0  0.94675  0.74953  0.09317  1.0000
  Fe  Fe381     1.0  0.88301  0.77590  0.11381  1.0000
  S   S763      1.0  0.86715  0.80154  0.10057  1.0000
  S   S764      1.0  0.90974  0.73113  0.13518  1.0000
  S   S765      1.0  0.87018  0.75783  0.13786  1.0000
  C   C3293     1.0  0.71311  0.61184  0.00228  1.0000
  H   H5844     1.0  0.87831  0.54358  0.98099  1.0000
  C   C3294     1.0  0.95970  0.72772  0.09495  1.0000
  C   C3295     1.0  0.95603  0.71462  0.11022  1.0000
  H   H5845     1.0  0.93381  0.50959  0.00202  1.0000
  C   C3296     1.0  0.97407  0.72345  0.08106  1.0000
  H   H5846     1.0  0.94534  0.71788  0.12119  1.0000
  H   H5847     1.0  0.79806  0.61517  0.06145  1.0000
  H   H5848     1.0  0.97700  0.73352  0.06921  1.0000
  C   C3297     1.0  0.88237  0.85582  0.09055  1.0000
  C   C3298     1.0  0.89199  0.84092  0.10058  1.0000
  C   C3299     1.0  0.88717  0.82415  0.10434  1.0000
  C   C3300     1.0  0.87316  0.82223  0.09757  1.0000
  C   C3301     1.0  0.86359  0.83722  0.08773  1.0000
  C   C3302     1.0  0.86800  0.85392  0.08446  1.0000
  H   H5849     1.0  0.90283  0.84239  0.10571  1.0000
  H   H5850     1.0  0.89421  0.81279  0.11247  1.0000
  H   H5851     1.0  0.85264  0.83591  0.08262  1.0000
  H   H5852     1.0  0.86038  0.86541  0.07691  1.0000
  C   C3303     1.0  0.93263  0.91595  0.13227  1.0000
  C   C3304     1.0  0.93563  0.93089  0.11881  1.0000
  C   C3305     1.0  0.93219  0.94781  0.12317  1.0000
  C   C3306     1.0  0.88621  0.52967  0.98144  1.0000
  C   C3307     1.0  0.82949  0.60649  0.98996  1.0000
  S   S766      1.0  0.97806  0.55552  0.00997  1.0000
  H   H5853     1.0  0.94127  0.92926  0.10522  1.0000
  H   H5854     1.0  0.93523  0.95922  0.11293  1.0000
  H   H5855     1.0  0.97921  0.59150  0.01200  1.0000
  H   H5856     1.0  0.64670  0.49856  0.04315  1.0000
  C   C3308     1.0  0.88437  0.96767  0.03618  1.0000
  C   C3309     1.0  0.88643  0.94935  0.04354  1.0000
  C   C3310     1.0  0.90341  0.93890  0.04547  1.0000
  C   C3311     1.0  0.91843  0.94672  0.03990  1.0000
  C   C3312     1.0  0.91634  0.96507  0.03276  1.0000
  H   H5857     1.0  0.71118  0.59431  0.98594  1.0000
  H   H5858     1.0  0.87488  0.94318  0.04763  1.0000
  H   H5859     1.0  0.90488  0.92473  0.05101  1.0000
  H   H5860     1.0  0.88192  0.90136  0.12993  1.0000
  H   H5861     1.0  0.90233  0.95307  0.07767  1.0000
  H   H5862     1.0  0.66799  0.57654  0.16931  1.0000
  C   C3313     1.0  0.87318  0.70328  0.10707  1.0000
  C   C3314     1.0  0.86716  0.68735  0.11010  1.0000
  C   C3315     1.0  0.86596  0.68065  0.09575  1.0000
  C   C3316     1.0  0.87059  0.68991  0.07825  1.0000
  C   C3317     1.0  0.87692  0.70568  0.07518  1.0000
  C   C3318     1.0  0.87827  0.71233  0.08953  1.0000
  H   H5863     1.0  0.86336  0.68020  0.12363  1.0000
  H   H5864     1.0  0.86157  0.66825  0.09820  1.0000
  H   H5865     1.0  0.88065  0.71287  0.06165  1.0000
  H   H5866     1.0  0.88294  0.72461  0.08704  1.0000
  C   C3319     1.0  0.83695  0.62217  0.00895  1.0000
  H   H5867     1.0  0.88759  0.87126  0.15950  1.0000
  H   H5868     1.0  0.69158  0.49421  0.03211  1.0000
  C   C3320     1.0  0.85076  0.59106  0.00884  1.0000
  C   C3321     1.0  0.84848  0.60656  0.01534  1.0000
  H   H5869     1.0  0.88820  0.55672  0.00674  1.0000
  H   H5870     1.0  0.85583  0.60655  0.02507  1.0000
  C   C3322     1.0  0.88988  0.58915  0.04243  1.0000
  C   C3323     1.0  0.89784  0.58460  0.05722  1.0000
  C   C3324     1.0  0.91439  0.57256  0.05691  1.0000
  C   C3325     1.0  0.92321  0.56557  0.04155  1.0000
  H   H5871     1.0  0.87712  0.59834  0.04266  1.0000
  H   H5872     1.0  0.92057  0.56896  0.06838  1.0000
  H   H5873     1.0  0.93611  0.55654  0.04121  1.0000
  C   C3326     1.0  0.78887  0.62142  0.10073  1.0000
  C   C3327     1.0  0.77082  0.62491  0.09958  1.0000
  C   C3328     1.0  0.76255  0.61087  0.10045  1.0000
  C   C3329     1.0  0.77215  0.59322  0.10302  1.0000
  C   C3330     1.0  0.79002  0.58974  0.10474  1.0000
  C   C3331     1.0  0.79846  0.60379  0.10327  1.0000
  H   H5874     1.0  0.76335  0.63854  0.09761  1.0000
  H   H5875     1.0  0.74879  0.61372  0.09904  1.0000
  H   H5876     1.0  0.79744  0.57612  0.10703  1.0000
  H   H5877     1.0  0.81232  0.60096  0.10441  1.0000
  C   C3332     1.0  0.69661  0.51593  0.13754  1.0000
  H   H5878     1.0  0.87810  0.93828  0.08988  1.0000
  C   C3333     1.0  0.93676  0.60765  0.05088  1.0000
  H   H5879     1.0  0.97320  0.60926  0.03523  1.0000
  H   H5880     1.0  0.98737  0.75364  0.09939  1.0000
  H   H5881     1.0  0.62841  0.49627  0.09739  1.0000
  H   H5882     1.0  0.92377  0.60666  0.06030  1.0000
  H   H5883     1.0  0.59219  0.50886  0.00008  1.0000
  H   H5884     1.0  0.65444  0.56164  0.12244  1.0000
  H   H5885     1.0  0.66070  0.51421  0.08060  1.0000
  H   H5886     1.0  0.62678  0.49904  0.01404  1.0000
  C   C3334     1.0  0.67710  0.55101  0.04782  1.0000
  C   C3335     1.0  0.68572  0.54704  0.06217  1.0000
  C   C3336     1.0  0.68915  0.56072  0.06827  1.0000
  C   C3337     1.0  0.68425  0.57853  0.05986  1.0000
  C   C3338     1.0  0.67618  0.58251  0.04505  1.0000
  C   C3339     1.0  0.67263  0.56878  0.03901  1.0000
  H   H5887     1.0  0.68952  0.53333  0.06881  1.0000
  H   H5888     1.0  0.69534  0.55743  0.07966  1.0000
  H   H5889     1.0  0.67237  0.59626  0.03845  1.0000
  H   H5890     1.0  0.66596  0.57198  0.02792  1.0000
  C   C3340     1.0  0.68884  0.94683  0.00478  1.0000
  H   H5891     1.0  0.91342  0.67303  0.00497  1.0000
  C   C3341     1.0  0.77791  0.51487  0.98816  1.0000
  H   H5892     1.0  0.67271  0.48648  0.05833  1.0000
  H   H5893     1.0  0.71524  0.62152  0.17680  1.0000
  H   H5894     1.0  0.93037  0.60727  0.00127  1.0000
  H   H5895     1.0  0.72892  0.55462  0.00490  1.0000
  H   H5896     1.0  0.70780  0.54654  0.99156  1.0000
  C   C3342     1.0  0.69204  0.49188  0.08436  1.0000
  S   S767      1.0  0.96824  0.52935  0.98871  1.0000
  H   H5897     1.0  0.63165  0.53009  0.08566  1.0000
  C   C3343     1.0  0.85731  0.52037  0.98323  1.0000
  C   C3344     1.0  0.73061  0.55717  0.99054  1.0000
  H   H5898     1.0  0.82929  0.71791  0.05921  1.0000
  H   H5899     1.0  0.92851  0.96789  0.06169  1.0000
  C   C3345     1.0  0.93378  0.68102  0.07462  1.0000
  H   H5900     1.0  0.96376  0.68729  0.12353  1.0000
  H   H5901     1.0  0.56948  0.50114  0.02816  1.0000
  H   H5902     1.0  0.91213  0.65128  0.10716  1.0000
  C   C3346     1.0  0.98312  0.61192  0.02322  1.0000
  H   H5903     1.0  0.90679  0.61340  0.00876  1.0000
  N   N186      1.0  0.97620  0.89761  0.17358  1.0000
  H   H5904     1.0  0.94778  0.61050  0.02261  1.0000
  C   C3347     1.0  0.91636  0.62268  0.98061  1.0000
  H   H5905     1.0  0.72558  0.63988  0.17111  1.0000
  H   H5906     1.0  0.51983  0.95427  0.11779  1.0000
  C   C3348     1.0  0.62714  0.48505  0.01558  1.0000
  C   C3349     1.0  0.90181  0.64047  0.08209  1.0000
  H   H5907     1.0  0.52581  0.96666  0.99578  1.0000
  H   H5908     1.0  0.77900  0.50050  0.99451  1.0000
  H   H5909     1.0  0.78039  0.68523  0.10192  1.0000
  C   C3350     1.0  0.98077  0.69299  0.09766  1.0000
  H   H5910     1.0  0.92304  0.63827  0.03220  1.0000
  H   H5911     1.0  0.85995  0.57916  0.01361  1.0000
  H   H5912     1.0  0.89375  0.54244  0.03753  1.0000
  H   H5913     1.0  0.81255  0.69716  0.04219  1.0000
  H   H5914     1.0  0.94647  0.59498  0.05414  1.0000
  S   S768      1.0  0.76058  0.56892  0.98921  1.0000
  C   C3351     1.0  0.91867  0.61862  0.00021  1.0000
  C   C3352     1.0  0.91793  0.67045  0.12604  1.0000
  H   H5915     1.0  0.92443  0.54102  0.98399  1.0000
  H   H5916     1.0  0.83232  0.70632  0.03237  1.0000
  H   H5917     1.0  0.90734  0.69451  0.13690  1.0000
  C   C3353     1.0  0.87637  0.96799  0.11554  1.0000
  S   S769      1.0  0.84498  0.57136  0.98803  1.0000
  H   H5918     1.0  0.85975  0.94548  0.10658  1.0000
  H   H5919     1.0  0.81228  0.68549  0.12825  1.0000
  H   H5920     1.0  0.59287  0.97391  0.98789  1.0000
  H   H5921     1.0  0.90315  0.67009  0.09188  1.0000
  C   C3354     1.0  0.57835  0.50891  0.99930  1.0000
  H   H5922     1.0  0.77887  0.61945  0.99507  1.0000
  C   C3355     1.0  0.82053  0.71736  0.11341  1.0000
  H   H5923     1.0  0.64278  0.60156  0.16690  1.0000
  C   C3356     1.0  0.91688  0.68162  0.13950  1.0000
  H   H5924     1.0  0.87223  0.84317  0.16873  1.0000
  S   S770      1.0  0.86298  0.98047  0.03380  1.0000
  H   H5925     1.0  0.94285  0.95936  0.99912  1.0000
  H   H5926     1.0  0.81246  0.67671  0.09238  1.0000
  H   H5927     1.0  0.79755  0.67461  0.12333  1.0000
  H   H5928     1.0  0.49318  0.94166  0.98613  1.0000
  N   N187      1.0  0.64624  0.51846  0.10688  1.0000
  C   C3357     1.0  0.82259  0.70680  0.06047  1.0000
  H   H5929     1.0  0.83154  0.71425  0.08679  1.0000
  H   H5930     1.0  0.89760  0.63283  0.09578  1.0000
  H   H5931     1.0  0.86867  0.97311  0.98552  1.0000
  C   C3358     1.0  0.98454  0.70608  0.08237  1.0000
  H   H5932     1.0  0.72706  0.65235  0.14133  1.0000
  N   N188      1.0  0.92101  0.63401  0.00682  1.0000
  H   H5933     1.0  0.88067  0.50252  0.99083  1.0000
  H   H5934     1.0  0.64764  0.56845  0.17403  1.0000
  H   H5935     1.0  0.71016  0.63781  0.11859  1.0000
  H   H5936     1.0  0.93898  0.67342  0.06378  1.0000
  H   H5937     1.0  0.97994  0.93904  0.98210  1.0000
  C   C3359     1.0  0.75805  0.69980  0.11808  1.0000
  H   H5938     1.0  0.96519  0.61998  0.09508  1.0000
  H   H5939     1.0  0.81854  0.63420  0.99124  1.0000
  H   H5940     1.0  0.61706  0.52242  0.13602  1.0000
  H   H5941     1.0  0.63528  0.52749  0.14249  1.0000
  H   H5942     1.0  0.67595  0.50447  0.15726  1.0000
  C   C3360     1.0  0.88098  0.54302  0.03374  1.0000
  C   C3361     1.0  0.92433  0.68019  0.10659  1.0000
  H   H5943     1.0  0.91046  0.52805  0.01259  1.0000
  H   H5944     1.0  0.89389  0.51542  0.01638  1.0000
  H   H5945     1.0  0.95917  0.66596  0.98161  1.0000
  C   C3362     1.0  0.62905  0.52345  0.10005  1.0000
  H   H5946     1.0  0.87088  0.54448  0.01066  1.0000
  H   H5947     1.0  0.80783  0.71878  0.12340  1.0000
  H   H5948     1.0  0.61890  0.53344  0.10681  1.0000
  C   C3363     1.0  0.89631  0.97588  0.98014  1.0000
  H   H5949     1.0  0.56306  0.49008  0.99796  1.0000
  C   C3364     1.0  0.73238  0.62304  0.14289  1.0000
  H   H5950     1.0  0.71868  0.52345  0.11688  1.0000
  C   C3365     1.0  0.70804  0.48238  0.12816  1.0000
  H   H5951     1.0  0.68744  0.55107  0.17311  1.0000
  H   H5952     1.0  0.72324  0.61408  0.14371  1.0000
  H   H5953     1.0  0.86962  0.86872  0.13246  1.0000
  H   H5954     1.0  0.98548  0.80750  0.03089  1.0000
  H   H5955     1.0  0.95689  0.92192  0.16679  1.0000
  H   H5956     1.0  0.88484  0.95297  0.98212  1.0000
  C   C3366     1.0  0.64844  0.56641  0.11039  1.0000
  H   H5957     1.0  0.94317  0.64358  0.10704  1.0000
  C   C3367     1.0  0.96660  0.69733  0.11162  1.0000
  H   H5958     1.0  0.70395  0.62301  0.00815  1.0000
  H   H5959     1.0  0.87553  0.53107  0.04144  1.0000
  N   N189      1.0  0.90284  0.52719  0.98854  1.0000
  S   S771      1.0  0.68381  0.61851  0.14547  1.0000
  H   H5960     1.0  0.68455  0.51348  0.09821  1.0000
  H   H5961     1.0  0.95902  0.68622  0.07729  1.0000
  H   H5962     1.0  0.82005  0.74583  0.10915  1.0000
  H   H5963     1.0  0.61708  0.51014  0.16787  1.0000
  C   C3368     1.0  0.97298  0.63037  0.08751  1.0000
  C   C3369     1.0  0.96051  0.64773  0.08079  1.0000
  N   N190      1.0  0.81494  0.56096  0.05971  1.0000
  C   C3370     1.0  0.81727  0.55538  0.04230  1.0000
  C   C3371     1.0  0.80284  0.57920  0.05896  1.0000
  C   C3372     1.0  0.83318  0.56101  0.06231  1.0000
  C   C3373     1.0  0.80642  0.54822  0.07532  1.0000
  C   C3374     1.0  0.78888  0.54408  0.07355  1.0000
  C   C3375     1.0  0.82795  0.53605  0.04150  1.0000
  C   C3376     1.0  0.83339  0.56840  0.07853  1.0000
  C   C3377     1.0  0.81033  0.59482  0.04544  1.0000
  C   C3378     1.0  0.79813  0.61276  0.04822  1.0000
  C   C3379     1.0  0.78165  0.53089  0.08997  1.0000
  C   C3380     1.0  0.82743  0.53081  0.02448  1.0000
  C   C3381     1.0  0.85254  0.56834  0.07931  1.0000
  H   H5964     1.0  0.82450  0.56437  0.03111  1.0000
  H   H5965     1.0  0.80406  0.55709  0.03881  1.0000
  H   H5966     1.0  0.79004  0.57923  0.05554  1.0000
  H   H5967     1.0  0.79883  0.58266  0.07231  1.0000
  H   H5968     1.0  0.84081  0.56849  0.05009  1.0000
  H   H5969     1.0  0.84136  0.54721  0.06418  1.0000
  H   H5970     1.0  0.81603  0.53537  0.07832  1.0000
  H   H5971     1.0  0.80298  0.55367  0.08768  1.0000
  H   H5972     1.0  0.79095  0.53812  0.06178  1.0000
  H   H5973     1.0  0.77843  0.55645  0.07232  1.0000
  H   H5974     1.0  0.84221  0.53495  0.04160  1.0000
  H   H5975     1.0  0.82249  0.52608  0.05282  1.0000
  H   H5976     1.0  0.82760  0.56009  0.09120  1.0000
  H   H5977     1.0  0.82567  0.58229  0.07778  1.0000
  H   H5978     1.0  0.82373  0.59530  0.04692  1.0000
  H   H5979     1.0  0.81133  0.59354  0.03158  1.0000
  H   H5980     1.0  0.80314  0.62371  0.03779  1.0000
  H   H5981     1.0  0.78422  0.61313  0.04744  1.0000
  H   H5982     1.0  0.76884  0.52859  0.08856  1.0000
  H   H5983     1.0  0.79132  0.51791  0.09142  1.0000
  H   H5984     1.0  0.77901  0.53629  0.10223  1.0000
  H   H5985     1.0  0.83321  0.54012  0.01266  1.0000
  H   H5986     1.0  0.83542  0.51710  0.02407  1.0000
  H   H5987     1.0  0.67844  0.97459  0.00442  1.0000
  H   H5988     1.0  0.86066  0.55453  0.08112  1.0000
  H   H5989     1.0  0.85901  0.57648  0.06687  1.0000
  H   H5990     1.0  0.85241  0.57418  0.09068  1.0000
  C   C3382     1.0  0.57737  0.49084  0.99573  1.0000
  H   H5991     1.0  0.98554  0.81128  0.11451  1.0000
  H   H5992     1.0  0.84431  0.97634  0.10426  1.0000
  C   C3383     1.0  0.63016  0.51674  0.14001  1.0000
  H   H5993     1.0  0.88900  0.89834  0.16491  1.0000
  H   H5994     1.0  0.65600  0.49437  0.09590  1.0000
  H   H5995     1.0  0.78248  0.72386  0.10131  1.0000
  H   H5996     1.0  0.82282  0.64956  0.11646  1.0000
  H   H5997     1.0  0.50269  0.90599  0.16489  1.0000
  H   H5998     1.0  0.65906  0.56942  0.09844  1.0000
  C   C3384     1.0  0.81138  0.67695  0.11963  1.0000
  C   C3385     1.0  0.94268  0.48596  0.99121  1.0000
  C   C3386     1.0  0.89931  0.97555  0.03122  1.0000
  C   C3387     1.0  0.70459  0.48477  0.02977  1.0000
  H   H5999     1.0  0.98243  0.62529  0.07604  1.0000
  H   H6000     1.0  0.94166  0.93524  0.98440  1.0000
  H   H6001     1.0  0.89247  0.64379  0.00935  1.0000
  H   H6002     1.0  0.69186  0.50016  0.07075  1.0000
  H   H6003     1.0  0.96400  0.90894  0.15031  1.0000
  C   C3388     1.0  0.80489  0.70811  0.07462  1.0000
  C   C3389     1.0  0.89990  0.95832  0.09007  1.0000
  C   C3390     1.0  0.71893  0.49364  0.03148  1.0000
  H   H6004     1.0  0.98945  0.92946  0.15665  1.0000
  H   H6005     1.0  0.96491  0.93020  0.00200  1.0000
  C   C3391     1.0  0.71676  0.64758  0.12089  1.0000
  H   H6006     1.0  0.90427  0.66805  0.12771  1.0000
  H   H6007     1.0  0.93530  0.68647  0.10690  1.0000
  H   H6008     1.0  0.75497  0.51678  0.97767  1.0000
  H   H6009     1.0  0.67950  0.49260  0.11141  1.0000
  H   H6010     1.0  0.93620  0.64867  0.98341  1.0000
  H   H6011     1.0  0.67076  0.96556  0.98958  1.0000
  H   H6012     1.0  0.70761  0.66087  0.11928  1.0000
  H   H6013     1.0  0.63309  0.55793  0.09661  1.0000
  H   H6014     1.0  0.91732  0.95292  0.97752  1.0000
  H   H6015     1.0  0.94193  0.51348  0.97837  1.0000
  H   H6016     1.0  0.87442  0.96975  0.07182  1.0000
  C   C3392     1.0  0.90918  0.97436  0.08546  1.0000
  C   C3393     1.0  0.98219  0.92554  0.14858  1.0000
  H   H6017     1.0  0.98232  0.78314  0.10919  1.0000
  H   H6018     1.0  0.97383  0.83016  0.02402  1.0000
  H   H6019     1.0  0.66253  0.53198  0.11505  1.0000
  H   H6020     1.0  0.78730  0.59666  0.00543  1.0000
  C   C3394     1.0  0.68751  0.50216  0.14665  1.0000
  Fe  Fe382     1.0  0.64357  0.54931  0.98569  1.0000
  H   H6021     1.0  0.76661  0.61520  0.16533  1.0000
  H   H6022     1.0  0.70760  0.48276  0.01588  1.0000
  H   H6023     1.0  0.97259  0.91888  0.98355  1.0000
  C   C3395     1.0  0.81929  0.70792  0.04200  1.0000
  H   H6024     1.0  0.75104  0.59222  0.17577  1.0000
  H   H6025     1.0  0.86595  0.88434  0.15833  1.0000
  C   C3396     1.0  0.81583  0.68552  0.09943  1.0000
  H   H6026     1.0  0.90801  0.49836  0.99551  1.0000
  C   C3397     1.0  0.90274  0.66553  0.01212  1.0000
  C   C3398     1.0  0.64403  0.50763  0.12567  1.0000
  C   C3399     1.0  0.81771  0.71738  0.09478  1.0000
  H   H6027     1.0  0.70852  0.97205  0.98597  1.0000
  H   H6028     1.0  0.77807  0.65938  0.14664  1.0000
  H   H6029     1.0  0.59406  0.52533  0.09734  1.0000
  C   C3400     1.0  0.70235  0.60476  0.99311  1.0000
  C   C3401     1.0  0.88396  0.54399  0.01369  1.0000
  H   H6030     1.0  0.78245  0.63876  0.16243  1.0000
  H   H6031     1.0  0.78809  0.63890  0.13875  1.0000
  C   C3402     1.0  0.82746  0.62212  0.99624  1.0000
  H   H6032     1.0  0.74277  0.62153  0.13063  1.0000
  H   H6033     1.0  0.73049  0.59321  0.16997  1.0000
  H   H6034     1.0  0.69144  0.59903  0.00303  1.0000
  H   H6035     1.0  0.64064  0.49473  0.12611  1.0000
  H   H6036     1.0  0.86994  0.84514  0.13787  1.0000
  H   H6037     1.0  0.87347  0.67193  0.01692  1.0000
  H   H6038     1.0  0.90989  0.97784  0.09793  1.0000
  C   C3403     1.0  0.65992  0.50715  0.09483  1.0000
  H   H6039     1.0  0.97864  0.81437  0.00972  1.0000
  H   H6040     1.0  0.81344  0.53103  0.02400  1.0000
  N   N191      1.0  0.73237  0.60185  0.02680  1.0000
  C   C3404     1.0  0.73602  0.58631  0.04202  1.0000
  C   C3405     1.0  0.72168  0.61833  0.03384  1.0000
  C   C3406     1.0  0.72109  0.59682  0.01679  1.0000
  C   C3407     1.0  0.74938  0.60554  0.01396  1.0000
  C   C3408     1.0  0.76335  0.61022  0.02155  1.0000
  C   C3409     1.0  0.74694  0.56840  0.03689  1.0000
  H   H6041     1.0  0.60915  0.51818  0.07783  1.0000
  C   C3410     1.0  0.72553  0.62105  0.05110  1.0000
  C   C3411     1.0  0.71554  0.63926  0.05525  1.0000
  C   C3412     1.0  0.78104  0.61031  0.00791  1.0000
  C   C3413     1.0  0.74742  0.55339  0.05345  1.0000
  H   H6042     1.0  0.90762  0.94786  0.09905  1.0000
  H   H6043     1.0  0.72312  0.58373  0.05086  1.0000
  H   H6044     1.0  0.74335  0.58935  0.05069  1.0000
  H   H6045     1.0  0.72319  0.63055  0.02331  1.0000
  H   H6046     1.0  0.70710  0.61818  0.03722  1.0000
  H   H6047     1.0  0.70969  0.59148  0.02633  1.0000
  H   H6048     1.0  0.72894  0.58594  0.00981  1.0000
  H   H6049     1.0  0.75613  0.59399  0.00763  1.0000
  H   H6050     1.0  0.74638  0.61681  0.00277  1.0000
  H   H6051     1.0  0.76625  0.60050  0.03379  1.0000
  H   H6052     1.0  0.75847  0.62383  0.02445  1.0000
  H   H6053     1.0  0.74103  0.56411  0.02787  1.0000
  H   H6054     1.0  0.76093  0.56958  0.03029  1.0000
  H   H6055     1.0  0.56768  0.52482  0.01967  1.0000
  H   H6056     1.0  0.84834  0.51102  0.99078  1.0000
  H   H6057     1.0  0.72077  0.61078  0.06254  1.0000
  H   H6058     1.0  0.73992  0.61990  0.05039  1.0000
  H   H6059     1.0  0.71826  0.64062  0.06785  1.0000
  H   H6060     1.0  0.72004  0.65016  0.04436  1.0000
  H   H6061     1.0  0.70087  0.64056  0.05699  1.0000
  H   H6062     1.0  0.66160  0.53865  0.09215  1.0000
  H   H6063     1.0  0.71858  0.50669  0.02193  1.0000
  C   C3414     1.0  0.87458  0.85583  0.14108  1.0000
  H   H6064     1.0  0.73381  0.55049  0.05922  1.0000
  H   H6065     1.0  0.75657  0.54108  0.04977  1.0000
  H   H6066     1.0  0.75212  0.55715  0.06373  1.0000
  H   H6067     1.0  0.95702  0.48423  0.99148  1.0000
  H   H6068     1.0  0.96198  0.95023  0.14706  1.0000
  H   H6069     1.0  0.98226  0.95118  0.13033  1.0000
  C   C3415     1.0  0.75950  0.64221  0.15040  1.0000
  H   H6070     1.0  0.92785  0.97127  0.02878  1.0000
  H   H6071     1.0  0.74833  0.69311  0.11578  1.0000
  H   H6072     1.0  0.89193  0.58514  0.01608  1.0000
  H   H6073     1.0  0.73246  0.48513  0.02841  1.0000
  C   C3416     1.0  0.65331  0.53489  0.10563  1.0000
  Fe  Fe383     1.0  0.95537  0.55524  0.99780  1.0000
  C   C3417     1.0  0.87539  0.91194  0.12002  1.0000
  S   S772      1.0  0.98682  0.63823  0.03740  1.0000
  C   C3418     1.0  0.61939  0.50795  0.10237  1.0000
  H   H6074     1.0  0.92708  0.65749  0.12955  1.0000
  H   H6075     1.0  0.95392  0.64503  0.07134  1.0000
  C   C3419     1.0  0.67923  0.50178  0.09834  1.0000
  C   C3420     1.0  0.94670  0.69361  0.07238  1.0000
  Fe  Fe384     1.0  0.89533  0.75485  0.14751  1.0000
  C   C3421     1.0  0.91869  0.64729  0.08054  1.0000
  C   C3422     1.0  0.95201  0.70270  0.05287  1.0000
  H   H6076     1.0  0.96893  0.65751  0.07303  1.0000
  C   C3423     1.0  0.96845  0.93219  0.98720  1.0000
  H   H6077     1.0  0.96129  0.71154  0.05175  1.0000
  H   H6078     1.0  0.95894  0.69262  0.04453  1.0000
  H   H6079     1.0  0.93999  0.71094  0.04777  1.0000
  H   H6080     1.0  0.92255  0.65418  0.06650  1.0000
  H   H6081     1.0  0.66182  0.53971  0.17639  1.0000
  H   H6082     1.0  0.67043  0.63755  0.17427  1.0000
  H   H6083     1.0  0.91315  0.69149  0.10313  1.0000
  C   C3424     1.0  0.92592  0.94974  0.14095  1.0000
  C   C3425     1.0  0.87451  0.94379  0.10227  1.0000
  H   H6084     1.0  0.90272  0.66185  0.02659  1.0000
  H   H6085     1.0  0.88945  0.85285  0.13796  1.0000
  H   H6086     1.0  0.88361  0.69014  0.01584  1.0000
  H   H6087     1.0  0.86885  0.51740  0.00574  1.0000
  S   S773      1.0  0.92360  0.97037  0.14683  1.0000
  H   H6088     1.0  0.89071  0.65174  0.07882  1.0000
  H   H6089     1.0  0.76946  0.70597  0.09011  1.0000
  H   H6090     1.0  0.76782  0.58903  0.14466  1.0000
  C   C3426     1.0  0.64585  0.48866  0.05596  1.0000
  H   H6091     1.0  0.84529  0.96621  0.08611  1.0000
  H   H6092     1.0  0.61367  0.50336  0.11670  1.0000
  H   H6093     1.0  0.94184  0.61879  0.05262  1.0000
  H   H6094     1.0  0.98081  0.63272  0.09619  1.0000
  H   H6095     1.0  0.75611  0.64863  0.13716  1.0000
  N   N192      1.0  0.80669  0.70476  0.09382  1.0000
  H   H6096     1.0  0.98389  0.59100  0.06225  1.0000
  C   C3427     1.0  0.77821  0.64490  0.14950  1.0000
  C   C3428     1.0  0.72070  0.64217  0.13966  1.0000
  H   H6097     1.0  0.87261  0.78659  0.16265  1.0000
  C   C3429     1.0  0.56608  0.51229  0.01699  1.0000
  H   H6098     1.0  0.67781  0.94284  0.01585  1.0000
  C   C3430     1.0  0.93366  0.50569  0.98962  1.0000
  H   H6099     1.0  0.91735  0.93614  0.16790  1.0000
  H   H6100     1.0  0.92920  0.63533  0.08377  1.0000
  C   C3431     1.0  0.94613  0.96169  0.98424  1.0000
  C   C3432     1.0  0.63944  0.55234  0.10842  1.0000
  H   H6101     1.0  0.81973  0.65302  0.13866  1.0000
  C   C3433     1.0  0.94786  0.64831  0.00555  1.0000
  H   H6102     1.0  0.70045  0.94622  0.01055  1.0000
  H   H6103     1.0  0.75024  0.64918  0.16072  1.0000
  H   H6104     1.0  0.71873  0.53479  0.16256  1.0000
  H   H6105     1.0  0.79047  0.61501  0.01298  1.0000
  H   H6106     1.0  0.70767  0.64262  0.14935  1.0000
  C   C3434     1.0  0.52223  0.97672  0.98390  1.0000
  H   H6107     1.0  0.84194  0.73239  0.10249  1.0000
  C   C3435     1.0  0.71158  0.51287  0.12389  1.0000
  C   C3436     1.0  0.87368  0.51647  0.99152  1.0000
  H   H6108     1.0  0.88764  0.96164  0.12267  1.0000
  H   H6109     1.0  0.65688  0.50395  0.13033  1.0000
  H   H6110     1.0  0.76212  0.69259  0.13088  1.0000
  C   C3437     1.0  0.87016  0.97434  0.08469  1.0000
  H   H6111     1.0  0.92993  0.59885  0.03062  1.0000
  H   H6112     1.0  0.95521  0.66071  0.10272  1.0000
  C   C3438     1.0  0.84132  0.59098  0.99612  1.0000
  H   H6113     1.0  0.76751  0.61712  0.14249  1.0000
  N   N193      1.0  0.93055  0.66874  0.09265  1.0000
  H   H6114     1.0  0.76379  0.56193  0.16783  1.0000
  C   C3439     1.0  0.88496  0.67845  0.00992  1.0000
  H   H6115     1.0  0.91205  0.67442  0.15322  1.0000
  C   C3440     1.0  0.82376  0.65891  0.12429  1.0000
  H   H6116     1.0  0.62180  0.49228  0.15611  1.0000
  H   H6117     1.0  0.78821  0.70667  0.11919  1.0000
  C   C3441     1.0  0.89833  0.58170  0.02740  1.0000
  C   C3442     1.0  0.91520  0.57028  0.02672  1.0000
  C   C3443     1.0  0.91548  0.65977  0.09373  1.0000
  H   H6118     1.0  0.75134  0.71379  0.11903  1.0000
  H   H6119     1.0  0.79780  0.69837  0.07292  1.0000
  C   C3444     1.0  0.96896  0.91339  0.16007  1.0000
  H   H6120     1.0  0.69627  0.61580  0.98323  1.0000
  H   H6121     1.0  0.70588  0.48889  0.08670  1.0000
  H   H6122     1.0  0.81178  0.73133  0.08875  1.0000
  H   H6123     1.0  0.51931  0.93100  0.12118  1.0000
  S   S774      1.0  0.80944  0.54803  0.98626  1.0000
  C   C3445     1.0  0.92547  0.91814  0.14982  1.0000
  C   C3446     1.0  0.92083  0.62780  0.02652  1.0000
  C   C3447     1.0  0.88177  0.96488  0.98816  1.0000
  C   C3448     1.0  0.96612  0.88292  0.17635  1.0000
  S   S775      1.0  0.92533  0.56173  0.00733  1.0000
  H   H6124     1.0  0.63840  0.57895  0.11183  1.0000
  H   H6125     1.0  0.83060  0.68404  0.09514  1.0000
  C   C3449     1.0  0.75912  0.62213  0.15452  1.0000
  H   H6126     1.0  0.60004  0.48666  0.03084  1.0000
  C   C3450     1.0  0.93456  0.61047  0.03169  1.0000
  H   H6127     1.0  0.82979  0.70485  0.11810  1.0000
  C   C3451     1.0  0.51092  0.94468  0.12049  1.0000
  H   H6128     1.0  0.96608  0.88012  0.16327  1.0000
  H   H6129     1.0  0.91315  0.95943  0.99838  1.0000
  H   H6130     1.0  0.72883  0.49370  0.10859  1.0000
  N   N194      1.0  0.74095  0.61732  0.15903  1.0000
  N   N195      1.0  0.93237  0.81075  0.06206  1.0000
  C   C3452     1.0  0.92579  0.79787  0.05540  1.0000
  C   C3453     1.0  0.95139  0.81197  0.05248  1.0000
  C   C3454     1.0  0.93244  0.80332  0.08163  1.0000
  C   C3455     1.0  0.92021  0.82899  0.06038  1.0000
  C   C3456     1.0  0.91745  0.83873  0.04142  1.0000
  C   C3457     1.0  0.90638  0.79532  0.06408  1.0000
  C   C3458     1.0  0.94103  0.81322  0.09075  1.0000
  C   C3459     1.0  0.95690  0.81043  0.03259  1.0000
  H   H6131     1.0  0.72932  0.64834  0.11070  1.0000
  C   C3460     1.0  0.90258  0.85545  0.04206  1.0000
  C   C3461     1.0  0.90108  0.78267  0.05564  1.0000
  C   C3462     1.0  0.94067  0.80421  0.11032  1.0000
  H   H6132     1.0  0.93485  0.78445  0.05742  1.0000
  H   H6133     1.0  0.92633  0.80190  0.04085  1.0000
  H   H6134     1.0  0.95429  0.82466  0.05345  1.0000
  H   H6135     1.0  0.96113  0.80110  0.05914  1.0000
  H   H6136     1.0  0.93956  0.78906  0.08366  1.0000
  H   H6137     1.0  0.91861  0.80336  0.08948  1.0000
  H   H6138     1.0  0.90687  0.82828  0.06916  1.0000
  H   H6139     1.0  0.92537  0.83824  0.06527  1.0000
  H   H6140     1.0  0.91365  0.83017  0.03454  1.0000
  H   H6141     1.0  0.92989  0.84316  0.03345  1.0000
  H   H6142     1.0  0.90505  0.78946  0.07853  1.0000
  H   H6143     1.0  0.89658  0.80816  0.06231  1.0000
  H   H6144     1.0  0.93373  0.82723  0.09044  1.0000
  H   H6145     1.0  0.95518  0.81330  0.08412  1.0000
  H   H6146     1.0  0.95839  0.79634  0.03161  1.0000
  H   H6147     1.0  0.94692  0.81882  0.02473  1.0000
  C   C3463     1.0  0.90505  0.64903  0.00402  1.0000
  C   C3464     1.0  0.68515  0.61212  0.16815  1.0000
  C   C3465     1.0  0.91255  0.54202  0.97845  1.0000
  H   H6148     1.0  0.90143  0.86276  0.02830  1.0000
  H   H6149     1.0  0.88953  0.85176  0.04908  1.0000
  H   H6150     1.0  0.90550  0.86451  0.04908  1.0000
  H   H6151     1.0  0.90139  0.78821  0.04122  1.0000
  H   H6152     1.0  0.91024  0.76937  0.05736  1.0000
  H   H6153     1.0  0.88723  0.78093  0.06229  1.0000
  H   H6154     1.0  0.94762  0.81103  0.11626  1.0000
  H   H6155     1.0  0.92664  0.80515  0.11793  1.0000
  H   H6156     1.0  0.94750  0.78993  0.11159  1.0000
  S   S776      1.0  0.97414  0.84488  0.06169  1.0000
  C   C3466     1.0  0.74367  0.59723  0.16465  1.0000
  H   H6157     1.0  0.93024  0.68423  0.13875  1.0000
  H   H6158     1.0  0.83231  0.73179  0.12574  1.0000
  H   H6159     1.0  0.89685  0.92559  0.11443  1.0000
  H   H6160     1.0  0.94012  0.70437  0.08000  1.0000
  C   C3467     1.0  0.82921  0.73280  0.11257  1.0000
  H   H6161     1.0  0.74710  0.59002  0.13864  1.0000
  C   C3468     1.0  0.75408  0.58650  0.14993  1.0000
  C   C3469     1.0  0.96376  0.65520  0.99255  1.0000
  H   H6162     1.0  0.72381  0.61719  0.99177  1.0000
  H   H6163     1.0  0.86434  0.96356  0.12475  1.0000
  H   H6164     1.0  0.87780  0.93350  0.13029  1.0000
  H   H6165     1.0  0.90437  0.63155  0.07257  1.0000
  H   H6166     1.0  0.88855  0.92725  0.17205  1.0000
  C   C3470     1.0  0.78806  0.70926  0.10481  1.0000
  C   C3471     1.0  0.89831  0.52779  0.00812  1.0000
  H   H6167     1.0  0.63973  0.49783  0.16257  1.0000
  C   C3472     1.0  0.62703  0.50341  0.15769  1.0000
  C   C3473     1.0  0.88207  0.92911  0.11735  1.0000
  H   H6168     1.0  0.85264  0.85867  0.16329  1.0000
  H   H6169     1.0  0.98077  0.81511  0.09268  1.0000
  H   H6170     1.0  0.93553  0.98054  0.07354  1.0000
  C   C3474     1.0  0.68253  0.96573  0.99465  1.0000
  C   C3475     1.0  0.92233  0.93488  0.15418  1.0000
  H   H6171     1.0  0.83782  0.66044  0.12169  1.0000
  C   C3476     1.0  0.94713  0.65513  0.09666  1.0000
  H   H6172     1.0  0.62873  0.55019  0.12039  1.0000
  H   H6173     1.0  0.79653  0.72161  0.07075  1.0000
  H   H6174     1.0  0.92253  0.90678  0.16013  1.0000
  H   H6175     1.0  0.92085  0.68970  0.07172  1.0000
  H   H6176     1.0  0.87881  0.90714  0.10732  1.0000
  H   H6177     1.0  0.55186  0.51374  0.01640  1.0000
  H   H6178     1.0  0.96654  0.93930  0.12838  1.0000
  H   H6179     1.0  0.90741  0.62520  0.03389  1.0000
  H   H6180     1.0  0.86066  0.91416  0.12493  1.0000
  H   H6181     1.0  0.81089  0.72107  0.03734  1.0000
  H   H6182     1.0  0.87140  0.55513  0.03733  1.0000
  H   H6183     1.0  0.50499  0.94312  0.14879  1.0000
  H   H6184     1.0  0.69270  0.93718  0.99578  1.0000
  H   H6185     1.0  0.59718  0.50279  0.09447  1.0000
  C   C3477     1.0  0.84942  0.97698  0.08975  1.0000
  H   H6186     1.0  0.97082  0.66064  0.99973  1.0000
  C   C3478     1.0  0.91444  0.50918  0.98628  1.0000
  H   H6187     1.0  0.77004  0.52296  0.99822  1.0000
  H   H6188     1.0  0.64037  0.49606  0.06694  1.0000
  H   H6189     1.0  0.76268  0.55916  0.14627  1.0000
  C   C3479     1.0  0.95234  0.94309  0.97915  1.0000
  C   C3480     1.0  0.87314  0.87172  0.16570  1.0000
  C   C3481     1.0  0.71737  0.49603  0.11928  1.0000
  C   C3482     1.0  0.92843  0.96967  0.07513  1.0000
  C   C3483     1.0  0.69315  0.48545  0.14188  1.0000
  H   H6190     1.0  0.90345  0.63201  0.97899  1.0000
  H   H6191     1.0  0.88056  0.96050  0.00282  1.0000
  H   H6192     1.0  0.71644  0.49615  0.04515  1.0000
  C   C3484     1.0  0.91480  0.96468  0.98369  1.0000
  H   H6193     1.0  0.93593  0.95716  0.08221  1.0000
  C   C3485     1.0  0.86745  0.85648  0.16082  1.0000
  H   H6194     1.0  0.74239  0.56306  0.16276  1.0000
  C   C3486     1.0  0.98660  0.60179  0.01013  1.0000
  H   H6195     1.0  0.79151  0.51793  0.98373  1.0000
  C   C3487     1.0  0.75581  0.56644  0.15723  1.0000
  C   C3488     1.0  0.72850  0.62510  0.17437  1.0000
  C   C3489     1.0  0.93834  0.63948  0.99626  1.0000
  H   H6196     1.0  0.50387  0.94797  0.10922  1.0000
  H   H6197     1.0  0.98889  0.78737  0.07771  1.0000
  C   C3490     1.0  0.97257  0.94260  0.13799  1.0000
  H   H6198     1.0  0.69967  0.58544  0.16666  1.0000
  H   H6199     1.0  0.55520  0.97603  0.98924  1.0000
  C   C3491     1.0  0.97483  0.81595  0.02381  1.0000
  C   C3492     1.0  0.60400  0.51401  0.09238  1.0000
  H   H6200     1.0  0.95807  0.96781  0.98008  1.0000
  H   H6201     1.0  0.49295  0.91988  0.14066  1.0000
  H   H6202     1.0  0.98115  0.89100  0.01301  1.0000
  H   H6203     1.0  0.57420  0.52035  0.98873  1.0000
  N   N196      1.0  0.58743  0.48687  0.97777  1.0000
  C   C3493     1.0  0.49740  0.94614  0.13802  1.0000
  H   H6204     1.0  0.94847  0.62768  0.99235  1.0000
  H   H6205     1.0  0.90391  0.55522  0.98019  1.0000
  H   H6206     1.0  0.90544  0.65441  0.98954  1.0000
  H   H6207     1.0  0.97341  0.64417  0.98678  1.0000
  Fe  Fe385     1.0  0.91646  0.96718  0.17682  1.0000
  H   H6208     1.0  0.88437  0.68329  0.99559  1.0000
  H   H6209     1.0  0.84974  0.53420  0.98354  1.0000
  C   C3494     1.0  0.69772  0.97189  0.97939  1.0000
  H   H6210     1.0  0.63261  0.53368  0.17557  1.0000
  H   H6211     1.0  0.65363  0.59859  0.98085  1.0000
  C   C3495     1.0  0.71951  0.52885  0.17673  1.0000
  H   H6212     1.0  0.93546  0.87490  0.17040  1.0000
  H   H6213     1.0  0.86721  0.92669  0.16836  1.0000
  C   C3496     1.0  0.71867  0.55255  0.98299  1.0000
  Fe  Fe386     1.0  0.98917  0.57044  0.98282  1.0000
  H   H6214     1.0  0.82222  0.60658  0.98009  1.0000
  H   H6215     1.0  0.90479  0.59956  0.98369  1.0000
  H   H6216     1.0  0.51360  0.97158  0.97819  1.0000
  H   H6217     1.0  0.98668  0.72293  0.11829  1.0000
  H   H6218     1.0  0.98819  0.90658  0.02142  1.0000
  H   H6219     1.0  0.98859  0.88408  0.03396  1.0000
  S   S777      1.0  0.89603  0.75378  0.17612  1.0000
  C   C3497     1.0  0.87279  0.78638  0.17631  1.0000
  N   N197      1.0  0.93042  0.97407  0.97695  1.0000
  H   H6220     1.0  0.81810  0.75143  0.22045  1.0000
  S   S778      1.0  0.71751  0.76956  0.32111  1.0000
  Fe  Fe387     1.0  0.71087  0.72221  0.32233  1.0000
  S   S779      1.0  0.71692  0.74179  0.29667  1.0000
  S   S780      1.0  0.70414  0.69525  0.32513  1.0000
  Fe  Fe388     1.0  0.73697  0.74754  0.30916  1.0000
  S   S781      1.0  0.76560  0.74898  0.29476  1.0000
  Fe  Fe389     1.0  0.69702  0.76193  0.31120  1.0000
  S   S782      1.0  0.67385  0.78163  0.30116  1.0000
  S   S783      1.0  0.73249  0.72625  0.33393  1.0000
  C   C3498     1.0  0.56346  0.52073  0.31207  1.0000
  C   C3499     1.0  0.94522  0.98097  0.25271  1.0000
  H   H6221     1.0  0.95055  0.87632  0.31023  1.0000
  S   S784      1.0  0.54812  0.86360  0.33920  1.0000
  S   S785      1.0  0.58060  0.81838  0.35408  1.0000
  Fe  Fe390     1.0  0.84169  0.85113  0.25755  1.0000
  S   S786      1.0  0.86613  0.83244  0.24634  1.0000
  S   S787      1.0  0.83882  0.88094  0.25277  1.0000
  Fe  Fe391     1.0  0.82184  0.82068  0.27674  1.0000
  S   S788      1.0  0.84491  0.79981  0.26695  1.0000
  S   S789      1.0  0.79573  0.81580  0.29515  1.0000
  Fe  Fe392     1.0  0.86164  0.81534  0.27387  1.0000
  S   S790      1.0  0.88355  0.80285  0.28945  1.0000
  Fe  Fe393     1.0  0.84686  0.81936  0.24061  1.0000
  S   S791      1.0  0.84729  0.81701  0.21270  1.0000
  S   S792      1.0  0.83846  0.83477  0.28527  1.0000
  S   S793      1.0  0.82254  0.83925  0.25013  1.0000
  Fe  Fe394     1.0  0.89891  0.86245  0.35044  1.0000
  S   S794      1.0  0.87997  0.88573  0.33813  1.0000
  S   S795      1.0  0.91139  0.83826  0.33799  1.0000
  Fe  Fe395     1.0  0.89572  0.90225  0.34478  1.0000
  S   S796      1.0  0.90168  0.92698  0.32431  1.0000
  H   H6222     1.0  0.50959  0.88944  0.19408  1.0000
  C   C3500     1.0  0.49914  0.66012  0.31653  1.0000
  C   C3501     1.0  0.97343  0.90266  0.19139  1.0000
  S   S797      1.0  0.51757  0.53998  0.34472  1.0000
  H   H6223     1.0  0.71650  0.79777  0.35702  1.0000
  H   H6224     1.0  0.61171  0.55626  0.27976  1.0000
  H   H6225     1.0  0.49333  0.88053  0.31536  1.0000
  H   H6226     1.0  0.66700  0.52078  0.19309  1.0000
  H   H6227     1.0  0.93938  0.90016  0.18159  1.0000
  S   S798      1.0  0.58093  0.53170  0.27731  1.0000
  S   S799      1.0  0.65275  0.51149  0.31308  1.0000
  S   S800      1.0  0.63244  0.51941  0.26844  1.0000
  Fe  Fe396     1.0  0.67999  0.61455  0.24514  1.0000
  S   S801      1.0  0.65475  0.60867  0.26397  1.0000
  S   S802      1.0  0.69352  0.59672  0.22542  1.0000
  Fe  Fe397     1.0  0.68283  0.64258  0.26417  1.0000
  S   S803      1.0  0.65840  0.63813  0.28514  1.0000
  S   S804      1.0  0.69682  0.66537  0.26078  1.0000
  Fe  Fe398     1.0  0.66876  0.60884  0.28502  1.0000
  S   S805      1.0  0.66634  0.58784  0.31034  1.0000
  Fe  Fe399     1.0  0.64627  0.63818  0.26247  1.0000
  S   S806      1.0  0.61816  0.65297  0.25985  1.0000
  S   S807      1.0  0.69471  0.61318  0.26638  1.0000
  S   S808      1.0  0.67020  0.64419  0.24119  1.0000
  H   H6228     1.0  0.67379  0.62923  0.20594  1.0000
  H   H6229     1.0  0.57484  0.50983  0.31331  1.0000
  H   H6230     1.0  0.79041  0.83924  0.22762  1.0000
  Fe  Fe400     1.0  0.52280  0.74364  0.32339  1.0000
  S   S809      1.0  0.54385  0.73534  0.30033  1.0000
  S   S810      1.0  0.52107  0.77101  0.32800  1.0000
  Fe  Fe401     1.0  0.50847  0.70955  0.33203  1.0000
  S   S811      1.0  0.52883  0.69867  0.30976  1.0000
  H   H6231     1.0  0.78453  0.83059  0.21142  1.0000
  Fe  Fe402     1.0  0.54814  0.70870  0.31881  1.0000
  S   S812      1.0  0.57447  0.69108  0.32340  1.0000
  Fe  Fe403     1.0  0.52207  0.72627  0.29370  1.0000
  S   S813      1.0  0.51943  0.73044  0.26519  1.0000
  S   S814      1.0  0.52851  0.71752  0.34242  1.0000
  H   H6232     1.0  0.57781  0.72714  0.35296  1.0000
  C   C3502     1.0  0.98652  0.96208  0.26808  1.0000
  C   C3503     1.0  0.94638  0.88639  0.18647  1.0000
  Fe  Fe404     1.0  0.92878  0.96357  0.21149  1.0000
  S   S815      1.0  0.90445  0.95369  0.22808  1.0000
  S   S816      1.0  0.94940  0.96160  0.22735  1.0000
  Fe  Fe405     1.0  0.90835  0.93738  0.20776  1.0000
  S   S817      1.0  0.91015  0.90791  0.21342  1.0000
  H   H6233     1.0  0.90011  0.97540  0.26685  1.0000
  C   C3504     1.0  0.53716  0.59237  0.34563  1.0000
  S   S818      1.0  0.93401  0.94535  0.19253  1.0000
  H   H6234     1.0  0.49715  0.66410  0.23489  1.0000
  H   H6235     1.0  0.98701  0.93047  0.21097  1.0000
  H   H6236     1.0  0.73037  0.63455  0.29390  1.0000
  H   H6237     1.0  0.57012  0.65481  0.33592  1.0000
  C   C3505     1.0  0.68779  0.85453  0.36604  1.0000
  H   H6238     1.0  0.85313  0.75620  0.17882  1.0000
  H   H6239     1.0  0.52650  0.83759  0.35935  1.0000
  H   H6240     1.0  0.92242  0.87572  0.19262  1.0000
  H   H6241     1.0  0.94043  0.96993  0.26227  1.0000
  H   H6242     1.0  0.84295  0.74045  0.19668  1.0000
  H   H6243     1.0  0.85373  0.81126  0.17729  1.0000
  C   C3506     1.0  0.50053  0.87115  0.32493  1.0000
  H   H6244     1.0  0.50959  0.73393  0.23230  1.0000
  C   C3507     1.0  0.60556  0.66319  0.27769  1.0000
  C   C3508     1.0  0.61093  0.65854  0.29403  1.0000
  C   C3509     1.0  0.60103  0.66689  0.30808  1.0000
  C   C3510     1.0  0.58580  0.68018  0.30584  1.0000
  C   C3511     1.0  0.58010  0.68472  0.28964  1.0000
  C   C3512     1.0  0.58995  0.67615  0.27559  1.0000
  H   H6245     1.0  0.62267  0.64847  0.29598  1.0000
  H   H6246     1.0  0.60542  0.66326  0.32062  1.0000
  H   H6247     1.0  0.56829  0.69500  0.28783  1.0000
  H   H6248     1.0  0.58564  0.67978  0.26300  1.0000
  C   C3513     1.0  0.65548  0.53334  0.31135  1.0000
  C   C3514     1.0  0.65518  0.53853  0.32702  1.0000
  C   C3515     1.0  0.65837  0.55529  0.32640  1.0000
  C   C3516     1.0  0.66210  0.56707  0.31008  1.0000
  C   C3517     1.0  0.66237  0.56198  0.29427  1.0000
  C   C3518     1.0  0.65896  0.54513  0.29493  1.0000
  H   H6249     1.0  0.65256  0.52952  0.33975  1.0000
  H   H6250     1.0  0.65818  0.55906  0.33865  1.0000
  H   H6251     1.0  0.66551  0.57085  0.28157  1.0000
  H   H6252     1.0  0.65946  0.54110  0.28278  1.0000
  C   C3519     1.0  0.53463  0.53720  0.32560  1.0000
  C   C3520     1.0  0.56275  0.53271  0.29573  1.0000
  C   C3521     1.0  0.54773  0.54659  0.29426  1.0000
  C   C3522     1.0  0.53378  0.54891  0.30914  1.0000
  H   H6253     1.0  0.54694  0.55564  0.28157  1.0000
  H   H6254     1.0  0.52242  0.55975  0.30783  1.0000
  C   C3523     1.0  0.54841  0.59250  0.29374  1.0000
  H   H6255     1.0  0.73053  0.86441  0.35437  1.0000
  C   C3524     1.0  0.49614  0.67530  0.32351  1.0000
  H   H6256     1.0  0.81984  0.80050  0.20920  1.0000
  C   C3525     1.0  0.90621  0.83230  0.20344  1.0000
  H   H6257     1.0  0.89800  0.86698  0.18577  1.0000
  H   H6258     1.0  0.51741  0.60940  0.26415  1.0000
  H   H6259     1.0  0.98194  0.93346  0.32231  1.0000
  C   C3526     1.0  0.96232  0.93396  0.27747  1.0000
  H   H6260     1.0  0.53597  0.88443  0.36992  1.0000
  C   C3527     1.0  0.91683  0.93823  0.32745  1.0000
  C   C3528     1.0  0.91608  0.95630  0.31930  1.0000
  H   H6261     1.0  0.68053  0.78247  0.33493  1.0000
  C   C3529     1.0  0.70095  0.52697  0.18797  1.0000
  H   H6262     1.0  0.77915  0.80954  0.33563  1.0000
  H   H6263     1.0  0.76626  0.77744  0.36299  1.0000
  H   H6264     1.0  0.75883  0.77955  0.25800  1.0000
  C   C3530     1.0  0.86205  0.80004  0.20242  1.0000
  C   C3531     1.0  0.87294  0.78591  0.21181  1.0000
  C   C3532     1.0  0.88352  0.77187  0.20353  1.0000
  H   H6265     1.0  0.98635  0.90717  0.21944  1.0000
  C   C3533     1.0  0.49386  0.64461  0.32723  1.0000
  C   C3534     1.0  0.86213  0.80034  0.18462  1.0000
  H   H6266     1.0  0.87301  0.78564  0.22550  1.0000
  H   H6267     1.0  0.89174  0.76079  0.21089  1.0000
  C   C3535     1.0  0.82548  0.77501  0.23764  1.0000
  H   H6268     1.0  0.93426  0.94483  0.28760  1.0000
  C   C3536     1.0  0.88968  0.81339  0.30356  1.0000
  C   C3537     1.0  0.87957  0.82932  0.30879  1.0000
  C   C3538     1.0  0.88559  0.83702  0.31990  1.0000
  C   C3539     1.0  0.90196  0.82906  0.32528  1.0000
  C   C3540     1.0  0.91185  0.81323  0.31998  1.0000
  C   C3541     1.0  0.90567  0.80538  0.30944  1.0000
  H   H6269     1.0  0.86719  0.83566  0.30434  1.0000
  H   H6270     1.0  0.87771  0.84911  0.32415  1.0000
  H   H6271     1.0  0.92444  0.80693  0.32409  1.0000
  H   H6272     1.0  0.91357  0.79311  0.30553  1.0000
  C   C3542     1.0  0.85863  0.88867  0.24215  1.0000
  C   C3543     1.0  0.87493  0.87662  0.23920  1.0000
  C   C3544     1.0  0.89055  0.88269  0.22993  1.0000
  C   C3545     1.0  0.89013  0.90097  0.22424  1.0000
  C   C3546     1.0  0.87401  0.91321  0.22767  1.0000
  C   C3547     1.0  0.85820  0.90703  0.23647  1.0000
  H   H6273     1.0  0.87564  0.86262  0.24431  1.0000
  H   H6274     1.0  0.90305  0.87320  0.22752  1.0000
  H   H6275     1.0  0.87367  0.92740  0.22340  1.0000
  H   H6276     1.0  0.84565  0.91647  0.23887  1.0000
  N   N198      1.0  0.98829  0.94545  0.28254  1.0000
  H   H6277     1.0  0.85537  0.89957  0.18133  1.0000
  C   C3548     1.0  0.51931  0.84705  0.34985  1.0000
  C   C3549     1.0  0.52705  0.86078  0.33809  1.0000
  C   C3550     1.0  0.51766  0.87277  0.32557  1.0000
  C   C3551     1.0  0.81694  0.76575  0.21374  1.0000
  H   H6278     1.0  0.52362  0.88339  0.31641  1.0000
  H   H6279     1.0  0.94238  0.92221  0.29875  1.0000
  H   H6280     1.0  0.56493  0.61145  0.33458  1.0000
  H   H6281     1.0  0.70853  0.63000  0.20759  1.0000
  C   C3552     1.0  0.53459  0.78980  0.34413  1.0000
  C   C3553     1.0  0.53197  0.77299  0.34397  1.0000
  H   H6282     1.0  0.74588  0.65920  0.34874  1.0000
  C   C3554     1.0  0.81418  0.75940  0.37492  1.0000
  C   C3555     1.0  0.88787  0.94518  0.27999  1.0000
  H   H6283     1.0  0.53018  0.80133  0.33430  1.0000
  H   H6284     1.0  0.63223  0.54928  0.19900  1.0000
  C   C3556     1.0  0.49226  0.65143  0.27129  1.0000
  C   C3557     1.0  0.77377  0.76775  0.29477  1.0000
  C   C3558     1.0  0.79161  0.76870  0.28662  1.0000
  C   C3559     1.0  0.79828  0.78376  0.28595  1.0000
  C   C3560     1.0  0.78730  0.79771  0.29394  1.0000
  C   C3561     1.0  0.76961  0.79660  0.30239  1.0000
  C   C3562     1.0  0.76285  0.78174  0.30271  1.0000
  H   H6285     1.0  0.80026  0.75779  0.28076  1.0000
  H   H6286     1.0  0.81202  0.78438  0.27971  1.0000
  H   H6287     1.0  0.76106  0.80726  0.30873  1.0000
  H   H6288     1.0  0.74919  0.78119  0.30915  1.0000
  C   C3563     1.0  0.70089  0.68797  0.30712  1.0000
  C   C3564     1.0  0.70562  0.69685  0.28945  1.0000
  C   C3565     1.0  0.70435  0.68971  0.27539  1.0000
  C   C3566     1.0  0.69782  0.67399  0.27888  1.0000
  C   C3567     1.0  0.69260  0.66541  0.29656  1.0000
  C   C3568     1.0  0.69432  0.67229  0.31061  1.0000
  H   H6289     1.0  0.71067  0.70895  0.28657  1.0000
  H   H6290     1.0  0.70842  0.69642  0.26173  1.0000
  H   H6291     1.0  0.68764  0.65325  0.29941  1.0000
  H   H6292     1.0  0.69070  0.66530  0.32424  1.0000
  C   C3569     1.0  0.66071  0.79222  0.31856  1.0000
  C   C3570     1.0  0.66739  0.79037  0.33378  1.0000
  H   H6293     1.0  0.62670  0.56346  0.28809  1.0000
  H   H6294     1.0  0.55019  0.51381  0.33959  1.0000
  C   C3571     1.0  0.63303  0.81064  0.33149  1.0000
  C   C3572     1.0  0.64348  0.80234  0.31742  1.0000
  H   H6295     1.0  0.61980  0.81859  0.33055  1.0000
  H   H6296     1.0  0.63825  0.80382  0.30567  1.0000
  C   C3573     1.0  0.68021  0.53385  0.24611  1.0000
  H   H6297     1.0  0.97026  0.92062  0.27536  1.0000
  C   C3574     1.0  0.69647  0.59059  0.19264  1.0000
  C   C3575     1.0  0.68920  0.60285  0.20382  1.0000
  C   C3576     1.0  0.67948  0.61970  0.19733  1.0000
  H   H6298     1.0  0.64654  0.56533  0.20771  1.0000
  C   C3577     1.0  0.61873  0.59372  0.30319  1.0000
  H   H6299     1.0  0.70409  0.57762  0.19764  1.0000
  H   H6300     1.0  0.88145  0.97804  0.25736  1.0000
  N   N199      1.0  0.90761  0.87978  0.27609  1.0000
  C   C3578     1.0  0.91955  0.88854  0.25988  1.0000
  C   C3579     1.0  0.90797  0.86127  0.27401  1.0000
  C   C3580     1.0  0.88869  0.89047  0.27628  1.0000
  C   C3581     1.0  0.91270  0.87926  0.29341  1.0000
  C   C3582     1.0  0.93289  0.87757  0.29283  1.0000
  C   C3583     1.0  0.91825  0.90874  0.25828  1.0000
  C   C3584     1.0  0.87368  0.88223  0.29024  1.0000
  C   C3585     1.0  0.92612  0.84780  0.27339  1.0000
  C   C3586     1.0  0.92580  0.83174  0.26623  1.0000
  H   H6301     1.0  0.60733  0.58468  0.25730  1.0000
  C   C3587     1.0  0.93478  0.91497  0.24587  1.0000
  C   C3588     1.0  0.85590  0.89573  0.29197  1.0000
  H   H6302     1.0  0.91644  0.88704  0.24751  1.0000
  H   H6303     1.0  0.93376  0.88175  0.25914  1.0000
  H   H6304     1.0  0.89873  0.85465  0.28530  1.0000
  H   H6305     1.0  0.90290  0.86216  0.26185  1.0000
  H   H6306     1.0  0.88527  0.89284  0.26299  1.0000
  H   H6307     1.0  0.88750  0.90398  0.27877  1.0000
  H   H6308     1.0  0.90559  0.89155  0.29867  1.0000
  H   H6309     1.0  0.90806  0.86810  0.30396  1.0000
  H   H6310     1.0  0.93799  0.88913  0.28365  1.0000
  H   H6311     1.0  0.94114  0.86527  0.28847  1.0000
  H   H6312     1.0  0.90630  0.91652  0.25275  1.0000
  H   H6313     1.0  0.91675  0.91192  0.27147  1.0000
  H   H6314     1.0  0.87724  0.87760  0.30354  1.0000
  H   H6315     1.0  0.87139  0.87076  0.28610  1.0000
  H   H6316     1.0  0.93750  0.85356  0.26472  1.0000
  H   H6317     1.0  0.92874  0.84279  0.28713  1.0000
  H   H6318     1.0  0.93824  0.82148  0.26750  1.0000
  H   H6319     1.0  0.91420  0.82564  0.27382  1.0000
  H   H6320     1.0  0.92487  0.83585  0.25195  1.0000
  H   H6321     1.0  0.65134  0.60109  0.18600  1.0000
  H   H6322     1.0  0.63097  0.59324  0.18903  1.0000
  H   H6323     1.0  0.71567  0.83898  0.36578  1.0000
  H   H6324     1.0  0.85625  0.80733  0.33703  1.0000
  H   H6325     1.0  0.65365  0.73573  0.33711  1.0000
  H   H6326     1.0  0.74942  0.77460  0.24183  1.0000
  H   H6327     1.0  0.85174  0.90059  0.27889  1.0000
  H   H6328     1.0  0.84536  0.88926  0.30166  1.0000
  H   H6329     1.0  0.85705  0.90725  0.29686  1.0000
  H   H6330     1.0  0.72670  0.62513  0.21900  1.0000
  S   S819      1.0  0.65909  0.49082  0.23230  1.0000
  H   H6331     1.0  0.82397  0.85459  0.19085  1.0000
  C   C3589     1.0  0.78665  0.72743  0.34334  1.0000
  C   C3590     1.0  0.77935  0.85119  0.36798  1.0000
  H   H6332     1.0  0.94585  0.88466  0.20096  1.0000
  H   H6333     1.0  0.73965  0.69215  0.29740  1.0000
  H   H6334     1.0  0.56644  0.63999  0.36902  1.0000
  H   H6335     1.0  0.80064  0.77700  0.32197  1.0000
  C   C3591     1.0  0.54948  0.52303  0.32696  1.0000
  H   H6336     1.0  0.68291  0.82435  0.34681  1.0000
  C   C3592     1.0  0.94308  0.93177  0.28571  1.0000
  C   C3593     1.0  0.56959  0.64044  0.34040  1.0000
  H   H6337     1.0  0.78439  0.86167  0.37101  1.0000
  H   H6338     1.0  0.63948  0.51238  0.18974  1.0000
  C   C3594     1.0  0.66309  0.73560  0.30923  1.0000
  H   H6339     1.0  0.59946  0.60419  0.28582  1.0000
  H   H6340     1.0  0.79716  0.75792  0.24632  1.0000
  C   C3595     1.0  0.94261  0.93839  0.33866  1.0000
  H   H6341     1.0  0.60555  0.73786  0.33396  1.0000
  H   H6342     1.0  0.78598  0.67358  0.30909  1.0000
  C   C3596     1.0  0.93610  0.87726  0.31108  1.0000
  C   C3597     1.0  0.62729  0.75868  0.35279  1.0000
  H   H6343     1.0  0.63941  0.76457  0.34641  1.0000
  H   H6344     1.0  0.76210  0.69113  0.32498  1.0000
  H   H6345     1.0  0.75951  0.71050  0.29972  1.0000
  C   C3598     1.0  0.75427  0.68624  0.29509  1.0000
  C   C3599     1.0  0.66015  0.84319  0.37320  1.0000
  Fe  Fe406     1.0  0.64050  0.50384  0.29405  1.0000
  H   H6346     1.0  0.79132  0.77917  0.25181  1.0000
  C   C3600     1.0  0.60104  0.59376  0.29810  1.0000
  C   C3601     1.0  0.58194  0.79156  0.31521  1.0000
  H   H6347     1.0  0.85067  0.76900  0.31027  1.0000
  H   H6348     1.0  0.61793  0.52617  0.19624  1.0000
  H   H6349     1.0  0.78399  0.66426  0.28019  1.0000
  H   H6350     1.0  0.61263  0.78498  0.32766  1.0000
  H   H6351     1.0  0.74647  0.80950  0.34295  1.0000
  S   S820      1.0  0.50051  0.73671  0.31531  1.0000
  C   C3602     1.0  0.77743  0.77647  0.23274  1.0000
  C   C3603     1.0  0.53747  0.75825  0.35689  1.0000
  C   C3604     1.0  0.60540  0.77375  0.33318  1.0000
  S   S821      1.0  0.49054  0.58488  0.35752  1.0000
  H   H6352     1.0  0.61930  0.72861  0.34990  1.0000
  H   H6353     1.0  0.98440  0.96202  0.30169  1.0000
  H   H6354     1.0  0.90970  0.81780  0.20334  1.0000
  H   H6355     1.0  0.54916  0.66586  0.28761  1.0000
  H   H6356     1.0  0.50293  0.89178  0.35913  1.0000
  H   H6357     1.0  0.90593  0.96324  0.31165  1.0000
  H   H6358     1.0  0.91834  0.83801  0.19706  1.0000
  H   H6359     1.0  0.80736  0.83259  0.20910  1.0000
  H   H6360     1.0  0.59780  0.74108  0.37330  1.0000
  H   H6361     1.0  0.78664  0.80799  0.23917  1.0000
  H   H6362     1.0  0.80895  0.81052  0.23794  1.0000
  H   H6363     1.0  0.50268  0.68056  0.27383  1.0000
  N   N200      1.0  0.81109  0.77746  0.22735  1.0000
  H   H6364     1.0  0.69556  0.79253  0.35686  1.0000
  H   H6365     1.0  0.49440  0.63422  0.25275  1.0000
  H   H6366     1.0  0.58300  0.54577  0.30984  1.0000
  H   H6367     1.0  0.68682  0.51962  0.24638  1.0000
  C   C3605     1.0  0.74757  0.68028  0.36012  1.0000
  C   C3606     1.0  0.75311  0.81191  0.35263  1.0000
  H   H6368     1.0  0.71661  0.86455  0.33957  1.0000
  C   C3607     1.0  0.79462  0.77244  0.24035  1.0000
  C   C3608     1.0  0.88521  0.97873  0.26975  1.0000
  S   S822      1.0  0.58058  0.85127  0.37258  1.0000
  C   C3609     1.0  0.80729  0.79669  0.21778  1.0000
  H   H6369     1.0  0.59424  0.71313  0.36569  1.0000
  C   C3610     1.0  0.54651  0.64755  0.32275  1.0000
  H   H6370     1.0  0.85271  0.86365  0.21071  1.0000
  Fe  Fe407     1.0  0.56168  0.84366  0.36024  1.0000
  Fe  Fe408     1.0  0.64111  0.49315  0.25942  1.0000
  C   C3611     1.0  0.59538  0.54464  0.31437  1.0000
  H   H6371     1.0  0.75149  0.82653  0.35105  1.0000
  C   C3612     1.0  0.64002  0.80912  0.34647  1.0000
  H   H6372     1.0  0.83472  0.78989  0.30886  1.0000
  H   H6373     1.0  0.96018  0.95241  0.29441  1.0000
  C   C3613     1.0  0.67759  0.62438  0.17943  1.0000
  H   H6374     1.0  0.70932  0.87991  0.35473  1.0000
  H   H6375     1.0  0.56495  0.59259  0.31106  1.0000
  C   C3614     1.0  0.50212  0.84557  0.34939  1.0000
  H   H6376     1.0  0.66784  0.50030  0.35474  1.0000
  H   H6377     1.0  0.78561  0.74825  0.36719  1.0000
  H   H6378     1.0  0.60676  0.53728  0.30576  1.0000
  C   C3615     1.0  0.63502  0.57168  0.25194  1.0000
  H   H6379     1.0  0.66623  0.53460  0.25377  1.0000
  N   N201      1.0  0.55148  0.63757  0.34029  1.0000
  H   H6380     1.0  0.53269  0.64676  0.32268  1.0000
  S   S823      1.0  0.49722  0.62634  0.31723  1.0000
  C   C3616     1.0  0.49874  0.73068  0.26051  1.0000
  H   H6381     1.0  0.73368  0.60505  0.19840  1.0000
  H   H6382     1.0  0.76571  0.70625  0.26098  1.0000
  H   H6383     1.0  0.72437  0.64454  0.20124  1.0000
  H   H6384     1.0  0.55357  0.61111  0.35692  1.0000
  Fe  Fe409     1.0  0.59797  0.82463  0.36905  1.0000
  N   N202      1.0  0.63861  0.70964  0.27620  1.0000
  C   C3617     1.0  0.64701  0.72567  0.26753  1.0000
  C   C3618     1.0  0.61851  0.71586  0.27937  1.0000
  C   C3619     1.0  0.64487  0.70094  0.29345  1.0000
  C   C3620     1.0  0.64403  0.69616  0.26435  1.0000
  C   C3621     1.0  0.64115  0.70357  0.24493  1.0000
  C   C3622     1.0  0.66773  0.72169  0.26201  1.0000
  C   C3623     1.0  0.63571  0.68563  0.30539  1.0000
  C   C3624     1.0  0.61015  0.72784  0.29342  1.0000
  C   C3625     1.0  0.58995  0.73391  0.29479  1.0000
  C   C3626     1.0  0.64805  0.68912  0.23387  1.0000
  C   C3627     1.0  0.67466  0.73871  0.25245  1.0000
  C   C3628     1.0  0.64239  0.67842  0.32284  1.0000
  H   H6385     1.0  0.64353  0.73510  0.27666  1.0000
  H   H6386     1.0  0.64132  0.73356  0.25573  1.0000
  H   H6387     1.0  0.61435  0.72363  0.26674  1.0000
  H   H6388     1.0  0.61178  0.70426  0.28330  1.0000
  H   H6389     1.0  0.64326  0.71104  0.30152  1.0000
  H   H6390     1.0  0.65947  0.69505  0.29074  1.0000
  H   H6391     1.0  0.65831  0.68925  0.26384  1.0000
  H   H6392     1.0  0.63636  0.68528  0.27006  1.0000
  H   H6393     1.0  0.64843  0.71446  0.23798  1.0000
  H   H6394     1.0  0.62669  0.70865  0.24481  1.0000
  H   H6395     1.0  0.67370  0.71614  0.27399  1.0000
  H   H6396     1.0  0.67270  0.71208  0.25295  1.0000
  H   H6397     1.0  0.63865  0.67437  0.29846  1.0000
  H   H6398     1.0  0.62103  0.69024  0.30897  1.0000
  H   H6399     1.0  0.61245  0.72058  0.30686  1.0000
  H   H6400     1.0  0.61572  0.74006  0.28981  1.0000
  H   H6401     1.0  0.58401  0.74151  0.30563  1.0000
  H   H6402     1.0  0.58686  0.74264  0.28207  1.0000
  H   H6403     1.0  0.58362  0.72221  0.29787  1.0000
  H   H6404     1.0  0.64099  0.67790  0.23987  1.0000
  H   H6405     1.0  0.64561  0.69468  0.22015  1.0000
  H   H6406     1.0  0.66269  0.68410  0.23302  1.0000
  H   H6407     1.0  0.67058  0.74857  0.26126  1.0000
  H   H6408     1.0  0.68952  0.73547  0.24889  1.0000
  H   H6409     1.0  0.66946  0.74474  0.24001  1.0000
  H   H6410     1.0  0.63966  0.68916  0.33043  1.0000
  H   H6411     1.0  0.63538  0.66767  0.33117  1.0000
  H   H6412     1.0  0.65696  0.67271  0.32016  1.0000
  H   H6413     1.0  0.66711  0.57230  0.20161  1.0000
  C   C3629     1.0  0.70754  0.85235  0.36740  1.0000
  H   H6414     1.0  0.84091  0.74795  0.23500  1.0000
  C   C3630     1.0  0.60962  0.74078  0.34518  1.0000
  C   C3631     1.0  0.80074  0.77498  0.36592  1.0000
  C   C3632     1.0  0.70456  0.80213  0.35082  1.0000
  N   N203      1.0  0.86983  0.87209  0.18530  1.0000
  H   H6415     1.0  0.60619  0.53126  0.33821  1.0000
  C   C3633     1.0  0.86687  0.89118  0.18728  1.0000
  H   H6416     1.0  0.96225  0.94321  0.26437  1.0000
  H   H6417     1.0  0.78183  0.64272  0.29451  1.0000
  H   H6418     1.0  0.59862  0.63183  0.36969  1.0000
  S   S824      1.0  0.62800  0.82004  0.36388  1.0000
  C   C3634     1.0  0.54311  0.79177  0.35684  1.0000
  H   H6419     1.0  0.93614  0.91287  0.23222  1.0000
  H   H6420     1.0  0.58613  0.76330  0.32498  1.0000
  H   H6421     1.0  0.61944  0.62127  0.29034  1.0000
  H   H6422     1.0  0.62735  0.75218  0.31163  1.0000
  C   C3635     1.0  0.77810  0.66374  0.30919  1.0000
  C   C3636     1.0  0.88586  0.86166  0.19318  1.0000
  H   H6423     1.0  0.80619  0.79240  0.33110  1.0000
  H   H6424     1.0  0.62207  0.59317  0.26542  1.0000
  H   H6425     1.0  0.57679  0.61880  0.36272  1.0000
  C   C3637     1.0  0.58189  0.57909  0.28933  1.0000
  H   H6426     1.0  0.69467  0.54304  0.21994  1.0000
  H   H6427     1.0  0.64680  0.48463  0.34941  1.0000
  C   C3638     1.0  0.61956  0.61257  0.30375  1.0000
  C   C3639     1.0  0.68867  0.82179  0.37332  1.0000
  C   C3640     1.0  0.76160  0.77165  0.24749  1.0000
  H   H6428     1.0  0.83666  0.78143  0.22923  1.0000
  N   N204      1.0  0.66934  0.54545  0.19846  1.0000
  C   C3641     1.0  0.65937  0.56456  0.19769  1.0000
  C   C3642     1.0  0.66976  0.53665  0.21767  1.0000
  C   C3643     1.0  0.68798  0.54544  0.18736  1.0000
  C   C3644     1.0  0.66029  0.53514  0.19111  1.0000
  C   C3645     1.0  0.64019  0.53549  0.19951  1.0000
  H   H6429     1.0  0.53517  0.74533  0.35713  1.0000
  C   C3646     1.0  0.68046  0.54415  0.22693  1.0000
  H   H6430     1.0  0.77911  0.80618  0.35893  1.0000
  H   H6431     1.0  0.50188  0.77073  0.37468  1.0000
  H   H6432     1.0  0.77979  0.72221  0.35711  1.0000
  H   H6433     1.0  0.83921  0.80542  0.35714  1.0000
  H   H6434     1.0  0.65591  0.53782  0.22586  1.0000
  H   H6435     1.0  0.67510  0.52203  0.21901  1.0000
  H   H6436     1.0  0.69437  0.55453  0.19106  1.0000
  H   H6437     1.0  0.69602  0.51800  0.18251  1.0000
  Fe  Fe410     1.0  0.49380  0.56311  0.34277  1.0000
  H   H6438     1.0  0.63852  0.52826  0.21365  1.0000
  H   H6439     1.0  0.94288  0.85927  0.18949  1.0000
  H   H6440     1.0  0.98228  0.95977  0.25671  1.0000
  H   H6441     1.0  0.70260  0.52042  0.20177  1.0000
  C   C3647     1.0  0.89116  0.84142  0.19327  1.0000
  H   H6442     1.0  0.67455  0.55838  0.22743  1.0000
  H   H6443     1.0  0.51925  0.62159  0.27970  1.0000
  C   C3648     1.0  0.52319  0.66850  0.37335  1.0000
  H   H6444     1.0  0.49230  0.90582  0.33532  1.0000
  H   H6445     1.0  0.90191  0.83388  0.21754  1.0000
  C   C3649     1.0  0.53726  0.64446  0.35516  1.0000
  H   H6446     1.0  0.86313  0.89197  0.20168  1.0000
  H   H6447     1.0  0.60333  0.77085  0.30673  1.0000
  C   C3650     1.0  0.88337  0.77200  0.18581  1.0000
  H   H6448     1.0  0.54533  0.80473  0.35668  1.0000
  H   H6449     1.0  0.49875  0.61430  0.28206  1.0000
  C   C3651     1.0  0.55933  0.64179  0.30583  1.0000
  H   H6450     1.0  0.58969  0.80225  0.30885  1.0000
  H   H6451     1.0  0.80666  0.78713  0.36157  1.0000
  H   H6452     1.0  0.52961  0.67324  0.34479  1.0000
  C   C3652     1.0  0.74302  0.65328  0.29938  1.0000
  N   N205      1.0  0.61843  0.75670  0.33874  1.0000
  C   C3653     1.0  0.92837  0.96545  0.32107  1.0000
  C   C3654     1.0  0.88285  0.90069  0.17858  1.0000
  H   H6453     1.0  0.72202  0.63934  0.31590  1.0000
  C   C3655     1.0  0.65718  0.79899  0.34757  1.0000
  H   H6454     1.0  0.73953  0.68960  0.32763  1.0000
  H   H6455     1.0  0.58219  0.54007  0.34248  1.0000
  H   H6456     1.0  0.56098  0.57104  0.31226  1.0000
  H   H6457     1.0  0.63797  0.58095  0.23891  1.0000
  C   C3656     1.0  0.82607  0.76839  0.33033  1.0000
  H   H6458     1.0  0.83110  0.77152  0.30148  1.0000
  H   H6459     1.0  0.54617  0.66200  0.32099  1.0000
  C   C3657     1.0  0.73467  0.61917  0.19244  1.0000
  H   H6460     1.0  0.54741  0.58456  0.28452  1.0000
  C   C3658     1.0  0.75338  0.68151  0.32686  1.0000
  H   H6461     1.0  0.75698  0.68032  0.28319  1.0000
  Fe  Fe411     1.0  0.60613  0.51088  0.28055  1.0000
  C   C3659     1.0  0.77557  0.78275  0.35070  1.0000
  H   H6462     1.0  0.59365  0.65189  0.35329  1.0000
  H   H6463     1.0  0.56132  0.64735  0.27718  1.0000
  H   H6464     1.0  0.82761  0.75378  0.33205  1.0000
  H   H6465     1.0  0.57264  0.79504  0.32752  1.0000
  C   C3660     1.0  0.93018  0.92927  0.33712  1.0000
  C   C3661     1.0  0.74716  0.65828  0.31541  1.0000
  N   N206      1.0  0.75845  0.67224  0.31127  1.0000
  H   H6466     1.0  0.52737  0.70088  0.24125  1.0000
  C   C3662     1.0  0.64784  0.73642  0.32557  1.0000
  H   H6467     1.0  0.87045  0.92386  0.19081  1.0000
  C   C3663     1.0  0.56416  0.58348  0.30299  1.0000
  H   H6468     1.0  0.93201  0.86551  0.32091  1.0000
  H   H6469     1.0  0.58321  0.75419  0.35835  1.0000
  C   C3664     1.0  0.66597  0.49210  0.36850  1.0000
  H   H6470     1.0  0.93347  0.92940  0.24514  1.0000
  H   H6471     1.0  0.97027  0.92986  0.30199  1.0000
  H   H6472     1.0  0.66252  0.79763  0.35923  1.0000
  H   H6473     1.0  0.78051  0.65297  0.32098  1.0000
  H   H6474     1.0  0.59518  0.77768  0.34481  1.0000
  C   C3665     1.0  0.84700  0.75481  0.25684  1.0000
  H   H6475     1.0  0.58813  0.56922  0.32429  1.0000
  H   H6476     1.0  0.76440  0.75723  0.25371  1.0000
  H   H6477     1.0  0.66118  0.84383  0.35880  1.0000
  C   C3666     1.0  0.79513  0.82941  0.21877  1.0000
  H   H6478     1.0  0.74596  0.71923  0.27277  1.0000
  C   C3667     1.0  0.79346  0.75248  0.35358  1.0000
  S   S825      1.0  0.61362  0.49717  0.30676  1.0000
  H   H6479     1.0  0.79836  0.79864  0.20833  1.0000
  H   H6480     1.0  0.77933  0.76859  0.22245  1.0000
  H   H6481     1.0  0.67052  0.74628  0.30714  1.0000
  H   H6482     1.0  0.88367  0.86329  0.20718  1.0000
  H   H6483     1.0  0.74375  0.62497  0.31070  1.0000
  H   H6484     1.0  0.61389  0.78494  0.35911  1.0000
  C   C3668     1.0  0.55250  0.61780  0.34294  1.0000
  H   H6485     1.0  0.51991  0.67459  0.23579  1.0000
  H   H6486     1.0  0.57381  0.79097  0.30592  1.0000
  C   C3669     1.0  0.97007  0.94072  0.28994  1.0000
  N   N207      1.0  0.79437  0.77186  0.35072  1.0000
  H   H6487     1.0  0.85793  0.76168  0.24863  1.0000
  H   H6488     1.0  0.84020  0.76124  0.26841  1.0000
  H   H6489     1.0  0.85305  0.74070  0.26198  1.0000
  H   H6490     1.0  0.81296  0.64308  0.27914  1.0000
  H   H6491     1.0  0.88234  0.96334  0.29752  1.0000
  H   H6492     1.0  0.61980  0.58532  0.31657  1.0000
  H   H6493     1.0  0.51480  0.64139  0.25051  1.0000
  H   H6494     1.0  0.58172  0.59017  0.27739  1.0000
  H   H6495     1.0  0.59020  0.59881  0.30875  1.0000
  H   H6496     1.0  0.51023  0.91267  0.19069  1.0000
  H   H6497     1.0  0.84581  0.76663  0.20681  1.0000
  H   H6498     1.0  0.65796  0.73718  0.29709  1.0000
  H   H6499     1.0  0.95298  0.93136  0.34601  1.0000
  H   H6500     1.0  0.53316  0.58911  0.36040  1.0000
  C   C3670     1.0  0.80615  0.77799  0.33309  1.0000
  C   C3671     1.0  0.59365  0.53343  0.33333  1.0000
  H   H6501     1.0  0.60431  0.63089  0.34636  1.0000
  H   H6502     1.0  0.60809  0.61820  0.31356  1.0000
  C   C3672     1.0  0.72283  0.63044  0.20581  1.0000
  S   S826      1.0  0.89086  0.95812  0.19111  1.0000
  H   H6503     1.0  0.57243  0.64552  0.30382  1.0000
  H   H6504     1.0  0.94708  0.90768  0.25094  1.0000
  H   H6505     1.0  0.63236  0.74534  0.36071  1.0000
  H   H6506     1.0  0.96593  0.92362  0.21689  1.0000
  C   C3673     1.0  0.87895  0.96335  0.28481  1.0000
  H   H6507     1.0  0.89625  0.83922  0.17942  1.0000
  C   C3674     1.0  0.63211  0.52637  0.18961  1.0000
  C   C3675     1.0  0.50311  0.63708  0.26023  1.0000
  H   H6508     1.0  0.82313  0.74838  0.25443  1.0000
  H   H6509     1.0  0.83297  0.78140  0.19114  1.0000
  H   H6510     1.0  0.59119  0.52022  0.33346  1.0000
  C   C3676     1.0  0.84046  0.75413  0.18842  1.0000
  H   H6511     1.0  0.68745  0.53975  0.25270  1.0000
  H   H6512     1.0  0.75571  0.69050  0.35783  1.0000
  H   H6513     1.0  0.70905  0.80203  0.33637  1.0000
  C   C3677     1.0  0.69462  0.82086  0.35325  1.0000
  Fe  Fe412     1.0  0.88964  0.97559  0.20983  1.0000
  H   H6514     1.0  0.67598  0.48417  0.19725  1.0000
  C   C3678     1.0  0.94160  0.95656  0.33089  1.0000
  N   N208      1.0  0.80233  0.85129  0.33778  1.0000
  C   C3679     1.0  0.78305  0.85223  0.34755  1.0000
  C   C3680     1.0  0.80401  0.85267  0.31800  1.0000
  C   C3681     1.0  0.81283  0.83318  0.34503  1.0000
  C   C3682     1.0  0.81031  0.86536  0.34079  1.0000
  C   C3683     1.0  0.80076  0.88495  0.33510  1.0000
  H   H6515     1.0  0.80210  0.91169  0.33612  1.0000
  C   C3684     1.0  0.83318  0.82928  0.33679  1.0000
  C   C3685     1.0  0.78812  0.86435  0.30940  1.0000
  C   C3686     1.0  0.79320  0.86744  0.28905  1.0000
  C   C3687     1.0  0.80816  0.89766  0.34149  1.0000
  H   H6516     1.0  0.53888  0.64714  0.29009  1.0000
  C   C3688     1.0  0.84157  0.80959  0.34237  1.0000
  H   H6517     1.0  0.77790  0.84128  0.34540  1.0000
  H   H6518     1.0  0.77426  0.86471  0.34212  1.0000
  H   H6519     1.0  0.81632  0.85763  0.31029  1.0000
  H   H6520     1.0  0.80576  0.83923  0.31502  1.0000
  H   H6521     1.0  0.80689  0.82246  0.34352  1.0000
  H   H6522     1.0  0.81203  0.83132  0.35951  1.0000
  H   H6523     1.0  0.81135  0.86285  0.35496  1.0000
  H   H6524     1.0  0.82438  0.86454  0.33324  1.0000
  H   H6525     1.0  0.78618  0.88710  0.34067  1.0000
  H   H6526     1.0  0.80312  0.88877  0.32032  1.0000
  C   C3689     1.0  0.61600  0.77071  0.36612  1.0000
  H   H6527     1.0  0.87981  0.83462  0.19976  1.0000
  H   H6528     1.0  0.84024  0.83714  0.34139  1.0000
  H   H6529     1.0  0.83582  0.83267  0.32207  1.0000
  H   H6530     1.0  0.77663  0.85746  0.31383  1.0000
  H   H6531     1.0  0.78353  0.87758  0.31309  1.0000
  H   H6532     1.0  0.79728  0.85454  0.28457  1.0000
  H   H6533     1.0  0.78152  0.87553  0.28328  1.0000
  H   H6534     1.0  0.80437  0.87472  0.28385  1.0000
  C   C3690     1.0  0.49780  0.73253  0.24272  1.0000
  H   H6535     1.0  0.80477  0.89540  0.35628  1.0000
  H   H6536     1.0  0.82294  0.89571  0.33691  1.0000
  C   C3691     1.0  0.83468  0.76806  0.20012  1.0000
  H   H6537     1.0  0.80658  0.76842  0.20565  1.0000
  C   C3692     1.0  0.59848  0.56330  0.31374  1.0000
  C   C3693     1.0  0.53551  0.66422  0.35598  1.0000
  H   H6538     1.0  0.83586  0.80125  0.33693  1.0000
  C   C3694     1.0  0.73428  0.63702  0.30542  1.0000
  C   C3695     1.0  0.63299  0.75351  0.32255  1.0000
  C   C3696     1.0  0.51002  0.61954  0.27230  1.0000
  C   C3697     1.0  0.78499  0.74759  0.34026  1.0000
  H   H6539     1.0  0.83266  0.77117  0.33978  1.0000
  C   C3698     1.0  0.83363  0.75546  0.24567  1.0000
  S   S827      1.0  0.91598  0.87891  0.35548  1.0000
  H   H6540     1.0  0.58129  0.56728  0.28448  1.0000
  H   H6541     1.0  0.64701  0.56797  0.25801  1.0000
  H   H6542     1.0  0.92847  0.88969  0.31574  1.0000
  H   H6543     1.0  0.73331  0.68705  0.36044  1.0000
  C   C3699     1.0  0.76054  0.71385  0.27187  1.0000
  C   C3700     1.0  0.79929  0.81060  0.22993  1.0000
  H   H6544     1.0  0.56174  0.62721  0.30673  1.0000
  C   C3701     1.0  0.55163  0.65112  0.28919  1.0000
  C   C3702     1.0  0.54868  0.77699  0.36971  1.0000
  S   S828      1.0  0.95719  0.96756  0.33365  1.0000
  H   H6545     1.0  0.49865  0.68763  0.31474  1.0000
  H   H6546     1.0  0.52380  0.64345  0.35410  1.0000
  C   C3703     1.0  0.83534  0.87640  0.19200  1.0000
  C   C3704     1.0  0.58435  0.72597  0.36418  1.0000
  H   H6547     1.0  0.73353  0.66452  0.29300  1.0000
  Fe  Fe413     1.0  0.71166  0.74805  0.34503  1.0000
  C   C3705     1.0  0.61881  0.58085  0.26410  1.0000
  H   H6548     1.0  0.83108  0.88774  0.19904  1.0000
  H   H6549     1.0  0.85402  0.85386  0.36591  1.0000
  H   H6550     1.0  0.81075  0.64011  0.30287  1.0000
  H   H6551     1.0  0.81920  0.85979  0.21278  1.0000
  H   H6552     1.0  0.62939  0.86213  0.35987  1.0000
  H   H6553     1.0  0.55005  0.60605  0.28608  1.0000
  H   H6554     1.0  0.93799  0.92659  0.27670  1.0000
  C   C3706     1.0  0.50092  0.68101  0.26025  1.0000
  H   H6555     1.0  0.63956  0.76523  0.31709  1.0000
  H   H6556     1.0  0.63055  0.58877  0.29339  1.0000
  C   C3707     1.0  0.49268  0.85763  0.33697  1.0000
  H   H6557     1.0  0.86426  0.96455  0.28711  1.0000
  H   H6558     1.0  0.49984  0.65096  0.28143  1.0000
  H   H6559     1.0  0.52771  0.58837  0.33992  1.0000
  H   H6560     1.0  0.63232  0.55952  0.24951  1.0000
  C   C3708     1.0  0.59453  0.77352  0.31951  1.0000
  C   C3709     1.0  0.75430  0.66930  0.34553  1.0000
  H   H6561     1.0  0.70382  0.83000  0.34590  1.0000
  C   C3710     1.0  0.83619  0.77516  0.31158  1.0000
  H   H6562     1.0  0.54852  0.66747  0.35529  1.0000
  H   H6563     1.0  0.77045  0.75359  0.34199  1.0000
  C   C3711     1.0  0.78676  0.65508  0.29276  1.0000
  H   H6564     1.0  0.88424  0.94419  0.26770  1.0000
  C   C3712     1.0  0.76419  0.70197  0.28962  1.0000
  N   N209      1.0  0.59895  0.57608  0.29594  1.0000
  C   C3713     1.0  0.59336  0.74179  0.36090  1.0000
  H   H6565     1.0  0.81298  0.66158  0.28840  1.0000
  H   H6566     1.0  0.88331  0.93444  0.29106  1.0000
  H   H6567     1.0  0.90266  0.94308  0.27796  1.0000
  H   H6568     1.0  0.53570  0.59381  0.30387  1.0000
  C   C3714     1.0  0.61438  0.56832  0.28252  1.0000
  H   H6569     1.0  0.79160  0.75214  0.32627  1.0000
  C   C3715     1.0  0.53652  0.61241  0.33907  1.0000
  H   H6570     1.0  0.53257  0.68835  0.26245  1.0000
  C   C3716     1.0  0.80710  0.64966  0.29074  1.0000
  H   H6571     1.0  0.76738  0.72524  0.26853  1.0000
  H   H6572     1.0  0.77059  0.78156  0.33925  1.0000
  S   S829      1.0  0.68972  0.74200  0.33601  1.0000
  H   H6573     1.0  0.68705  0.85653  0.35180  1.0000
  H   H6574     1.0  0.73370  0.66287  0.32356  1.0000
  H   H6575     1.0  0.72535  0.53739  0.18186  1.0000
  H   H6576     1.0  0.77888  0.69715  0.28802  1.0000
  C   C3717     1.0  0.54545  0.76034  0.36994  1.0000
  H   H6577     1.0  0.61144  0.56073  0.31799  1.0000
  C   C3718     1.0  0.77301  0.80314  0.34925  1.0000
  H   H6578     1.0  0.75507  0.65035  0.28899  1.0000
  H   H6579     1.0  0.50992  0.66524  0.37499  1.0000
  H   H6580     1.0  0.52605  0.66138  0.25650  1.0000
  Fe  Fe414     1.0  0.86427  0.88494  0.36617  1.0000
  H   H6581     1.0  0.67261  0.72256  0.31122  1.0000
  C   C3719     1.0  0.51998  0.67482  0.24968  1.0000
  H   H6582     1.0  0.80095  0.72054  0.34116  1.0000
  H   H6583     1.0  0.58011  0.63386  0.33043  1.0000
  H   H6584     1.0  0.93103  0.91528  0.34322  1.0000
  H   H6585     1.0  0.53924  0.63595  0.36835  1.0000
  C   C3720     1.0  0.87682  0.92084  0.17740  1.0000
  H   H6586     1.0  0.49674  0.80940  0.32176  1.0000
  H   H6587     1.0  0.64231  0.72428  0.32804  1.0000
  H   H6588     1.0  0.76827  0.66229  0.34626  1.0000
  C   C3721     1.0  0.50133  0.90319  0.19276  1.0000
  H   H6589     1.0  0.63211  0.61237  0.30770  1.0000
  H   H6590     1.0  0.54601  0.68217  0.24200  1.0000
  H   H6591     1.0  0.82020  0.78214  0.24889  1.0000
  H   H6592     1.0  0.80688  0.74368  0.35335  1.0000
  C   C3722     1.0  0.53217  0.68733  0.24883  1.0000
  H   H6593     1.0  0.75329  0.64575  0.32382  1.0000
  H   H6594     1.0  0.92753  0.97937  0.31488  1.0000
  H   H6595     1.0  0.77360  0.79083  0.22676  1.0000
  H   H6596     1.0  0.53685  0.61569  0.32452  1.0000
  H   H6597     1.0  0.78022  0.72449  0.33379  1.0000
  C   C3723     1.0  0.85351  0.86495  0.19617  1.0000
  H   H6598     1.0  0.52345  0.61946  0.34570  1.0000
  H   H6599     1.0  0.49618  0.69540  0.25488  1.0000
  H   H6600     1.0  0.50537  0.66061  0.30269  1.0000
  C   C3724     1.0  0.57581  0.63343  0.35841  1.0000
  H   H6601     1.0  0.74638  0.80649  0.36641  1.0000
  H   H6602     1.0  0.95899  0.90789  0.19645  1.0000
  H   H6603     1.0  0.74854  0.67138  0.37333  1.0000
  H   H6604     1.0  0.85445  0.85121  0.19469  1.0000
  H   H6605     1.0  0.74865  0.62051  0.19085  1.0000
  H   H6606     1.0  0.55075  0.58442  0.34151  1.0000
  H   H6607     1.0  0.83012  0.75537  0.18073  1.0000
  H   H6608     1.0  0.97754  0.89056  0.20149  1.0000
  H   H6609     1.0  0.80770  0.87427  0.19578  1.0000
  C   C3725     1.0  0.82066  0.86555  0.19827  1.0000
  H   H6610     1.0  0.49612  0.83510  0.35876  1.0000
  C   C3726     1.0  0.71649  0.86619  0.35311  1.0000
  C   C3727     1.0  0.93623  0.87321  0.18456  1.0000
  C   C3728     1.0  0.94902  0.98098  0.23442  1.0000
  H   H6611     1.0  0.97676  0.93037  0.18433  1.0000
  C   C3729     1.0  0.59424  0.63725  0.35677  1.0000
  H   H6612     1.0  0.89328  0.89581  0.18678  1.0000
  C   C3730     1.0  0.65538  0.57510  0.17923  1.0000
  H   H6613     1.0  0.50972  0.91097  0.35982  1.0000
  C   C3731     1.0  0.98038  0.91969  0.21100  1.0000
  H   H6614     1.0  0.97558  0.97272  0.27320  1.0000
  H   H6615     1.0  0.49967  0.84360  0.24070  1.0000
  H   H6616     1.0  0.50132  0.81078  0.28934  1.0000
  H   H6617     1.0  0.83635  0.88196  0.17751  1.0000
  S   S830      1.0  0.61411  0.48581  0.26959  1.0000
  H   H6618     1.0  0.97296  0.87018  0.18392  1.0000
  H   H6619     1.0  0.68070  0.86748  0.36992  1.0000
  H   H6620     1.0  0.82513  0.75314  0.36519  1.0000
  H   H6621     1.0  0.97424  0.90697  0.35914  1.0000
  H   H6622     1.0  0.60269  0.76743  0.37228  1.0000
  H   H6623     1.0  0.52109  0.68298  0.37307  1.0000
  H   H6624     1.0  0.52303  0.86725  0.37522  1.0000
  H   H6625     1.0  0.75232  0.86752  0.37034  1.0000
  S   S831      1.0  0.70512  0.75523  0.37196  1.0000
  S   S832      1.0  0.87793  0.90383  0.37164  1.0000
  H   H6626     1.0  0.65222  0.87253  0.36858  1.0000
  C   C3732     1.0  0.50088  0.90152  0.36770  1.0000
  H   H6627     1.0  0.74006  0.73225  0.37181  1.0000
  H   H6628     1.0  0.90402  0.92665  0.37180  1.0000
  C   C3733     1.0  0.62868  0.86187  0.37411  1.0000
  H   H6629     1.0  0.67760  0.49157  0.37421  1.0000
  H   H6630     1.0  0.95841  0.93187  0.37438  1.0000
  C   C3734     1.0  0.64443  0.59387  0.18044  1.0000
  H   H6631     1.0  0.98642  0.88722  0.37140  1.0000
  H   H6632     1.0  0.92821  0.93936  0.37442  1.0000
  H   H6633     1.0  0.94814  0.95986  0.37283  1.0000
  C   C3735     1.0  0.98141  0.90183  0.37036  1.0000
  H   H6634     1.0  0.75337  0.84374  0.37380  1.0000
  H   H6635     1.0  0.49133  0.90406  0.20544  1.0000
  C   C3736     1.0  0.98286  0.91734  0.19189  1.0000
  H   H6636     1.0  0.49197  0.68215  0.20565  1.0000
  H   H6637     1.0  0.63874  0.77299  0.37561  1.0000
  H   H6638     1.0  0.84715  0.82375  0.37508  1.0000
  H   H6639     1.0  0.57398  0.72575  0.37665  1.0000
  S   S833      1.0  0.83447  0.88738  0.37514  1.0000
  H   H6640     1.0  0.78560  0.83794  0.37500  1.0000
  C   C3737     1.0  0.84137  0.85190  0.37458  1.0000
  C   C3738     1.0  0.75933  0.85401  0.37607  1.0000
  H   H6641     1.0  0.72852  0.51548  0.17729  1.0000
  C   C3739     1.0  0.49207  0.90730  0.17700  1.0000
  H   H6642     1.0  0.65361  0.49860  0.37681  1.0000
  H   H6643     1.0  0.83744  0.87284  0.48835  1.0000
  H   H6644     1.0  0.84458  0.83066  0.44808  1.0000
  Fe  Fe415     1.0  0.89695  0.87918  0.38205  1.0000
  S   S834      1.0  0.58568  0.80990  0.39569  1.0000
  H   H6645     1.0  0.95964  0.91383  0.45411  1.0000
  Fe  Fe416     1.0  0.56714  0.83617  0.39836  1.0000
  S   S835      1.0  0.56040  0.84640  0.42401  1.0000
  H   H6646     1.0  0.87880  0.55852  0.46411  1.0000
  H   H6647     1.0  0.92576  0.49658  0.50224  1.0000
  H   H6648     1.0  0.94252  0.64872  0.50058  1.0000
  Fe  Fe417     1.0  0.62502  0.86104  0.50877  1.0000
  S   S836      1.0  0.60544  0.87934  0.49238  1.0000
  S   S837      1.0  0.61646  0.84040  0.53275  1.0000
  Fe  Fe418     1.0  0.65679  0.87531  0.48469  1.0000
  S   S838      1.0  0.64020  0.89482  0.46642  1.0000
  S   S839      1.0  0.68660  0.87273  0.47991  1.0000
  Fe  Fe419     1.0  0.62058  0.90020  0.49154  1.0000
  S   S840      1.0  0.60896  0.92923  0.49298  1.0000
  Fe  Fe420     1.0  0.62668  0.87235  0.46874  1.0000
  S   S841      1.0  0.62572  0.86488  0.44327  1.0000
  S   S842      1.0  0.63839  0.88234  0.50976  1.0000
  S   S843      1.0  0.64496  0.85234  0.48531  1.0000
  C   C3740     1.0  0.62556  0.76907  0.38111  1.0000
  H   H6649     1.0  0.87792  0.50988  0.50368  1.0000
  S   S844      1.0  0.89990  0.87660  0.41035  1.0000
  H   H6650     1.0  0.95804  0.77304  0.52468  1.0000
  Fe  Fe421     1.0  0.98122  0.82560  0.49271  1.0000
  H   H6651     1.0  0.91939  0.59135  0.56423  1.0000
  C   C3741     1.0  0.93889  0.96322  0.38513  1.0000
  C   C3742     1.0  0.89190  0.50865  0.50481  1.0000
  H   H6652     1.0  0.98418  0.79093  0.56122  1.0000
  H   H6653     1.0  0.54341  0.96650  0.49688  1.0000
  S   S845      1.0  0.90377  0.62737  0.54635  1.0000
  C   C3743     1.0  0.84848  0.83964  0.41950  1.0000
  H   H6654     1.0  0.55974  0.97188  0.55704  1.0000
  Fe  Fe422     1.0  0.92955  0.52792  0.53966  1.0000
  S   S846      1.0  0.94750  0.52775  0.55742  1.0000
  S   S847      1.0  0.90914  0.55171  0.53035  1.0000
  H   H6655     1.0  0.93238  0.78455  0.48395  1.0000
  H   H6656     1.0  0.93640  0.81709  0.47802  1.0000
  H   H6657     1.0  0.96568  0.86351  0.40105  1.0000
  Fe  Fe423     1.0  0.96929  0.51434  0.53783  1.0000
  H   H6658     1.0  0.64894  0.92660  0.49432  1.0000
  H   H6659     1.0  0.67560  0.92488  0.56836  1.0000
  H   H6660     1.0  0.96272  0.65843  0.53190  1.0000
  S   S848      1.0  0.95158  0.51645  0.51908  1.0000
  Fe  Fe424     1.0  0.83589  0.80487  0.51890  1.0000
  S   S849      1.0  0.96601  0.48659  0.55200  1.0000
  S   S850      1.0  0.83254  0.81185  0.49037  1.0000
  S   S851      1.0  0.85825  0.78219  0.52579  1.0000
  C   C3744     1.0  0.91610  0.82211  0.41628  1.0000
  S   S852      1.0  0.95678  0.84125  0.48229  1.0000
  H   H6661     1.0  0.97816  0.80683  0.53142  1.0000
  C   C3745     1.0  0.98981  0.59515  0.51165  1.0000
  H   H6662     1.0  0.56698  0.95259  0.54677  1.0000
  H   H6663     1.0  0.88098  0.52010  0.46105  1.0000
  H   H6664     1.0  0.66717  0.93530  0.51105  1.0000
  H   H6665     1.0  0.87752  0.83282  0.41414  1.0000
  Fe  Fe425     1.0  0.95474  0.85863  0.50125  1.0000
  S   S853      1.0  0.92719  0.86576  0.51782  1.0000
  H   H6666     1.0  0.85199  0.84002  0.47105  1.0000
  S   S854      1.0  0.97070  0.87756  0.48115  1.0000
  Fe  Fe426     1.0  0.76628  0.77976  0.41700  1.0000
  S   S855      1.0  0.76843  0.80550  0.39751  1.0000
  S   S856      1.0  0.76884  0.75528  0.40637  1.0000
  Fe  Fe427     1.0  0.76682  0.79530  0.44819  1.0000
  S   S857      1.0  0.76952  0.82225  0.43109  1.0000
  S   S858      1.0  0.76604  0.79020  0.47761  1.0000
  Fe  Fe428     1.0  0.74855  0.81827  0.41879  1.0000
  S   S859      1.0  0.72448  0.83910  0.41219  1.0000
  Fe  Fe429     1.0  0.78905  0.80688  0.41159  1.0000
  S   S860      1.0  0.81629  0.81074  0.39581  1.0000
  S   S861      1.0  0.74445  0.79227  0.43728  1.0000
  S   S862      1.0  0.78827  0.78022  0.42983  1.0000
  H   H6667     1.0  0.89347  0.80570  0.48487  1.0000
  S   S863      1.0  0.81600  0.79535  0.54307  1.0000
  C   C3746     1.0  0.84600  0.85446  0.47003  1.0000
  C   C3747     1.0  0.87319  0.73788  0.55735  1.0000
  H   H6668     1.0  0.69554  0.83388  0.50272  1.0000
  C   C3748     1.0  0.93918  0.50125  0.47454  1.0000
  N   N210      1.0  0.91368  0.81915  0.46655  1.0000
  H   H6669     1.0  0.87885  0.70378  0.51335  1.0000
  H   H6670     1.0  0.71618  0.80345  0.48240  1.0000
  H   H6671     1.0  0.89243  0.86671  0.49778  1.0000
  C   C3749     1.0  0.90250  0.81640  0.53326  1.0000
  C   C3750     1.0  0.89157  0.83299  0.53547  1.0000
  C   C3751     1.0  0.89921  0.84813  0.53135  1.0000
  C   C3752     1.0  0.91770  0.84669  0.52485  1.0000
  C   C3753     1.0  0.92856  0.82998  0.52313  1.0000
  C   C3754     1.0  0.92098  0.81495  0.52713  1.0000
  H   H6672     1.0  0.89078  0.86102  0.53283  1.0000
  H   H6673     1.0  0.94288  0.82858  0.51875  1.0000
  H   H6674     1.0  0.92952  0.80225  0.52525  1.0000
  C   C3755     1.0  0.81350  0.80672  0.48695  1.0000
  C   C3756     1.0  0.79919  0.80333  0.50109  1.0000
  C   C3757     1.0  0.78458  0.79827  0.49819  1.0000
  C   C3758     1.0  0.78414  0.79686  0.48108  1.0000
  C   C3759     1.0  0.79827  0.80060  0.46686  1.0000
  C   C3760     1.0  0.81295  0.80545  0.46981  1.0000
  H   H6675     1.0  0.79926  0.80469  0.51424  1.0000
  H   H6676     1.0  0.77364  0.79548  0.50919  1.0000
  H   H6677     1.0  0.79805  0.79948  0.45362  1.0000
  H   H6678     1.0  0.82407  0.80779  0.45885  1.0000
  H   H6679     1.0  0.98434  0.62968  0.53924  1.0000
  N   N211      1.0  0.93066  0.75799  0.57541  1.0000
  H   H6680     1.0  0.87274  0.75162  0.55057  1.0000
  H   H6681     1.0  0.70802  0.85435  0.38061  1.0000
  C   C3761     1.0  0.90600  0.60586  0.54270  1.0000
  C   C3762     1.0  0.89933  0.60450  0.52851  1.0000
  C   C3763     1.0  0.90048  0.58781  0.52496  1.0000
  C   C3764     1.0  0.90860  0.57227  0.53536  1.0000
  C   C3765     1.0  0.91563  0.57351  0.54946  1.0000
  C   C3766     1.0  0.91425  0.59035  0.55321  1.0000
  H   H6682     1.0  0.89298  0.61643  0.52035  1.0000
  H   H6683     1.0  0.89500  0.58695  0.51410  1.0000
  H   H6684     1.0  0.88892  0.54910  0.44440  1.0000
  C   C3767     1.0  0.49422  0.78213  0.38104  1.0000
  C   C3768     1.0  0.96463  0.58068  0.56017  1.0000
  H   H6685     1.0  0.90254  0.53652  0.47757  1.0000
  H   H6686     1.0  0.90611  0.81417  0.41707  1.0000
  C   C3769     1.0  0.94392  0.95013  0.40217  1.0000
  H   H6687     1.0  0.68364  0.83339  0.47569  1.0000
  C   C3770     1.0  0.90059  0.52488  0.47341  1.0000
  H   H6688     1.0  0.91747  0.75907  0.49857  1.0000
  H   H6689     1.0  0.69072  0.81234  0.50917  1.0000
  H   H6690     1.0  0.85450  0.85361  0.49426  1.0000
  C   C3771     1.0  0.92060  0.87359  0.41633  1.0000
  H   H6691     1.0  0.74983  0.84335  0.47634  1.0000
  C   C3772     1.0  0.95266  0.92042  0.41990  1.0000
  H   H6692     1.0  0.96205  0.74948  0.52522  1.0000
  C   C3773     1.0  0.93674  0.87169  0.43938  1.0000
  C   C3774     1.0  0.92059  0.87481  0.43366  1.0000
  H   H6693     1.0  0.89255  0.83606  0.49779  1.0000
  H   H6694     1.0  0.93657  0.87260  0.45280  1.0000
  H   H6695     1.0  0.90800  0.87824  0.44268  1.0000
  H   H6696     1.0  0.86524  0.55119  0.45343  1.0000
  Fe  Fe430     1.0  0.97439  0.85861  0.46305  1.0000
  C   C3775     1.0  0.86616  0.82672  0.41475  1.0000
  C   C3776     1.0  0.82083  0.83221  0.39039  1.0000
  C   C3777     1.0  0.80819  0.84667  0.39610  1.0000
  H   H6697     1.0  0.57581  0.97486  0.51988  1.0000
  H   H6698     1.0  0.79531  0.84469  0.40425  1.0000
  C   C3778     1.0  0.55544  0.96336  0.55048  1.0000
  H   H6699     1.0  0.94637  0.76506  0.51264  1.0000
  C   C3779     1.0  0.62280  0.83924  0.55280  1.0000
  C   C3780     1.0  0.63871  0.84380  0.55324  1.0000
  N   N212      1.0  0.97359  0.59126  0.52587  1.0000
  C   C3781     1.0  0.84933  0.88223  0.42781  1.0000
  H   H6700     1.0  0.61321  0.96194  0.49881  1.0000
  C   C3782     1.0  0.96587  0.57706  0.52270  1.0000
  H   H6701     1.0  0.64741  0.84856  0.54089  1.0000
  C   C3783     1.0  0.54834  0.97447  0.53396  1.0000
  H   H6702     1.0  0.96988  0.65534  0.55232  1.0000
  C   C3784     1.0  0.69709  0.86580  0.45967  1.0000
  C   C3785     1.0  0.68696  0.86379  0.44845  1.0000
  C   C3786     1.0  0.69551  0.85638  0.43336  1.0000
  C   C3787     1.0  0.71412  0.85045  0.42975  1.0000
  C   C3788     1.0  0.72427  0.85318  0.44052  1.0000
  C   C3789     1.0  0.71578  0.86117  0.45523  1.0000
  H   H6703     1.0  0.67251  0.86757  0.45159  1.0000
  H   H6704     1.0  0.68763  0.85470  0.42485  1.0000
  H   H6705     1.0  0.73865  0.84926  0.43749  1.0000
  H   H6706     1.0  0.72368  0.86336  0.46341  1.0000
  H   H6707     1.0  0.96789  0.49948  0.46609  1.0000
  C   C3790     1.0  0.57790  0.85337  0.42869  1.0000
  C   C3791     1.0  0.57527  0.85995  0.44425  1.0000
  C   C3792     1.0  0.58963  0.86420  0.44874  1.0000
  C   C3793     1.0  0.60669  0.86165  0.43775  1.0000
  C   C3794     1.0  0.60915  0.85528  0.42217  1.0000
  C   C3795     1.0  0.59483  0.85133  0.41756  1.0000
  H   H6708     1.0  0.56218  0.86157  0.45293  1.0000
  H   H6709     1.0  0.58758  0.86908  0.46081  1.0000
  H   H6710     1.0  0.62232  0.85301  0.41385  1.0000
  H   H6711     1.0  0.59701  0.84611  0.40567  1.0000
  H   H6712     1.0  0.54108  0.79525  0.45348  1.0000
  C   C3796     1.0  0.84213  0.85830  0.48874  1.0000
  C   C3797     1.0  0.75125  0.75577  0.39639  1.0000
  C   C3798     1.0  0.90144  0.84298  0.48631  1.0000
  C   C3799     1.0  0.69249  0.82022  0.47442  1.0000
  C   C3800     1.0  0.83738  0.83487  0.37963  1.0000
  H   H6713     1.0  0.49186  0.77729  0.39573  1.0000
  C   C3801     1.0  0.73590  0.76934  0.39746  1.0000
  H   H6714     1.0  0.55888  0.94046  0.48295  1.0000
  C   C3802     1.0  0.70191  0.81954  0.50297  1.0000
  H   H6715     1.0  0.95754  0.89867  0.39028  1.0000
  H   H6716     1.0  0.73467  0.77965  0.40464  1.0000
  H   H6717     1.0  0.81376  0.85291  0.42805  1.0000
  C   C3803     1.0  0.61076  0.95309  0.51168  1.0000
  C   C3804     1.0  0.60838  0.93590  0.51267  1.0000
  C   C3805     1.0  0.60529  0.92446  0.52931  1.0000
  C   C3806     1.0  0.60486  0.93015  0.54486  1.0000
  H   H6718     1.0  0.60314  0.91129  0.53019  1.0000
  H   H6719     1.0  0.60233  0.92131  0.55771  1.0000
  N   N213      1.0  0.71605  0.81332  0.51416  1.0000
  C   C3807     1.0  0.72166  0.79324  0.51679  1.0000
  C   C3808     1.0  0.73239  0.82113  0.50496  1.0000
  C   C3809     1.0  0.73276  0.78386  0.53141  1.0000
  C   C3810     1.0  0.73944  0.76398  0.53123  1.0000
  H   H6720     1.0  0.72994  0.78937  0.50416  1.0000
  H   H6721     1.0  0.70984  0.78698  0.51980  1.0000
  H   H6722     1.0  0.73875  0.81640  0.49231  1.0000
  H   H6723     1.0  0.74281  0.81631  0.51317  1.0000
  H   H6724     1.0  0.62842  0.89679  0.54828  1.0000
  H   H6725     1.0  0.92950  0.91126  0.40939  1.0000
  H   H6726     1.0  0.74462  0.78970  0.52929  1.0000
  H   H6727     1.0  0.72459  0.78508  0.54487  1.0000
  H   H6728     1.0  0.74687  0.75740  0.54211  1.0000
  H   H6729     1.0  0.72801  0.75743  0.53327  1.0000
  H   H6730     1.0  0.95426  0.90578  0.42127  1.0000
  H   H6731     1.0  0.75778  0.84237  0.49612  1.0000
  C   C3811     1.0  0.66107  0.95196  0.56569  1.0000
  H   H6732     1.0  0.67994  0.81824  0.53749  1.0000
  C   C3812     1.0  0.72181  0.76919  0.38976  1.0000
  H   H6733     1.0  0.84857  0.85207  0.40916  1.0000
  H   H6734     1.0  0.75634  0.82866  0.54594  1.0000
  C   C3813     1.0  0.94174  0.63753  0.51235  1.0000
  H   H6735     1.0  0.85150  0.88411  0.44036  1.0000
  H   H6736     1.0  0.94467  0.56012  0.51287  1.0000
  H   H6737     1.0  0.98967  0.57160  0.54327  1.0000
  H   H6738     1.0  0.83177  0.85113  0.49780  1.0000
  H   H6739     1.0  0.92961  0.63236  0.51353  1.0000
  C   C3814     1.0  0.79551  0.86539  0.44854  1.0000
  S   S864      1.0  0.98779  0.79555  0.49746  1.0000
  H   H6740     1.0  0.96149  0.61515  0.53691  1.0000
  H   H6741     1.0  0.93480  0.83434  0.45888  1.0000
  H   H6742     1.0  0.97653  0.89901  0.39865  1.0000
  H   H6743     1.0  0.69746  0.81997  0.46002  1.0000
  C   C3815     1.0  0.89181  0.52354  0.51424  1.0000
  H   H6744     1.0  0.84642  0.89950  0.40199  1.0000
  H   H6745     1.0  0.82022  0.84978  0.47186  1.0000
  H   H6746     1.0  0.87546  0.49649  0.48112  1.0000
  H   H6747     1.0  0.87802  0.53368  0.53823  1.0000
  C   C3816     1.0  0.98872  0.84098  0.55689  1.0000
  H   H6748     1.0  0.94662  0.81343  0.43856  1.0000
  C   C3817     1.0  0.88657  0.48552  0.48479  1.0000
  H   H6749     1.0  0.87098  0.52953  0.48078  1.0000
  H   H6750     1.0  0.96246  0.72065  0.52147  1.0000
  C   C3818     1.0  0.72944  0.84174  0.50081  1.0000
  N   N214      1.0  0.84365  0.74890  0.49059  1.0000
  C   C3819     1.0  0.84347  0.74100  0.47524  1.0000
  C   C3820     1.0  0.85686  0.73629  0.50124  1.0000
  C   C3821     1.0  0.82493  0.75177  0.50177  1.0000
  C   C3822     1.0  0.84928  0.76663  0.48406  1.0000
  C   C3823     1.0  0.86761  0.76670  0.47092  1.0000
  C   C3824     1.0  0.83256  0.75336  0.46130  1.0000
  C   C3825     1.0  0.82285  0.75809  0.51927  1.0000
  C   C3826     1.0  0.85151  0.71844  0.51203  1.0000
  C   C3827     1.0  0.86578  0.70712  0.52250  1.0000
  C   C3828     1.0  0.87140  0.78553  0.46477  1.0000
  C   C3829     1.0  0.83327  0.74391  0.44650  1.0000
  C   C3830     1.0  0.80435  0.75722  0.53108  1.0000
  H   H6751     1.0  0.83780  0.72873  0.48034  1.0000
  H   H6752     1.0  0.85735  0.73641  0.46802  1.0000
  H   H6753     1.0  0.87000  0.73261  0.49227  1.0000
  H   H6754     1.0  0.85981  0.74296  0.51063  1.0000
  H   H6755     1.0  0.81943  0.73945  0.50501  1.0000
  H   H6756     1.0  0.81565  0.76213  0.49415  1.0000
  H   H6757     1.0  0.83896  0.77675  0.47770  1.0000
  H   H6758     1.0  0.85005  0.77190  0.49549  1.0000
  H   H6759     1.0  0.86795  0.76190  0.45885  1.0000
  H   H6760     1.0  0.87862  0.75810  0.47742  1.0000
  H   H6761     1.0  0.81825  0.75738  0.46755  1.0000
  H   H6762     1.0  0.83790  0.76563  0.45482  1.0000
  H   H6763     1.0  0.82454  0.77210  0.51620  1.0000
  H   H6764     1.0  0.83281  0.74980  0.52720  1.0000
  H   H6765     1.0  0.83875  0.72073  0.52187  1.0000
  H   H6766     1.0  0.84998  0.71055  0.50301  1.0000
  H   H6767     1.0  0.86166  0.69446  0.53019  1.0000
  H   H6768     1.0  0.86742  0.71431  0.53212  1.0000
  H   H6769     1.0  0.88452  0.78527  0.45531  1.0000
  H   H6770     1.0  0.86085  0.79467  0.45789  1.0000
  H   H6771     1.0  0.87183  0.79077  0.47635  1.0000
  H   H6772     1.0  0.82546  0.75307  0.43671  1.0000
  H   H6773     1.0  0.84730  0.73998  0.43937  1.0000
  H   H6774     1.0  0.82732  0.73186  0.45209  1.0000
  H   H6775     1.0  0.80332  0.76195  0.54338  1.0000
  H   H6776     1.0  0.79370  0.76579  0.52406  1.0000
  H   H6777     1.0  0.80233  0.74326  0.53504  1.0000
  H   H6778     1.0  0.94077  0.48703  0.47406  1.0000
  S   S865      1.0  0.84346  0.82376  0.53116  1.0000
  H   H6779     1.0  0.94587  0.60505  0.53282  1.0000
  H   H6780     1.0  0.53141  0.87168  0.39238  1.0000
  H   H6781     1.0  0.64637  0.87915  0.55404  1.0000
  H   H6782     1.0  0.92320  0.83644  0.43212  1.0000
  H   H6783     1.0  0.94997  0.67958  0.57007  1.0000
  H   H6784     1.0  0.54403  0.96545  0.52811  1.0000
  C   C3831     1.0  0.91006  0.77297  0.49900  1.0000
  C   C3832     1.0  0.60803  0.82785  0.48795  1.0000
  H   H6785     1.0  0.92603  0.92368  0.43784  1.0000
  H   H6786     1.0  0.93283  0.95411  0.41319  1.0000
  C   C3833     1.0  0.70832  0.81706  0.48336  1.0000
  H   H6787     1.0  0.60755  0.84121  0.47895  1.0000
  H   H6788     1.0  0.85871  0.84631  0.43909  1.0000
  C   C3834     1.0  0.95942  0.60822  0.52723  1.0000
  H   H6789     1.0  0.86738  0.82387  0.40142  1.0000
  H   H6790     1.0  0.77984  0.84467  0.45537  1.0000
  H   H6791     1.0  0.93699  0.86835  0.39121  1.0000
  H   H6792     1.0  0.92748  0.77341  0.54135  1.0000
  H   H6793     1.0  0.59835  0.80380  0.49194  1.0000
  C   C3835     1.0  0.59761  0.81694  0.48259  1.0000
  H   H6794     1.0  0.90981  0.80850  0.49509  1.0000
  H   H6795     1.0  0.92867  0.75091  0.54000  1.0000
  H   H6796     1.0  0.61275  0.97183  0.52625  1.0000
  C   C3836     1.0  0.87782  0.52293  0.53167  1.0000
  H   H6797     1.0  0.87729  0.83416  0.54033  1.0000
  H   H6798     1.0  0.91092  0.77606  0.51159  1.0000
  H   H6799     1.0  0.92328  0.68897  0.50647  1.0000
  H   H6800     1.0  0.67068  0.95786  0.55416  1.0000
  H   H6801     1.0  0.68877  0.90751  0.53866  1.0000
  H   H6802     1.0  0.95615  0.95311  0.40438  1.0000
  H   H6803     1.0  0.94051  0.64270  0.52446  1.0000
  H   H6804     1.0  0.89496  0.49579  0.51424  1.0000
  C   C3837     1.0  0.92971  0.92537  0.40233  1.0000
  C   C3838     1.0  0.74635  0.84787  0.48920  1.0000
  H   H6805     1.0  0.92582  0.67467  0.52773  1.0000
  C   C3839     1.0  0.77973  0.85836  0.44713  1.0000
  S   S866      1.0  0.88213  0.86038  0.37813  1.0000
  C   C3840     1.0  0.84876  0.90032  0.41495  1.0000
  S   S867      1.0  0.54662  0.83066  0.38646  1.0000
  H   H6806     1.0  0.67053  0.93582  0.53739  1.0000
  H   H6807     1.0  0.86175  0.90441  0.41251  1.0000
  H   H6808     1.0  0.67430  0.87288  0.55411  1.0000
  C   C3841     1.0  0.64573  0.90455  0.56147  1.0000
  H   H6809     1.0  0.74399  0.86267  0.48634  1.0000
  C   C3842     1.0  0.88976  0.72647  0.55912  1.0000
  H   H6810     1.0  0.86680  0.81394  0.42470  1.0000
  H   H6811     1.0  0.89581  0.77381  0.49897  1.0000
  H   H6812     1.0  0.64570  0.86165  0.39140  1.0000
  H   H6813     1.0  0.96014  0.49478  0.48987  1.0000
  C   C3843     1.0  0.92674  0.77782  0.57504  1.0000
  H   H6814     1.0  0.50234  0.79258  0.37742  1.0000
  N   N215      1.0  0.65988  0.91161  0.54623  1.0000
  C   C3844     1.0  0.68240  0.88144  0.54359  1.0000
  C   C3845     1.0  0.50857  0.89153  0.38460  1.0000
  H   H6815     1.0  0.92499  0.96328  0.38452  1.0000
  C   C3846     1.0  0.92622  0.68832  0.51960  1.0000
  C   C3847     1.0  0.67741  0.83949  0.39668  1.0000
  C   C3848     1.0  0.93647  0.76016  0.54135  1.0000
  S   S868      1.0  0.97351  0.86595  0.43364  1.0000
  H   H6816     1.0  0.90196  0.73147  0.55351  1.0000
  H   H6817     1.0  0.66500  0.90571  0.49371  1.0000
  H   H6818     1.0  0.93964  0.70448  0.53988  1.0000
  H   H6819     1.0  0.91921  0.80226  0.44726  1.0000
  H   H6820     1.0  0.68216  0.91375  0.51139  1.0000
  H   H6821     1.0  0.72634  0.84682  0.51330  1.0000
  H   H6822     1.0  0.55915  0.96128  0.46699  1.0000
  C   C3849     1.0  0.95591  0.56385  0.50196  1.0000
  H   H6823     1.0  0.65171  0.83120  0.40915  1.0000
  H   H6824     1.0  0.96609  0.92254  0.41989  1.0000
  N   N216      1.0  0.59836  0.80143  0.45708  1.0000
  C   C3850     1.0  0.60494  0.80347  0.43715  1.0000
  C   C3851     1.0  0.57815  0.80643  0.46108  1.0000
  C   C3852     1.0  0.60514  0.81470  0.46300  1.0000
  C   C3853     1.0  0.60494  0.78291  0.46729  1.0000
  C   C3854     1.0  0.60815  0.76709  0.45785  1.0000
  C   C3855     1.0  0.62527  0.80309  0.43031  1.0000
  C   C3856     1.0  0.56813  0.79563  0.45467  1.0000
  C   C3857     1.0  0.61159  0.74917  0.47077  1.0000
  C   C3858     1.0  0.63129  0.80089  0.41096  1.0000
  H   H6825     1.0  0.59776  0.81630  0.43018  1.0000
  H   H6826     1.0  0.60156  0.79326  0.43202  1.0000
  H   H6827     1.0  0.57282  0.80493  0.47569  1.0000
  H   H6828     1.0  0.57369  0.82082  0.45521  1.0000
  H   H6829     1.0  0.60215  0.82809  0.45437  1.0000
  H   H6830     1.0  0.61998  0.81112  0.46127  1.0000
  H   H6831     1.0  0.61796  0.78204  0.47084  1.0000
  H   H6832     1.0  0.59555  0.78010  0.48034  1.0000
  H   H6833     1.0  0.62009  0.76742  0.44680  1.0000
  H   H6834     1.0  0.59671  0.76745  0.45207  1.0000
  H   H6835     1.0  0.62821  0.81591  0.43082  1.0000
  H   H6836     1.0  0.63335  0.79210  0.43859  1.0000
  H   H6837     1.0  0.57260  0.79592  0.44016  1.0000
  H   H6838     1.0  0.57004  0.78165  0.46221  1.0000
  H   H6839     1.0  0.62341  0.74791  0.47649  1.0000
  H   H6840     1.0  0.59970  0.74779  0.48175  1.0000
  H   H6841     1.0  0.61427  0.73814  0.46356  1.0000
  H   H6842     1.0  0.64576  0.80100  0.40619  1.0000
  H   H6843     1.0  0.62914  0.78801  0.40973  1.0000
  H   H6844     1.0  0.62370  0.81203  0.40235  1.0000
  C   C3859     1.0  0.84594  0.84343  0.43831  1.0000
  H   H6845     1.0  0.70451  0.85871  0.54124  1.0000
  H   H6846     1.0  0.93714  0.50947  0.46136  1.0000
  H   H6847     1.0  0.70530  0.87144  0.55661  1.0000
  H   H6848     1.0  0.93433  0.91564  0.37760  1.0000
  H   H6849     1.0  0.64689  0.93943  0.54499  1.0000
  Fe  Fe431     1.0  0.86423  0.80012  0.54025  1.0000
  S   S869      1.0  0.72415  0.83100  0.57271  1.0000
  C   C3860     1.0  0.66808  0.92096  0.51165  1.0000
  C   C3861     1.0  0.92337  0.50657  0.48990  1.0000
  C   C3862     1.0  0.70842  0.81924  0.53168  1.0000
  C   C3863     1.0  0.91226  0.82962  0.43312  1.0000
  H   H6850     1.0  0.92446  0.81438  0.56364  1.0000
  N   N217      1.0  0.90474  0.50803  0.48710  1.0000
  H   H6851     1.0  0.90405  0.87053  0.47498  1.0000
  C   C3864     1.0  0.82898  0.86630  0.38060  1.0000
  S   S870      1.0  0.92252  0.50135  0.55337  1.0000
  C   C3865     1.0  0.82853  0.85920  0.46265  1.0000
  H   H6852     1.0  0.91550  0.83329  0.40448  1.0000
  H   H6853     1.0  0.88124  0.86723  0.48047  1.0000
  H   H6854     1.0  0.70076  0.81699  0.37937  1.0000
  C   C3866     1.0  0.93982  0.92498  0.43732  1.0000
  H   H6855     1.0  0.77865  0.78967  0.55011  1.0000
  S   S871      1.0  0.89371  0.79711  0.53807  1.0000
  C   C3867     1.0  0.95169  0.76196  0.52499  1.0000
  S   S872      1.0  0.60865  0.95330  0.56332  1.0000
  H   H6856     1.0  0.66101  0.84080  0.43226  1.0000
  C   C3868     1.0  0.55821  0.96288  0.49430  1.0000
  C   C3869     1.0  0.90168  0.83695  0.46910  1.0000
  H   H6857     1.0  0.95323  0.57546  0.53259  1.0000
  H   H6858     1.0  0.92970  0.81350  0.41438  1.0000
  C   C3870     1.0  0.56682  0.97938  0.48980  1.0000
  C   C3871     1.0  0.60767  0.94717  0.54382  1.0000
  C   C3872     1.0  0.91032  0.81489  0.45034  1.0000
  H   H6859     1.0  0.76405  0.77571  0.54996  1.0000
  C   C3873     1.0  0.61048  0.95871  0.52720  1.0000
  H   H6860     1.0  0.92170  0.56154  0.55772  1.0000
  Fe  Fe432     1.0  0.83914  0.77436  0.55117  1.0000
  C   C3874     1.0  0.66591  0.82694  0.41044  1.0000
  H   H6861     1.0  0.83796  0.91068  0.42061  1.0000
  H   H6862     1.0  0.54249  0.80293  0.47252  1.0000
  H   H6863     1.0  0.62223  0.82088  0.48741  1.0000
  C   C3875     1.0  0.89429  0.86308  0.48472  1.0000
  H   H6864     1.0  0.96839  0.82363  0.44919  1.0000
  H   H6865     1.0  0.70965  0.77930  0.39118  1.0000
  H   H6866     1.0  0.89960  0.83984  0.43335  1.0000
  C   C3876     1.0  0.94762  0.80868  0.45277  1.0000
  H   H6867     1.0  0.78783  0.82763  0.54646  1.0000
  H   H6868     1.0  0.60203  0.82980  0.50180  1.0000
  C   C3877     1.0  0.69194  0.81169  0.54340  1.0000
  H   H6869     1.0  0.91803  0.93348  0.41002  1.0000
  C   C3878     1.0  0.93293  0.82037  0.46462  1.0000
  H   H6870     1.0  0.94655  0.79450  0.45665  1.0000
  C   C3879     1.0  0.65971  0.93032  0.54768  1.0000
  H   H6871     1.0  0.90700  0.76031  0.56510  1.0000
  H   H6872     1.0  0.86090  0.87272  0.42187  1.0000
  C   C3880     1.0  0.93688  0.86943  0.40458  1.0000
  H   H6873     1.0  0.54506  0.81726  0.45058  1.0000
  H   H6874     1.0  0.76694  0.86723  0.45196  1.0000
  C   C3881     1.0  0.95306  0.86784  0.42756  1.0000
  H   H6875     1.0  0.82926  0.87595  0.41772  1.0000
  H   H6876     1.0  0.54920  0.74903  0.38022  1.0000
  H   H6877     1.0  0.96080  0.70980  0.55379  1.0000
  C   C3882     1.0  0.81355  0.85304  0.44208  1.0000
  H   H6878     1.0  0.97245  0.58315  0.49317  1.0000
  H   H6879     1.0  0.74863  0.76211  0.51831  1.0000
  C   C3883     1.0  0.77186  0.77096  0.57527  1.0000
  H   H6880     1.0  0.72687  0.87375  0.57613  1.0000
  H   H6881     1.0  0.97392  0.70581  0.50685  1.0000
  H   H6882     1.0  0.94486  0.78865  0.55079  1.0000
  C   C3884     1.0  0.94607  0.91252  0.45375  1.0000
  H   H6883     1.0  0.61948  0.87422  0.37768  1.0000
  C   C3885     1.0  0.90806  0.80535  0.48282  1.0000
  C   C3886     1.0  0.61168  0.83301  0.56880  1.0000
  H   H6884     1.0  0.91565  0.69804  0.52647  1.0000
  H   H6885     1.0  0.94443  0.68106  0.54483  1.0000
  H   H6886     1.0  0.88084  0.50991  0.54096  1.0000
  C   C3887     1.0  0.94205  0.78799  0.56537  1.0000
  H   H6887     1.0  0.96841  0.80467  0.46776  1.0000
  H   H6888     1.0  0.83765  0.83336  0.41894  1.0000
  H   H6889     1.0  0.95861  0.56970  0.55957  1.0000
  H   H6890     1.0  0.71101  0.87998  0.53278  1.0000
  H   H6891     1.0  0.90499  0.52173  0.51771  1.0000
  N   N218      1.0  0.83029  0.85804  0.44344  1.0000
  C   C3888     1.0  0.64724  0.86071  0.37737  1.0000
  H   H6892     1.0  0.85626  0.86188  0.46149  1.0000
  H   H6893     1.0  0.95487  0.68271  0.51005  1.0000
  H   H6894     1.0  0.82079  0.88657  0.43608  1.0000
  C   C3889     1.0  0.66309  0.91984  0.49464  1.0000
  H   H6895     1.0  0.86420  0.52500  0.52908  1.0000
  H   H6896     1.0  0.79379  0.86622  0.46266  1.0000
  C   C3890     1.0  0.83162  0.87586  0.43102  1.0000
  C   C3891     1.0  0.96635  0.80967  0.45386  1.0000
  H   H6897     1.0  0.79465  0.87906  0.44020  1.0000
  C   C3892     1.0  0.68789  0.81533  0.56221  1.0000
  C   C3893     1.0  0.66226  0.93238  0.56578  1.0000
  C   C3894     1.0  0.81227  0.86375  0.39119  1.0000
  C   C3895     1.0  0.96891  0.69633  0.55223  1.0000
  C   C3896     1.0  0.91833  0.78584  0.48292  1.0000
  H   H6898     1.0  0.95630  0.75746  0.55686  1.0000
  H   H6899     1.0  0.81215  0.77196  0.39694  1.0000
  H   H6900     1.0  0.70376  0.83399  0.52933  1.0000
  Fe  Fe433     1.0  0.94658  0.48966  0.53463  1.0000
  H   H6901     1.0  0.67991  0.88167  0.53038  1.0000
  C   C3897     1.0  0.96888  0.90534  0.38787  1.0000
  C   C3898     1.0  0.98101  0.67590  0.53066  1.0000
  H   H6902     1.0  0.94938  0.59155  0.50311  1.0000
  C   C3899     1.0  0.73896  0.74269  0.37878  1.0000
  H   H6903     1.0  0.54475  0.95711  0.56016  1.0000
  H   H6904     1.0  0.95635  0.51756  0.47738  1.0000
  C   C3900     1.0  0.97419  0.65814  0.53766  1.0000
  C   C3901     1.0  0.66643  0.82714  0.42954  1.0000
  H   H6905     1.0  0.75727  0.85288  0.39069  1.0000
  C   C3902     1.0  0.97305  0.70839  0.52024  1.0000
  H   H6906     1.0  0.67183  0.92643  0.48277  1.0000
  H   H6907     1.0  0.98966  0.71998  0.53080  1.0000
  C   C3903     1.0  0.76725  0.78344  0.55813  1.0000
  H   H6908     1.0  0.69106  0.83532  0.39978  1.0000
  H   H6909     1.0  0.95810  0.61715  0.49857  1.0000
  H   H6910     1.0  0.90315  0.91349  0.39412  1.0000
  H   H6911     1.0  0.57906  0.94916  0.47542  1.0000
  C   C3904     1.0  0.88186  0.52961  0.46874  1.0000
  H   H6912     1.0  0.67229  0.85315  0.39957  1.0000
  H   H6913     1.0  0.89703  0.93761  0.39046  1.0000
  H   H6914     1.0  0.98705  0.73829  0.50043  1.0000
  H   H6915     1.0  0.90564  0.84768  0.45771  1.0000
  C   C3905     1.0  0.75972  0.82934  0.55810  1.0000
  H   H6916     1.0  0.92476  0.51943  0.49214  1.0000
  H   H6917     1.0  0.98117  0.83193  0.55474  1.0000
  H   H6918     1.0  0.88757  0.83695  0.46907  1.0000
  S   S873      1.0  0.91148  0.69536  0.57178  1.0000
  H   H6919     1.0  0.65805  0.81811  0.43912  1.0000
  H   H6920     1.0  0.68035  0.82257  0.43178  1.0000
  H   H6921     1.0  0.91021  0.49328  0.46605  1.0000
  H   H6922     1.0  0.98659  0.59397  0.54569  1.0000
  C   C3906     1.0  0.96107  0.58030  0.50426  1.0000
  C   C3907     1.0  0.70202  0.87244  0.54355  1.0000
  H   H6923     1.0  0.58344  0.82426  0.48420  1.0000
  C   C3908     1.0  0.95307  0.86657  0.41021  1.0000
  C   C3909     1.0  0.65530  0.91295  0.52852  1.0000
  C   C3910     1.0  0.87858  0.54825  0.45695  1.0000
  H   H6924     1.0  0.89650  0.81246  0.45305  1.0000
  C   C3911     1.0  0.90467  0.49162  0.48067  1.0000
  H   H6925     1.0  0.62753  0.75519  0.38902  1.0000
  C   C3912     1.0  0.95840  0.62275  0.50989  1.0000
  H   H6926     1.0  0.78035  0.85807  0.43305  1.0000
  H   H6927     1.0  0.91499  0.83987  0.48932  1.0000
  C   C3913     1.0  0.93709  0.80718  0.56817  1.0000
  Fe  Fe434     1.0  0.82493  0.81261  0.55598  1.0000
  H   H6928     1.0  0.98174  0.85497  0.55261  1.0000
  C   C3914     1.0  0.56423  0.95290  0.47894  1.0000
  H   H6929     1.0  0.71832  0.84798  0.49369  1.0000
  C   C3915     1.0  0.54797  0.80327  0.45808  1.0000
  H   H6930     1.0  0.68627  0.82980  0.56170  1.0000
  N   N219      1.0  0.94683  0.93040  0.40263  1.0000
  H   H6931     1.0  0.71883  0.89670  0.56624  1.0000
  C   C3916     1.0  0.77759  0.82861  0.55841  1.0000
  C   C3917     1.0  0.94466  0.69258  0.51697  1.0000
  H   H6932     1.0  0.49881  0.88446  0.39481  1.0000
  H   H6933     1.0  0.58126  0.97384  0.48980  1.0000
  C   C3918     1.0  0.72336  0.75590  0.38037  1.0000
  H   H6934     1.0  0.91819  0.78134  0.47086  1.0000
  H   H6935     1.0  0.97328  0.67043  0.57012  1.0000
  H   H6936     1.0  0.82118  0.87271  0.46494  1.0000
  H   H6937     1.0  0.81291  0.83924  0.44972  1.0000
  H   H6938     1.0  0.71688  0.82669  0.47557  1.0000
  H   H6939     1.0  0.98287  0.69652  0.55244  1.0000
  C   C3919     1.0  0.92572  0.92686  0.38376  1.0000
  Fe  Fe435     1.0  0.56669  0.80585  0.38105  1.0000
  C   C3920     1.0  0.90628  0.92609  0.38521  1.0000
  H   H6940     1.0  0.68456  0.80966  0.48062  1.0000
  H   H6941     1.0  0.96751  0.55238  0.50205  1.0000
  H   H6942     1.0  0.93950  0.93874  0.43844  1.0000
  C   C3921     1.0  0.96295  0.68283  0.56937  1.0000
  S   S874      1.0  0.84657  0.79066  0.56624  1.0000
  H   H6943     1.0  0.75539  0.79409  0.56134  1.0000
  H   H6944     1.0  0.68039  0.81151  0.37974  1.0000
  C   C3922     1.0  0.98860  0.78409  0.55018  1.0000
  N   N220      1.0  0.96796  0.69281  0.53468  1.0000
  C   C3923     1.0  0.75270  0.74239  0.38715  1.0000
  H   H6945     1.0  0.67093  0.81298  0.40859  1.0000
  H   H6946     1.0  0.97659  0.80128  0.44524  1.0000
  H   H6947     1.0  0.64728  0.95978  0.56502  1.0000
  H   H6948     1.0  0.65463  0.89973  0.52682  1.0000
  C   C3924     1.0  0.82267  0.76575  0.38679  1.0000
  C   C3925     1.0  0.85812  0.71377  0.57368  1.0000
  C   C3926     1.0  0.94881  0.69262  0.53505  1.0000
  H   H6949     1.0  0.56262  0.95345  0.50615  1.0000
  H   H6950     1.0  0.68066  0.89846  0.56126  1.0000
  H   H6951     1.0  0.64165  0.92127  0.52814  1.0000
  H   H6952     1.0  0.94451  0.70598  0.50812  1.0000
  S   S875      1.0  0.80440  0.82847  0.57481  1.0000
  S   S876      1.0  0.56014  0.77881  0.38532  1.0000
  S   S877      1.0  0.93167  0.64897  0.56348  1.0000
  H   H6953     1.0  0.80258  0.87492  0.39571  1.0000
  H   H6954     1.0  0.71900  0.81630  0.53961  1.0000
  C   C3927     1.0  0.63662  0.89064  0.55857  1.0000
  C   C3928     1.0  0.95692  0.50345  0.47720  1.0000
  H   H6955     1.0  0.80701  0.74883  0.38349  1.0000
  C   C3929     1.0  0.97964  0.58438  0.54344  1.0000
  H   H6956     1.0  0.97492  0.56371  0.52514  1.0000
  H   H6957     1.0  0.49055  0.93134  0.37919  1.0000
  H   H6958     1.0  0.52923  0.66087  0.38496  1.0000
  H   H6959     1.0  0.98878  0.83859  0.57131  1.0000
  C   C3930     1.0  0.67829  0.90038  0.54759  1.0000
  H   H6960     1.0  0.91584  0.73826  0.57575  1.0000
  S   S878      1.0  0.97804  0.84172  0.51317  1.0000
  C   C3931     1.0  0.94356  0.75299  0.55891  1.0000
  H   H6961     1.0  0.69393  0.79711  0.54463  1.0000
  H   H6962     1.0  0.51182  0.90122  0.39062  1.0000
  H   H6963     1.0  0.94789  0.81436  0.56028  1.0000
  H   H6964     1.0  0.88865  0.53696  0.50572  1.0000
  H   H6965     1.0  0.67532  0.81104  0.57000  1.0000
  H   H6966     1.0  0.91027  0.52417  0.46055  1.0000
  Fe  Fe436     1.0  0.94221  0.50015  0.56985  1.0000
  H   H6967     1.0  0.65343  0.83180  0.38016  1.0000
  H   H6968     1.0  0.83084  0.77566  0.37869  1.0000
  C   C3932     1.0  0.85731  0.73161  0.56477  1.0000
  C   C3933     1.0  0.96204  0.92559  0.38750  1.0000
  H   H6969     1.0  0.95161  0.56670  0.48907  1.0000
  H   H6970     1.0  0.91529  0.78491  0.56836  1.0000
  H   H6971     1.0  0.97025  0.62904  0.50620  1.0000
  H   H6972     1.0  0.63440  0.91572  0.56487  1.0000
  H   H6973     1.0  0.98622  0.60109  0.49846  1.0000
  H   H6974     1.0  0.83147  0.75424  0.39378  1.0000
  H   H6975     1.0  0.93668  0.91593  0.46606  1.0000
  H   H6976     1.0  0.94648  0.89844  0.45369  1.0000
  H   H6977     1.0  0.76436  0.73165  0.38668  1.0000
  C   C3934     1.0  0.52580  0.87792  0.38019  1.0000
  H   H6978     1.0  0.61725  0.77811  0.39009  1.0000
  H   H6979     1.0  0.95385  0.59272  0.56147  1.0000
  H   H6980     1.0  0.65123  0.89876  0.57382  1.0000
  C   C3935     1.0  0.98538  0.79318  0.53325  1.0000
  H   H6981     1.0  0.98589  0.67692  0.51600  1.0000
  H   H6982     1.0  0.65561  0.84544  0.57016  1.0000
  H   H6983     1.0  0.97375  0.93105  0.38738  1.0000
  C   C3936     1.0  0.89056  0.70878  0.56851  1.0000
  H   H6984     1.0  0.94751  0.73821  0.56064  1.0000
  H   H6985     1.0  0.59937  0.82954  0.56854  1.0000
  H   H6986     1.0  0.78166  0.75902  0.57149  1.0000
  C   C3937     1.0  0.64343  0.84189  0.56976  1.0000
  S   S879      1.0  0.83641  0.74600  0.56319  1.0000
  H   H6987     1.0  0.95456  0.78143  0.57011  1.0000
  C   C3938     1.0  0.98877  0.64238  0.53243  1.0000
  Fe  Fe437     1.0  0.91100  0.63248  0.56991  1.0000
  C   C3939     1.0  0.74627  0.83086  0.57344  1.0000
  N   N221      1.0  0.67851  0.83977  0.37732  1.0000
  C   C3940     1.0  0.78208  0.82960  0.57403  1.0000
  H   H6988     1.0  0.61661  0.87490  0.57297  1.0000
  H   H6989     1.0  0.62304  0.85024  0.38244  1.0000
  H   H6990     1.0  0.69894  0.80781  0.56920  1.0000
  C   C3941     1.0  0.87472  0.70239  0.57561  1.0000
  C   C3942     1.0  0.62409  0.88365  0.57574  1.0000
  C   C3943     1.0  0.91328  0.75259  0.57660  1.0000
  H   H6991     1.0  0.78921  0.77784  0.37705  1.0000
  H   H6992     1.0  0.86894  0.57216  0.62820  1.0000
  C   C3944     1.0  0.88899  0.49051  0.65836  1.0000
  C   C3945     1.0  0.98493  0.65086  0.61100  1.0000
  Fe  Fe438     1.0  0.66263  0.83740  0.61033  1.0000
  S   S880      1.0  0.67811  0.85767  0.59293  1.0000
  S   S881      1.0  0.63674  0.83336  0.60686  1.0000
  Fe  Fe439     1.0  0.68758  0.82423  0.63641  1.0000
  S   S882      1.0  0.70543  0.84343  0.62109  1.0000
  S   S883      1.0  0.69472  0.80496  0.66120  1.0000
  Fe  Fe440     1.0  0.67982  0.86353  0.61862  1.0000
  S   S884      1.0  0.67556  0.89269  0.61935  1.0000
  Fe  Fe441     1.0  0.70237  0.83600  0.59678  1.0000
  H   H6993     1.0  0.75759  0.75958  0.61198  1.0000
  S   S885      1.0  0.66223  0.84493  0.63593  1.0000
  S   S886      1.0  0.68662  0.81505  0.61220  1.0000
  H   H6994     1.0  0.95072  0.70255  0.58609  1.0000
  S   S887      1.0  0.63210  0.77014  0.71423  1.0000
  H   H6995     1.0  0.89673  0.52507  0.62862  1.0000
  Fe  Fe442     1.0  0.90360  0.63267  0.60930  1.0000
  C   C3946     1.0  0.90659  0.49734  0.65400  1.0000
  S   S888      1.0  0.88377  0.62295  0.63382  1.0000
  H   H6996     1.0  0.61921  0.80542  0.77145  1.0000
  S   S889      1.0  0.92377  0.64946  0.60615  1.0000
  H   H6997     1.0  0.60211  0.79059  0.59523  1.0000
  N   N222      1.0  0.87297  0.50371  0.65254  1.0000
  C   C3947     1.0  0.93778  0.55702  0.62358  1.0000
  C   C3948     1.0  0.71718  0.92097  0.65030  1.0000
  C   C3949     1.0  0.97535  0.64124  0.60560  1.0000
  C   C3950     1.0  0.62485  0.94678  0.63122  1.0000
  H   H6998     1.0  0.65256  0.97248  0.59877  1.0000
  H   H6999     1.0  0.61292  0.90730  0.69408  1.0000
  H   H7000     1.0  0.80552  0.75339  0.59283  1.0000
  Fe  Fe443     1.0  0.87451  0.53104  0.73542  1.0000
  S   S890      1.0  0.89445  0.54093  0.74409  1.0000
  S   S891      1.0  0.88767  0.50592  0.72470  1.0000
  Fe  Fe444     1.0  0.84482  0.56311  0.74352  1.0000
  S   S892      1.0  0.86288  0.57541  0.75214  1.0000
  S   S893      1.0  0.81655  0.57933  0.74468  1.0000
  Fe  Fe445     1.0  0.88326  0.56763  0.72835  1.0000
  S   S894      1.0  0.90226  0.58455  0.70949  1.0000
  H   H7001     1.0  0.88426  0.49783  0.62618  1.0000
  H   H7002     1.0  0.66202  0.91555  0.74395  1.0000
  S   S895      1.0  0.86454  0.55740  0.71843  1.0000
  S   S896      1.0  0.85291  0.53558  0.75954  1.0000
  C   C3951     1.0  0.61554  0.91747  0.66556  1.0000
  Fe  Fe446     1.0  0.61550  0.96156  0.70785  1.0000
  S   S897      1.0  0.63808  0.94771  0.72171  1.0000
  S   S898      1.0  0.58773  0.95862  0.72235  1.0000
  C   C3952     1.0  0.95730  0.74760  0.59217  1.0000
  Fe  Fe447     1.0  0.65307  0.94187  0.69500  1.0000
  S   S899      1.0  0.66751  0.91358  0.69340  1.0000
  H   H7003     1.0  0.93113  0.60009  0.62917  1.0000
  S   S900      1.0  0.62961  0.95379  0.68175  1.0000
  H   H7004     1.0  0.85693  0.53047  0.70306  1.0000
  H   H7005     1.0  0.59729  0.94167  0.65658  1.0000
  H   H7006     1.0  0.50932  0.73862  0.75425  1.0000
  C   C3953     1.0  0.92434  0.54665  0.65555  1.0000
  C   C3954     1.0  0.92314  0.48377  0.75394  1.0000
  H   H7007     1.0  0.73380  0.89483  0.65393  1.0000
  H   H7008     1.0  0.67277  0.93534  0.76713  1.0000
  C   C3955     1.0  0.57637  0.91591  0.76081  1.0000
  H   H7009     1.0  0.71277  0.87902  0.61535  1.0000
  C   C3956     1.0  0.89615  0.56596  0.63247  1.0000
  H   H7010     1.0  0.84942  0.50586  0.73226  1.0000
  H   H7011     1.0  0.95916  0.60894  0.62772  1.0000
  H   H7012     1.0  0.67962  0.76948  0.65788  1.0000
  H   H7013     1.0  0.62086  0.90375  0.66302  1.0000
  C   C3957     1.0  0.63612  0.95280  0.61246  1.0000
  C   C3958     1.0  0.78916  0.78222  0.61180  1.0000
  C   C3959     1.0  0.68111  0.76891  0.64372  1.0000
  C   C3960     1.0  0.51202  0.58265  0.76605  1.0000
  H   H7014     1.0  0.71315  0.87646  0.65870  1.0000
  H   H7015     1.0  0.59296  0.92227  0.65294  1.0000
  S   S901      1.0  0.62195  0.73078  0.75505  1.0000
  Fe  Fe448     1.0  0.63984  0.97903  0.67586  1.0000
  H   H7016     1.0  0.59941  0.92916  0.68821  1.0000
  H   H7017     1.0  0.79429  0.86354  0.59093  1.0000
  H   H7018     1.0  0.85735  0.48483  0.63501  1.0000
  C   C3961     1.0  0.72699  0.87957  0.60938  1.0000
  C   C3962     1.0  0.88874  0.61386  0.65516  1.0000
  C   C3963     1.0  0.90497  0.61410  0.65902  1.0000
  C   C3964     1.0  0.90885  0.60542  0.67590  1.0000
  C   C3965     1.0  0.89660  0.59637  0.68888  1.0000
  C   C3966     1.0  0.88022  0.59659  0.68511  1.0000
  C   C3967     1.0  0.87628  0.60534  0.66835  1.0000
  H   H7019     1.0  0.91448  0.62096  0.64904  1.0000
  H   H7020     1.0  0.92143  0.60555  0.67886  1.0000
  H   H7021     1.0  0.87047  0.59015  0.69513  1.0000
  H   H7022     1.0  0.86359  0.60533  0.66554  1.0000
  S   S902      1.0  0.65826  0.74429  0.75431  1.0000
  H   H7023     1.0  0.77956  0.59236  0.72511  1.0000
  C   C3968     1.0  0.91338  0.55059  0.67395  1.0000
  H   H7024     1.0  0.77774  0.61112  0.70672  1.0000
  H   H7025     1.0  0.98230  0.56239  0.57701  1.0000
  H   H7026     1.0  0.64757  0.94185  0.60906  1.0000
  C   C3969     1.0  0.60278  0.90547  0.73970  1.0000
  C   C3970     1.0  0.60204  0.92284  0.72951  1.0000
  C   C3971     1.0  0.58820  0.93673  0.73469  1.0000
  C   C3972     1.0  0.57511  0.93318  0.75012  1.0000
  C   C3973     1.0  0.93791  0.74722  0.59172  1.0000
  H   H7027     1.0  0.61340  0.89475  0.73552  1.0000
  H   H7028     1.0  0.61213  0.92549  0.71758  1.0000
  C   C3974     1.0  0.67719  0.79607  0.67672  1.0000
  C   C3975     1.0  0.68098  0.78238  0.69132  1.0000
  C   C3976     1.0  0.66721  0.77458  0.70336  1.0000
  C   C3977     1.0  0.64959  0.78056  0.70085  1.0000
  C   C3978     1.0  0.64576  0.79475  0.68673  1.0000
  C   C3979     1.0  0.65949  0.80234  0.67456  1.0000
  H   H7029     1.0  0.69465  0.77753  0.69313  1.0000
  H   H7030     1.0  0.67030  0.76367  0.71428  1.0000
  H   H7031     1.0  0.63207  0.79989  0.68526  1.0000
  H   H7032     1.0  0.65638  0.81302  0.66351  1.0000
  C   C3980     1.0  0.89040  0.52776  0.60329  1.0000
  C   C3981     1.0  0.75076  0.83187  0.58907  1.0000
  C   C3982     1.0  0.76861  0.83134  0.58932  1.0000
  H   H7033     1.0  0.86591  0.49381  0.76148  1.0000
  C   C3983     1.0  0.94293  0.58946  0.63184  1.0000
  H   H7034     1.0  0.90550  0.48919  0.58748  1.0000
  H   H7035     1.0  0.74057  0.83277  0.60101  1.0000
  H   H7036     1.0  0.77207  0.83189  0.60147  1.0000
  C   C3984     1.0  0.87793  0.57855  0.63207  1.0000
  H   H7037     1.0  0.68634  0.98022  0.71069  1.0000
  C   C3985     1.0  0.67249  0.89823  0.64022  1.0000
  C   C3986     1.0  0.66981  0.91620  0.64111  1.0000
  C   C3987     1.0  0.66763  0.92105  0.65750  1.0000
  C   C3988     1.0  0.66871  0.90787  0.67301  1.0000
  C   C3989     1.0  0.67139  0.88988  0.67212  1.0000
  C   C3990     1.0  0.67296  0.88508  0.65581  1.0000
  H   H7038     1.0  0.66951  0.92642  0.62908  1.0000
  H   H7039     1.0  0.66569  0.93494  0.65805  1.0000
  H   H7040     1.0  0.67222  0.87966  0.68410  1.0000
  H   H7041     1.0  0.67484  0.87120  0.65528  1.0000
  H   H7042     1.0  0.60706  0.82729  0.59738  1.0000
  H   H7043     1.0  0.63240  0.93619  0.77018  1.0000
  H   H7044     1.0  0.90191  0.58021  0.64962  1.0000
  H   H7045     1.0  0.96742  0.58760  0.64075  1.0000
  H   H7046     1.0  0.95977  0.53743  0.59865  1.0000
  H   H7047     1.0  0.96352  0.72049  0.60769  1.0000
  C   C3991     1.0  0.61475  0.81981  0.76577  1.0000
  H   H7048     1.0  0.76179  0.86896  0.59415  1.0000
  C   C3992     1.0  0.95511  0.59758  0.63820  1.0000
  H   H7049     1.0  0.78892  0.60424  0.76242  1.0000
  H   H7050     1.0  0.92940  0.75167  0.60398  1.0000
  C   C3993     1.0  0.71959  0.84787  0.66422  1.0000
  C   C3994     1.0  0.91162  0.53332  0.68771  1.0000
  H   H7051     1.0  0.97719  0.73513  0.60850  1.0000
  H   H7052     1.0  0.60833  0.89790  0.64136  1.0000
  H   H7053     1.0  0.63594  0.83375  0.74919  1.0000
  H   H7054     1.0  0.73958  0.59479  0.74032  1.0000
  C   C3995     1.0  0.60444  0.91582  0.68460  1.0000
  H   H7055     1.0  0.70641  0.84701  0.67335  1.0000
  H   H7056     1.0  0.61210  0.90665  0.77526  1.0000
  C   C3996     1.0  0.85694  0.49418  0.72699  1.0000
  H   H7057     1.0  0.73286  0.77726  0.64218  1.0000
  H   H7058     1.0  0.68499  0.75472  0.64241  1.0000
  H   H7059     1.0  0.61840  0.77008  0.59897  1.0000
  Fe  Fe449     1.0  0.63383  0.75509  0.74228  1.0000
  H   H7060     1.0  0.52136  0.78478  0.76192  1.0000
  C   C3997     1.0  0.63205  0.83579  0.58573  1.0000
  C   C3998     1.0  0.57372  0.96299  0.61174  1.0000
  H   H7061     1.0  0.50150  0.76698  0.76611  1.0000
  H   H7062     1.0  0.84445  0.50452  0.65763  1.0000
  H   H7063     1.0  0.64012  0.88691  0.61169  1.0000
  C   C3999     1.0  0.98198  0.63544  0.58947  1.0000
  H   H7064     1.0  0.72958  0.84661  0.67232  1.0000
  H   H7065     1.0  0.72352  0.83657  0.65715  1.0000
  H   H7066     1.0  0.70771  0.86639  0.64352  1.0000
  H   H7067     1.0  0.87160  0.58176  0.64542  1.0000
  C   C4000     1.0  0.79429  0.75278  0.60471  1.0000
  C   C4001     1.0  0.50813  0.56717  0.75986  1.0000
  C   C4002     1.0  0.78025  0.78002  0.58526  1.0000
  C   C4003     1.0  0.80895  0.78373  0.60353  1.0000
  C   C4004     1.0  0.55517  0.78489  0.76170  1.0000
  C   C4005     1.0  0.81522  0.79480  0.61302  1.0000
  H   H7068     1.0  0.68825  0.70480  0.76897  1.0000
  H   H7069     1.0  0.80611  0.62473  0.76242  1.0000
  H   H7070     1.0  0.81040  0.79035  0.58928  1.0000
  H   H7071     1.0  0.81820  0.77050  0.60450  1.0000
  H   H7072     1.0  0.93332  0.48868  0.65966  1.0000
  H   H7073     1.0  0.68011  0.93847  0.72653  1.0000
  C   C4006     1.0  0.75675  0.61416  0.73025  1.0000
  H   H7074     1.0  0.82912  0.79630  0.60640  1.0000
  H   H7075     1.0  0.80652  0.80834  0.61235  1.0000
  C   C4007     1.0  0.49901  0.60992  0.73712  1.0000
  H   H7076     1.0  0.59290  0.90965  0.68602  1.0000
  H   H7077     1.0  0.79375  0.78106  0.57697  1.0000
  N   N223      1.0  0.73174  0.61238  0.75908  1.0000
  H   H7078     1.0  0.78129  0.79615  0.61014  1.0000
  H   H7079     1.0  0.52220  0.58864  0.75538  1.0000
  C   C4008     1.0  0.93702  0.57336  0.64615  1.0000
  H   H7080     1.0  0.63715  0.91172  0.63478  1.0000
  H   H7081     1.0  0.76275  0.59591  0.71201  1.0000
  C   C4009     1.0  0.60404  0.92905  0.65181  1.0000
  H   H7082     1.0  0.69104  0.74125  0.77051  1.0000
  H   H7083     1.0  0.70487  0.91605  0.65789  1.0000
  H   H7084     1.0  0.79530  0.70837  0.60441  1.0000
  H   H7085     1.0  0.98008  0.65479  0.62379  1.0000
  H   H7086     1.0  0.75359  0.61344  0.77005  1.0000
  H   H7087     1.0  0.92190  0.53830  0.62194  1.0000
  S   S903      1.0  0.89112  0.65050  0.58666  1.0000
  H   H7088     1.0  0.71369  0.93254  0.63952  1.0000
  S   S904      1.0  0.93697  0.49000  0.59965  1.0000
  H   H7089     1.0  0.72612  0.77343  0.62349  1.0000
  H   H7090     1.0  0.87032  0.54124  0.68320  1.0000
  C   C4010     1.0  0.64317  0.86794  0.76013  1.0000
  H   H7091     1.0  0.58524  0.80480  0.72302  1.0000
  H   H7092     1.0  0.93733  0.73292  0.59355  1.0000
  H   H7093     1.0  0.80918  0.72276  0.58884  1.0000
  H   H7094     1.0  0.51091  0.61493  0.73686  1.0000
  H   H7095     1.0  0.57252  0.70204  0.76113  1.0000
  H   H7096     1.0  0.97827  0.58554  0.57852  1.0000
  H   H7097     1.0  0.89961  0.55821  0.67302  1.0000
  H   H7098     1.0  0.91993  0.55824  0.67938  1.0000
  H   H7099     1.0  0.60724  0.94082  0.60644  1.0000
  C   C4011     1.0  0.89872  0.75527  0.59367  1.0000
  C   C4012     1.0  0.61611  0.83159  0.58514  1.0000
  H   H7100     1.0  0.95810  0.76099  0.59334  1.0000
  C   C4013     1.0  0.86474  0.51619  0.68150  1.0000
  H   H7101     1.0  0.70484  0.88548  0.58528  1.0000
  C   C4014     1.0  0.71756  0.62499  0.74967  1.0000
  C   C4015     1.0  0.57614  0.72062  0.77498  1.0000
  C   C4016     1.0  0.85716  0.49457  0.65894  1.0000
  C   C4017     1.0  0.69049  0.65081  0.75149  1.0000
  H   H7102     1.0  0.68635  0.95176  0.73834  1.0000
  C   C4018     1.0  0.93599  0.53922  0.62009  1.0000
  H   H7103     1.0  0.87869  0.52788  0.65612  1.0000
  C   C4019     1.0  0.62632  0.91672  0.62705  1.0000
  H   H7104     1.0  0.92894  0.57903  0.65787  1.0000
  N   N224      1.0  0.78159  0.77079  0.60419  1.0000
  H   H7105     1.0  0.93488  0.56777  0.61185  1.0000
  H   H7106     1.0  0.59173  0.84417  0.74325  1.0000
  C   C4020     1.0  0.78566  0.87472  0.59722  1.0000
  C   C4021     1.0  0.62771  0.82496  0.74760  1.0000
  H   H7107     1.0  0.95675  0.68009  0.59810  1.0000
  H   H7108     1.0  0.77288  0.79409  0.58470  1.0000
  H   H7109     1.0  0.87496  0.53811  0.62628  1.0000
  C   C4022     1.0  0.58114  0.87609  0.72531  1.0000
  H   H7110     1.0  0.86313  0.51283  0.62787  1.0000
  H   H7111     1.0  0.92223  0.78033  0.58886  1.0000
  C   C4023     1.0  0.76346  0.76892  0.61587  1.0000
  H   H7112     1.0  0.89383  0.55349  0.64209  1.0000
  H   H7113     1.0  0.65675  0.94493  0.75301  1.0000
  C   C4024     1.0  0.78636  0.73635  0.60611  1.0000
  H   H7114     1.0  0.66265  0.88222  0.77559  1.0000
  C   C4025     1.0  0.87564  0.49110  0.72257  1.0000
  H   H7115     1.0  0.74519  0.64361  0.74430  1.0000
  H   H7116     1.0  0.56549  0.97653  0.61247  1.0000
  H   H7117     1.0  0.54685  0.76035  0.77523  1.0000
  H   H7118     1.0  0.60074  0.82145  0.76457  1.0000
  C   C4026     1.0  0.87609  0.50926  0.63238  1.0000
  H   H7119     1.0  0.91110  0.58640  0.62683  1.0000
  H   H7120     1.0  0.63453  0.94151  0.64023  1.0000
  N   N225      1.0  0.62952  0.77845  0.64513  1.0000
  C   C4027     1.0  0.61641  0.76743  0.65726  1.0000
  C   C4028     1.0  0.63015  0.77824  0.62598  1.0000
  C   C4029     1.0  0.64789  0.76943  0.64900  1.0000
  C   C4030     1.0  0.62520  0.79743  0.64784  1.0000
  C   C4031     1.0  0.60527  0.80593  0.65446  1.0000
  C   C4032     1.0  0.61674  0.76350  0.67743  1.0000
  C   C4033     1.0  0.66372  0.77801  0.63718  1.0000
  C   C4034     1.0  0.61246  0.78615  0.61923  1.0000
  C   C4035     1.0  0.61482  0.78435  0.59995  1.0000
  C   C4036     1.0  0.60300  0.82578  0.65405  1.0000
  C   C4037     1.0  0.59970  0.75780  0.68915  1.0000
  H   H7121     1.0  0.61904  0.75426  0.65343  1.0000
  H   H7122     1.0  0.60251  0.77375  0.65564  1.0000
  H   H7123     1.0  0.63983  0.78618  0.61677  1.0000
  H   H7124     1.0  0.63502  0.76434  0.62367  1.0000
  H   H7125     1.0  0.65104  0.75514  0.64795  1.0000
  H   H7126     1.0  0.64823  0.76941  0.66297  1.0000
  H   H7127     1.0  0.63248  0.79861  0.65751  1.0000
  H   H7128     1.0  0.63048  0.80635  0.63538  1.0000
  H   H7129     1.0  0.60036  0.79950  0.66845  1.0000
  H   H7130     1.0  0.59641  0.80462  0.64633  1.0000
  H   H7131     1.0  0.62823  0.75246  0.68039  1.0000
  H   H7132     1.0  0.61835  0.77531  0.68143  1.0000
  H   H7133     1.0  0.66109  0.79240  0.63745  1.0000
  H   H7134     1.0  0.66611  0.77658  0.62315  1.0000
  H   H7135     1.0  0.60154  0.77933  0.62739  1.0000
  H   H7136     1.0  0.60839  0.80059  0.61931  1.0000
  H   H7137     1.0  0.74445  0.57441  0.77466  1.0000
  H   H7138     1.0  0.57964  0.96247  0.59751  1.0000
  H   H7139     1.0  0.63140  0.86614  0.77117  1.0000
  H   H7140     1.0  0.60683  0.83315  0.64015  1.0000
  H   H7141     1.0  0.58879  0.83145  0.65936  1.0000
  H   H7142     1.0  0.61143  0.82775  0.66237  1.0000
  H   H7143     1.0  0.58784  0.76874  0.68741  1.0000
  H   H7144     1.0  0.59783  0.74570  0.68583  1.0000
  H   H7145     1.0  0.60078  0.75464  0.70339  1.0000
  H   H7146     1.0  0.58623  0.72565  0.76420  1.0000
  C   C4038     1.0  0.51426  0.62092  0.76721  1.0000
  H   H7147     1.0  0.60357  0.81285  0.73944  1.0000
  C   C4039     1.0  0.59030  0.90209  0.75565  1.0000
  H   H7148     1.0  0.60062  0.86052  0.70808  1.0000
  H   H7149     1.0  0.91765  0.53771  0.65206  1.0000
  C   C4040     1.0  0.80123  0.72013  0.60269  1.0000
  H   H7150     1.0  0.56438  0.94390  0.75415  1.0000
  H   H7151     1.0  0.69202  0.77582  0.63565  1.0000
  N   N226      1.0  0.61397  0.93318  0.63268  1.0000
  H   H7152     1.0  0.63443  0.89617  0.75208  1.0000
  N   N227      1.0  0.61924  0.83342  0.73154  1.0000
  C   C4041     1.0  0.63347  0.84013  0.71627  1.0000
  H   H7153     1.0  0.85581  0.48826  0.67338  1.0000
  C   C4042     1.0  0.96105  0.69003  0.58604  1.0000
  C   C4043     1.0  0.61217  0.81930  0.72733  1.0000
  C   C4044     1.0  0.60086  0.82571  0.71269  1.0000
  C   C4045     1.0  0.65161  0.82687  0.71246  1.0000
  H   H7154     1.0  0.85374  0.50886  0.68775  1.0000
  H   H7155     1.0  0.63157  0.92423  0.75461  1.0000
  H   H7156     1.0  0.69640  0.92834  0.74059  1.0000
  C   C4046     1.0  0.59359  0.81055  0.71030  1.0000
  C   C4047     1.0  0.66397  0.83484  0.69566  1.0000
  H   H7157     1.0  0.87519  0.68880  0.58296  1.0000
  H   H7158     1.0  0.63669  0.85203  0.71883  1.0000
  H   H7159     1.0  0.62854  0.84470  0.70362  1.0000
  H   H7160     1.0  0.57943  0.88066  0.73785  1.0000
  H   H7161     1.0  0.52210  0.54490  0.74706  1.0000
  H   H7162     1.0  0.59402  0.97090  0.75535  1.0000
  H   H7163     1.0  0.63743  0.81232  0.74543  1.0000
  H   H7164     1.0  0.62326  0.80816  0.72358  1.0000
  C   C4048     1.0  0.66876  0.93434  0.75509  1.0000
  H   H7165     1.0  0.60894  0.83108  0.69966  1.0000
  H   H7166     1.0  0.67026  0.97456  0.77412  1.0000
  H   H7167     1.0  0.65872  0.82384  0.72362  1.0000
  H   H7168     1.0  0.64971  0.81418  0.71057  1.0000
  H   H7169     1.0  0.96703  0.74377  0.58026  1.0000
  H   H7170     1.0  0.93771  0.53842  0.65757  1.0000
  H   H7171     1.0  0.96113  0.57287  0.58891  1.0000
  H   H7172     1.0  0.93545  0.80737  0.58247  1.0000
  C   C4049     1.0  0.74027  0.62164  0.76813  1.0000
  H   H7173     1.0  0.91773  0.49141  0.74196  1.0000
  C   C4050     1.0  0.72689  0.89314  0.59136  1.0000
  H   H7174     1.0  0.87890  0.52825  0.59741  1.0000
  H   H7175     1.0  0.90295  0.74603  0.60567  1.0000
  H   H7176     1.0  0.72256  0.92553  0.65961  1.0000
  H   H7177     1.0  0.65805  0.83735  0.68374  1.0000
  H   H7178     1.0  0.66646  0.84755  0.69704  1.0000
  H   H7179     1.0  0.67704  0.82535  0.69353  1.0000
  H   H7180     1.0  0.89603  0.76919  0.59557  1.0000
  H   H7181     1.0  0.49869  0.57207  0.75063  1.0000
  H   H7182     1.0  0.77088  0.63808  0.75775  1.0000
  H   H7183     1.0  0.74181  0.85507  0.63312  1.0000
  H   H7184     1.0  0.62808  0.95669  0.60200  1.0000
  S   S905      1.0  0.92195  0.61340  0.59262  1.0000
  H   H7185     1.0  0.83348  0.48468  0.72748  1.0000
  H   H7186     1.0  0.81034  0.71687  0.61220  1.0000
  H   H7187     1.0  0.95237  0.55523  0.62312  1.0000
  H   H7188     1.0  0.76493  0.76279  0.62989  1.0000
  H   H7189     1.0  0.75306  0.79627  0.62114  1.0000
  H   H7190     1.0  0.97404  0.69251  0.58677  1.0000
  H   H7191     1.0  0.90405  0.53663  0.70076  1.0000
  N   N228      1.0  0.65014  0.91027  0.77209  1.0000
  C   C4051     1.0  0.79001  0.59140  0.77145  1.0000
  C   C4052     1.0  0.76995  0.60262  0.71780  1.0000
  H   H7192     1.0  0.81503  0.78813  0.62720  1.0000
  H   H7193     1.0  0.74564  0.86811  0.64620  1.0000
  C   C4053     1.0  0.88478  0.52577  0.62353  1.0000
  H   H7194     1.0  0.89543  0.54030  0.59732  1.0000
  H   H7195     1.0  0.71028  0.89933  0.63347  1.0000
  H   H7196     1.0  0.90163  0.56318  0.61887  1.0000
  C   C4054     1.0  0.85943  0.53360  0.68827  1.0000
  H   H7197     1.0  0.87939  0.59115  0.62217  1.0000
  H   H7198     1.0  0.61506  0.96786  0.77537  1.0000
  H   H7199     1.0  0.74628  0.79261  0.60253  1.0000
  H   H7200     1.0  0.77833  0.73278  0.61978  1.0000
  C   C4055     1.0  0.96337  0.73437  0.60835  1.0000
  H   H7201     1.0  0.66444  0.95298  0.57807  1.0000
  H   H7202     1.0  0.95442  0.73757  0.62094  1.0000
  C   C4056     1.0  0.88107  0.75143  0.59265  1.0000
  H   H7203     1.0  0.75934  0.76690  0.58338  1.0000
  H   H7204     1.0  0.55361  0.78406  0.74843  1.0000
  H   H7205     1.0  0.59135  0.93089  0.62350  1.0000
  H   H7206     1.0  0.90456  0.51021  0.65801  1.0000
  C   C4057     1.0  0.51969  0.74325  0.77531  1.0000
  H   H7207     1.0  0.85595  0.52905  0.65663  1.0000
  C   C4058     1.0  0.58850  0.95885  0.62232  1.0000
  C   C4059     1.0  0.90905  0.57456  0.63765  1.0000
  H   H7208     1.0  0.81360  0.54869  0.77365  1.0000
  H   H7209     1.0  0.72310  0.63552  0.73916  1.0000
  H   H7210     1.0  0.74365  0.91107  0.63645  1.0000
  H   H7211     1.0  0.79212  0.64209  0.77380  1.0000
  H   H7212     1.0  0.84590  0.70882  0.57943  1.0000
  H   H7213     1.0  0.93893  0.54786  0.59120  1.0000
  Fe  Fe450     1.0  0.64726  0.97369  0.71275  1.0000
  H   H7214     1.0  0.56934  0.77906  0.76280  1.0000
  H   H7215     1.0  0.67809  0.65629  0.76047  1.0000
  H   H7216     1.0  0.53474  0.55045  0.76007  1.0000
  C   C4060     1.0  0.61716  0.90122  0.62816  1.0000
  H   H7217     1.0  0.75772  0.66011  0.75950  1.0000
  C   C4061     1.0  0.68385  0.93838  0.73915  1.0000
  H   H7218     1.0  0.55214  0.79910  0.76282  1.0000
  H   H7219     1.0  0.74059  0.89483  0.58425  1.0000
  H   H7220     1.0  0.65175  0.96570  0.62250  1.0000
  H   H7221     1.0  0.96306  0.63801  0.61413  1.0000
  H   H7222     1.0  0.72445  0.91186  0.61694  1.0000
  Fe  Fe451     1.0  0.64494  0.72128  0.76931  1.0000
  H   H7223     1.0  0.71251  0.61773  0.74230  1.0000
  H   H7224     1.0  0.75610  0.59291  0.75274  1.0000
  H   H7225     1.0  0.56656  0.91330  0.77300  1.0000
  C   C4062     1.0  0.60427  0.84894  0.73613  1.0000
  H   H7226     1.0  0.49373  0.80541  0.76801  1.0000
  H   H7227     1.0  0.50394  0.59728  0.73221  1.0000
  C   C4063     1.0  0.76695  0.87080  0.60516  1.0000
  H   H7228     1.0  0.57898  0.88805  0.71453  1.0000
  H   H7229     1.0  0.93204  0.49134  0.75631  1.0000
  H   H7230     1.0  0.63187  0.87574  0.58604  1.0000
  H   H7231     1.0  0.63278  0.98038  0.61400  1.0000
  S   S906      1.0  0.59263  0.88047  0.76887  1.0000
  Fe  Fe452     1.0  0.94108  0.63165  0.58766  1.0000
  H   H7232     1.0  0.84696  0.54196  0.68414  1.0000
  H   H7233     1.0  0.73331  0.86608  0.60642  1.0000
  H   H7234     1.0  0.58200  0.95954  0.63637  1.0000
  H   H7235     1.0  0.50189  0.55797  0.77147  1.0000
  H   H7236     1.0  0.87619  0.76007  0.58070  1.0000
  C   C4064     1.0  0.86813  0.51991  0.66087  1.0000
  H   H7237     1.0  0.60968  0.87364  0.71738  1.0000
  H   H7238     1.0  0.49749  0.62422  0.71004  1.0000
  H   H7239     1.0  0.94925  0.56445  0.65049  1.0000
  H   H7240     1.0  0.58897  0.83606  0.71649  1.0000
  H   H7241     1.0  0.62704  0.92326  0.66506  1.0000
  C   C4065     1.0  0.60053  0.94027  0.62073  1.0000
  H   H7242     1.0  0.94800  0.60259  0.65057  1.0000
  C   C4066     1.0  0.63107  0.88438  0.62496  1.0000
  C   C4067     1.0  0.74898  0.78643  0.61608  1.0000
  S   S907      1.0  0.66468  0.96664  0.68713  1.0000
  H   H7243     1.0  0.94239  0.52774  0.62940  1.0000
  N   N229      1.0  0.92675  0.56270  0.64065  1.0000
  H   H7244     1.0  0.87077  0.75417  0.60467  1.0000
  H   H7245     1.0  0.62432  0.87354  0.62540  1.0000
  C   C4068     1.0  0.64383  0.96876  0.61197  1.0000
  H   H7246     1.0  0.58521  0.81571  0.70005  1.0000
  H   H7247     1.0  0.76839  0.85802  0.61505  1.0000
  H   H7248     1.0  0.67773  0.90553  0.75780  1.0000
  H   H7249     1.0  0.90424  0.52534  0.68367  1.0000
  H   H7250     1.0  0.50738  0.63084  0.75712  1.0000
  H   H7251     1.0  0.78816  0.77713  0.62644  1.0000
  C   C4069     1.0  0.70097  0.63422  0.76198  1.0000
  N   N230      1.0  0.49584  0.59667  0.77141  1.0000
  H   H7252     1.0  0.71862  0.90635  0.59346  1.0000
  H   H7253     1.0  0.61613  0.95883  0.63601  1.0000
  H   H7254     1.0  0.63339  0.91993  0.61290  1.0000
  H   H7255     1.0  0.63913  0.87994  0.63548  1.0000
  S   S908      1.0  0.97093  0.62220  0.58315  1.0000
  H   H7256     1.0  0.80072  0.74922  0.61649  1.0000
  C   C4070     1.0  0.80276  0.57675  0.76611  1.0000
  H   H7257     1.0  0.60900  0.90484  0.61776  1.0000
  H   H7258     1.0  0.92501  0.52518  0.68954  1.0000
  C   C4071     1.0  0.64629  0.88692  0.75649  1.0000
  N   N231      1.0  0.73558  0.88349  0.62249  1.0000
  H   H7259     1.0  0.53183  0.56445  0.73852  1.0000
  C   C4072     1.0  0.72459  0.90035  0.62845  1.0000
  C   C4073     1.0  0.73624  0.86775  0.63805  1.0000
  C   C4074     1.0  0.74580  0.60267  0.74595  1.0000
  H   H7260     1.0  0.91237  0.49881  0.63948  1.0000
  C   C4075     1.0  0.59989  0.86483  0.72049  1.0000
  C   C4076     1.0  0.71804  0.86571  0.65092  1.0000
  C   C4077     1.0  0.63274  0.92254  0.76863  1.0000
  H   H7261     1.0  0.90135  0.51647  0.59979  1.0000
  H   H7262     1.0  0.87705  0.50835  0.68624  1.0000
  H   H7263     1.0  0.95042  0.58563  0.61903  1.0000
  H   H7264     1.0  0.76490  0.62047  0.73535  1.0000
  H   H7265     1.0  0.59649  0.96941  0.61689  1.0000
  H   H7266     1.0  0.73002  0.65064  0.76333  1.0000
  Fe  Fe453     1.0  0.87214  0.54760  0.76685  1.0000
  H   H7267     1.0  0.60753  0.85517  0.74567  1.0000
  H   H7268     1.0  0.57081  0.86824  0.72702  1.0000
  H   H7269     1.0  0.77757  0.73879  0.59655  1.0000
  H   H7270     1.0  0.65801  0.88810  0.74527  1.0000
  H   H7271     1.0  0.76104  0.88748  0.62434  1.0000
  H   H7272     1.0  0.72117  0.79556  0.62791  1.0000
  C   C4078     1.0  0.75441  0.88608  0.61411  1.0000
  C   C4079     1.0  0.73111  0.90603  0.64263  1.0000
  H   H7273     1.0  0.94434  0.52409  0.59908  1.0000
  H   H7274     1.0  0.60465  0.79983  0.70582  1.0000
  H   H7275     1.0  0.52658  0.61288  0.76043  1.0000
  H   H7276     1.0  0.62543  0.79130  0.59104  1.0000
  H   H7277     1.0  0.69175  0.62485  0.76851  1.0000
  C   C4080     1.0  0.92047  0.48403  0.66377  1.0000
  C   C4081     1.0  0.75791  0.64560  0.76413  1.0000
  C   C4082     1.0  0.94535  0.53711  0.60109  1.0000
  S   S909      1.0  0.61791  0.77021  0.76357  1.0000
  C   C4083     1.0  0.73125  0.78284  0.62817  1.0000
  C   C4084     1.0  0.52532  0.55613  0.75079  1.0000
  C   C4085     1.0  0.66504  0.91558  0.75691  1.0000
  H   H7278     1.0  0.52370  0.71943  0.76486  1.0000
  C   C4086     1.0  0.74249  0.64107  0.75901  1.0000
  H   H7279     1.0  0.64044  0.86548  0.74801  1.0000
  H   H7280     1.0  0.59854  0.94005  0.76722  1.0000
  H   H7281     1.0  0.74801  0.62457  0.72218  1.0000
  Fe  Fe454     1.0  0.91276  0.66567  0.58202  1.0000
  C   C4087     1.0  0.80542  0.63294  0.77209  1.0000
  H   H7282     1.0  0.65513  0.85801  0.76374  1.0000
  H   H7283     1.0  0.75431  0.89886  0.60410  1.0000
  H   H7284     1.0  0.56477  0.95328  0.61730  1.0000
  C   C4088     1.0  0.71886  0.88683  0.57904  1.0000
  H   H7285     1.0  0.91581  0.48286  0.67842  1.0000
  H   H7286     1.0  0.52848  0.64060  0.76827  1.0000
  H   H7287     1.0  0.68662  0.64748  0.74042  1.0000
  H   H7288     1.0  0.79188  0.87605  0.60776  1.0000
  C   C4089     1.0  0.97211  0.57500  0.57717  1.0000
  C   C4090     1.0  0.51300  0.73132  0.76719  1.0000
  H   H7289     1.0  0.88279  0.73719  0.59217  1.0000
  H   H7290     1.0  0.71091  0.74627  0.77351  1.0000
  H   H7291     1.0  0.53141  0.74747  0.76555  1.0000
  H   H7292     1.0  0.81581  0.64118  0.76658  1.0000
  H   H7293     1.0  0.60907  0.84454  0.77535  1.0000
  H   H7294     1.0  0.88580  0.48481  0.67293  1.0000
  C   C4091     1.0  0.52284  0.78239  0.77599  1.0000
  H   H7295     1.0  0.70480  0.63821  0.77267  1.0000
  C   C4092     1.0  0.64970  0.89108  0.77326  1.0000
  H   H7296     1.0  0.71537  0.59238  0.76675  1.0000
  Fe  Fe455     1.0  0.64149  0.75799  0.77647  1.0000
  C   C4093     1.0  0.72274  0.59857  0.77298  1.0000
  C   C4094     1.0  0.56824  0.70734  0.77319  1.0000
  H   H7297     1.0  0.69860  0.66130  0.74604  1.0000
  H   H7298     1.0  0.61419  0.89484  0.58098  1.0000
  H   H7299     1.0  0.78507  0.88716  0.58679  1.0000
  H   H7300     1.0  0.91192  0.48265  0.76566  1.0000
  C   C4095     1.0  0.86911  0.48261  0.77266  1.0000
  S   S910      1.0  0.65560  0.69149  0.77563  1.0000
  H   H7301     1.0  0.50114  0.72671  0.77642  1.0000
  C   C4096     1.0  0.54290  0.77445  0.77657  1.0000
  H   H7302     1.0  0.65185  0.92753  0.57708  1.0000
  H   H7303     1.0  0.64315  0.77265  0.84372  1.0000
  H   H7304     1.0  0.75090  0.48480  0.94996  1.0000
  S   S911      1.0  0.51345  0.54158  0.80373  1.0000
  Fe  Fe456     1.0  0.58655  0.55272  0.89848  1.0000
  S   S912      1.0  0.58870  0.54495  0.87257  1.0000
  S   S913      1.0  0.59854  0.53301  0.92067  1.0000
  Fe  Fe457     1.0  0.56921  0.59112  0.88466  1.0000
  S   S914      1.0  0.57032  0.58679  0.85749  1.0000
  S   S915      1.0  0.55954  0.61699  0.89395  1.0000
  Fe  Fe458     1.0  0.56087  0.56147  0.87265  1.0000
  S   S916      1.0  0.53675  0.55185  0.87088  1.0000
  Fe  Fe459     1.0  0.59806  0.57075  0.85986  1.0000
  S   S917      1.0  0.62363  0.57146  0.83880  1.0000
  S   S918      1.0  0.55800  0.56710  0.89984  1.0000
  S   S919      1.0  0.59751  0.57730  0.88582  1.0000
  Fe  Fe460     1.0  0.74547  0.59332  0.82980  1.0000
  S   S920      1.0  0.75453  0.61711  0.83210  1.0000
  Fe  Fe461     1.0  0.70675  0.60599  0.84772  1.0000
  S   S921      1.0  0.71278  0.63088  0.85120  1.0000
  S   S922      1.0  0.67855  0.60285  0.86129  1.0000
  Fe  Fe462     1.0  0.72884  0.63246  0.82339  1.0000
  S   S923      1.0  0.72778  0.65873  0.80365  1.0000
  Fe  Fe463     1.0  0.73754  0.61329  0.85976  1.0000
  S   S924      1.0  0.74204  0.61534  0.88606  1.0000
  S   S925      1.0  0.72094  0.60888  0.81904  1.0000
  S   S926      1.0  0.73046  0.58830  0.85820  1.0000
  C   C4097     1.0  0.51558  0.76220  0.80536  1.0000
  H   H7305     1.0  0.80895  0.49553  0.93387  1.0000
  S   S927      1.0  0.63032  0.73416  0.79254  1.0000
  H   H7306     1.0  0.71305  0.98103  0.94502  1.0000
  H   H7307     1.0  0.95635  0.94441  0.96446  1.0000
  H   H7308     1.0  0.50737  0.61375  0.89213  1.0000
  H   H7309     1.0  0.88987  0.52798  0.96737  1.0000
  H   H7310     1.0  0.60723  0.97850  0.95701  1.0000
  H   H7311     1.0  0.67601  0.58665  0.95582  1.0000
  Fe  Fe464     1.0  0.59423  0.85009  0.83161  1.0000
  S   S928      1.0  0.58165  0.86931  0.85006  1.0000
  S   S929      1.0  0.60264  0.82041  0.84184  1.0000
  Fe  Fe465     1.0  0.58680  0.87844  0.79864  1.0000
  S   S930      1.0  0.57308  0.89980  0.81437  1.0000
  C   C4098     1.0  0.66460  0.74320  0.83030  1.0000
  Fe  Fe466     1.0  0.59583  0.88909  0.82908  1.0000
  S   S931      1.0  0.61328  0.90765  0.82999  1.0000
  Fe  Fe467     1.0  0.56004  0.87832  0.83394  1.0000
  S   S932      1.0  0.53102  0.88082  0.84845  1.0000
  S   S933      1.0  0.61034  0.86883  0.81196  1.0000
  S   S934      1.0  0.57190  0.85800  0.81683  1.0000
  C   C4099     1.0  0.93407  0.97808  0.95684  1.0000
  H   H7312     1.0  0.51406  0.85898  0.80379  1.0000
  C   C4100     1.0  0.52183  0.86825  0.82339  1.0000
  H   H7313     1.0  0.60992  0.49820  0.97668  1.0000
  H   H7314     1.0  0.67513  0.64135  0.87115  1.0000
  S   S935      1.0  0.61244  0.94838  0.88984  1.0000
  Fe  Fe468     1.0  0.93376  0.49843  0.85548  1.0000
  H   H7315     1.0  0.82470  0.48368  0.90703  1.0000
  S   S936      1.0  0.94112  0.51600  0.82859  1.0000
  H   H7316     1.0  0.88277  0.49719  0.78218  1.0000
  H   H7317     1.0  0.50811  0.63980  0.78486  1.0000
  H   H7318     1.0  0.49425  0.79382  0.80160  1.0000
  H   H7319     1.0  0.78107  0.49439  0.96394  1.0000
  H   H7320     1.0  0.64352  0.95587  0.80378  1.0000
  S   S937      1.0  0.87053  0.50128  0.88405  1.0000
  C   C4101     1.0  0.51112  0.74123  0.83562  1.0000
  S   S938      1.0  0.91751  0.51013  0.87897  1.0000
  H   H7321     1.0  0.61037  0.63613  0.85431  1.0000
  C   C4102     1.0  0.89519  0.48841  0.81407  1.0000
  H   H7322     1.0  0.66755  0.50198  0.91401  1.0000
  C   C4103     1.0  0.59800  0.63509  0.86466  1.0000
  C   C4104     1.0  0.50697  0.59935  0.89531  1.0000
  C   C4105     1.0  0.51083  0.86059  0.81747  1.0000
  H   H7323     1.0  0.56345  0.63176  0.80319  1.0000
  S   S939      1.0  0.80408  0.58808  0.96018  1.0000
  Fe  Fe469     1.0  0.81910  0.53693  0.96155  1.0000
  S   S940      1.0  0.83765  0.55564  0.94834  1.0000
  S   S941      1.0  0.82895  0.50768  0.96218  1.0000
  C   C4106     1.0  0.78144  0.49892  0.93027  1.0000
  H   H7324     1.0  0.64127  0.49094  0.96138  1.0000
  Fe  Fe470     1.0  0.81415  0.57340  0.93741  1.0000
  S   S942      1.0  0.81749  0.58400  0.90781  1.0000
  H   H7325     1.0  0.50415  0.92982  0.96834  1.0000
  S   S943      1.0  0.79648  0.55352  0.94884  1.0000
  C   C4107     1.0  0.76864  0.51953  0.97239  1.0000
  C   C4108     1.0  0.59967  0.93273  0.78095  1.0000
  H   H7326     1.0  0.72517  0.56396  0.91731  1.0000
  H   H7327     1.0  0.81898  0.57648  0.79976  1.0000
  H   H7328     1.0  0.73710  0.56557  0.93921  1.0000
  H   H7329     1.0  0.82881  0.57078  0.83629  1.0000
  C   C4109     1.0  0.95207  0.50428  0.92408  1.0000
  C   C4110     1.0  0.96831  0.52891  0.93121  1.0000
  C   C4111     1.0  0.96326  0.53182  0.91475  1.0000
  C   C4112     1.0  0.95504  0.51962  0.91122  1.0000
  H   H7330     1.0  0.96583  0.54350  0.90467  1.0000
  H   H7331     1.0  0.95124  0.52194  0.89851  1.0000
  C   C4113     1.0  0.85860  0.50220  0.90581  1.0000
  C   C4114     1.0  0.84400  0.51630  0.90857  1.0000
  C   C4115     1.0  0.83510  0.51813  0.92592  1.0000
  C   C4116     1.0  0.84003  0.50521  0.94052  1.0000
  C   C4117     1.0  0.85399  0.49055  0.93773  1.0000
  H   H7332     1.0  0.68243  0.90723  0.78441  1.0000
  H   H7333     1.0  0.83991  0.52612  0.89730  1.0000
  H   H7334     1.0  0.82428  0.52943  0.92795  1.0000
  H   H7335     1.0  0.56200  0.53449  0.94803  1.0000
  H   H7336     1.0  0.64448  0.96017  0.78007  1.0000
  C   C4118     1.0  0.88954  0.53269  0.82322  1.0000
  C   C4119     1.0  0.90492  0.52668  0.83054  1.0000
  C   C4120     1.0  0.92188  0.52529  0.81938  1.0000
  H   H7337     1.0  0.84728  0.52678  0.83617  1.0000
  H   H7338     1.0  0.87651  0.53379  0.83197  1.0000
  H   H7339     1.0  0.90360  0.52296  0.84485  1.0000
  H   H7340     1.0  0.71454  0.59324  0.89923  1.0000
  C   C4121     1.0  0.51679  0.65722  0.88964  1.0000
  C   C4122     1.0  0.96527  0.51362  0.94403  1.0000
  C   C4123     1.0  0.61221  0.91901  0.84686  1.0000
  C   C4124     1.0  0.60138  0.91561  0.86383  1.0000
  C   C4125     1.0  0.60148  0.92475  0.87690  1.0000
  C   C4126     1.0  0.61211  0.93758  0.87297  1.0000
  C   C4127     1.0  0.62262  0.94123  0.85585  1.0000
  C   C4128     1.0  0.62283  0.93183  0.84295  1.0000
  H   H7341     1.0  0.59317  0.90576  0.86699  1.0000
  H   H7342     1.0  0.59332  0.92184  0.89011  1.0000
  H   H7343     1.0  0.63091  0.95101  0.85268  1.0000
  H   H7344     1.0  0.63133  0.93443  0.82990  1.0000
  C   C4129     1.0  0.74707  0.56789  0.96104  1.0000
  H   H7345     1.0  0.53341  0.87254  0.81426  1.0000
  C   C4130     1.0  0.63929  0.78755  0.80181  1.0000
  C   C4131     1.0  0.64495  0.80122  0.80570  1.0000
  C   C4132     1.0  0.63350  0.81173  0.81756  1.0000
  C   C4133     1.0  0.61653  0.80823  0.82598  1.0000
  C   C4134     1.0  0.61102  0.79424  0.82246  1.0000
  C   C4135     1.0  0.62227  0.78408  0.81015  1.0000
  H   H7346     1.0  0.65814  0.80387  0.79935  1.0000
  H   H7347     1.0  0.63789  0.82235  0.82045  1.0000
  H   H7348     1.0  0.59801  0.79135  0.82917  1.0000
  H   H7349     1.0  0.61789  0.77346  0.80728  1.0000
  S   S944      1.0  0.49380  0.67206  0.86708  1.0000
  S   S945      1.0  0.97876  0.54439  0.93514  1.0000
  S   S946      1.0  0.49198  0.50463  0.79513  1.0000
  H   H7350     1.0  0.63602  0.52355  0.90347  1.0000
  H   H7351     1.0  0.58703  0.92812  0.78762  1.0000
  C   C4136     1.0  0.77878  0.58946  0.78847  1.0000
  H   H7352     1.0  0.60945  0.64267  0.88322  1.0000
  H   H7353     1.0  0.67461  0.95269  0.78809  1.0000
  S   S947      1.0  0.64791  0.97850  0.86008  1.0000
  H   H7354     1.0  0.67973  0.53031  0.87880  1.0000
  H   H7355     1.0  0.56234  0.82328  0.78008  1.0000
  C   C4137     1.0  0.69365  0.65855  0.80135  1.0000
  C   C4138     1.0  0.86139  0.49927  0.84351  1.0000
  H   H7356     1.0  0.88573  0.57502  0.78215  1.0000
  H   H7357     1.0  0.68626  0.51299  0.90478  1.0000
  H   H7358     1.0  0.69502  0.64573  0.81044  1.0000
  H   H7359     1.0  0.85913  0.48782  0.85472  1.0000
  C   C4139     1.0  0.76305  0.60559  0.89180  1.0000
  C   C4140     1.0  0.76462  0.60368  0.90943  1.0000
  C   C4141     1.0  0.78122  0.59665  0.91444  1.0000
  C   C4142     1.0  0.79649  0.59183  0.90173  1.0000
  C   C4143     1.0  0.79497  0.59343  0.88411  1.0000
  C   C4144     1.0  0.77821  0.60013  0.87916  1.0000
  H   H7360     1.0  0.75300  0.60773  0.91927  1.0000
  H   H7361     1.0  0.78226  0.59539  0.92807  1.0000
  H   H7362     1.0  0.80675  0.58941  0.87437  1.0000
  H   H7363     1.0  0.77706  0.60142  0.86556  1.0000
  C   C4145     1.0  0.63906  0.58148  0.84333  1.0000
  C   C4146     1.0  0.65744  0.57703  0.83595  1.0000
  C   C4147     1.0  0.66987  0.58417  0.84052  1.0000
  C   C4148     1.0  0.66387  0.59569  0.85256  1.0000
  C   C4149     1.0  0.64550  0.60072  0.85918  1.0000
  C   C4150     1.0  0.63316  0.59373  0.85455  1.0000
  H   H7364     1.0  0.66207  0.56775  0.82703  1.0000
  H   H7365     1.0  0.68402  0.58039  0.83515  1.0000
  H   H7366     1.0  0.64082  0.61007  0.86799  1.0000
  H   H7367     1.0  0.61905  0.59789  0.85959  1.0000
  C   C4151     1.0  0.54107  0.63160  0.88625  1.0000
  C   C4152     1.0  0.53630  0.63055  0.87077  1.0000
  C   C4153     1.0  0.52190  0.64310  0.86459  1.0000
  C   C4154     1.0  0.51208  0.65638  0.87410  1.0000
  C   C4155     1.0  0.53142  0.64504  0.89553  1.0000
  H   H7368     1.0  0.54374  0.62019  0.86354  1.0000
  H   H7369     1.0  0.51821  0.64232  0.85269  1.0000
  H   H7370     1.0  0.53512  0.64590  0.90747  1.0000
  C   C4156     1.0  0.52026  0.54388  0.82245  1.0000
  C   C4157     1.0  0.51121  0.53810  0.83980  1.0000
  C   C4158     1.0  0.51668  0.54041  0.85444  1.0000
  C   C4159     1.0  0.53138  0.54831  0.85192  1.0000
  C   C4160     1.0  0.54054  0.55405  0.83457  1.0000
  C   C4161     1.0  0.53491  0.55192  0.81988  1.0000
  C   C4162     1.0  0.68045  0.97700  0.94681  1.0000
  H   H7371     1.0  0.50952  0.53596  0.86783  1.0000
  H   H7372     1.0  0.55185  0.56019  0.83249  1.0000
  H   H7373     1.0  0.54203  0.55638  0.80649  1.0000
  C   C4163     1.0  0.92335  0.53036  0.80082  1.0000
  C   C4164     1.0  0.60373  0.54263  0.93592  1.0000
  C   C4165     1.0  0.61449  0.53187  0.94779  1.0000
  H   H7374     1.0  0.79650  0.56803  0.84236  1.0000
  H   H7375     1.0  0.65667  0.51511  0.88992  1.0000
  H   H7376     1.0  0.61946  0.51792  0.94742  1.0000
  C   C4166     1.0  0.77940  0.50886  0.95773  1.0000
  H   H7377     1.0  0.75796  0.57390  0.95250  1.0000
  H   H7378     1.0  0.49571  0.78539  0.83418  1.0000
  C   C4167     1.0  0.51376  0.61026  0.83291  1.0000
  H   H7379     1.0  0.96213  0.98108  0.95217  1.0000
  H   H7380     1.0  0.49860  0.86794  0.86595  1.0000
  C   C4168     1.0  0.53267  0.60353  0.82301  1.0000
  C   C4169     1.0  0.67119  0.90252  0.79462  1.0000
  H   H7381     1.0  0.51916  0.59427  0.86917  1.0000
  H   H7382     1.0  0.58786  0.49781  0.94966  1.0000
  C   C4170     1.0  0.90789  0.53581  0.79347  1.0000
  C   C4171     1.0  0.80176  0.49835  0.92283  1.0000
  C   C4172     1.0  0.86284  0.49457  0.82525  1.0000
  H   H7383     1.0  0.66859  0.97215  0.79782  1.0000
  N   N232      1.0  0.68244  0.60660  0.91951  1.0000
  H   H7384     1.0  0.55641  0.84623  0.78259  1.0000
  H   H7385     1.0  0.53235  0.59601  0.81307  1.0000
  H   H7386     1.0  0.60301  0.69919  0.80858  1.0000
  H   H7387     1.0  0.66574  0.96665  0.93345  1.0000
  H   H7388     1.0  0.61193  0.61893  0.88556  1.0000
  H   H7389     1.0  0.67080  0.92055  0.81151  1.0000
  C   C4173     1.0  0.58286  0.65192  0.86175  1.0000
  C   C4174     1.0  0.57869  0.64222  0.83630  1.0000
  H   H7390     1.0  0.55287  0.64750  0.82830  1.0000
  H   H7391     1.0  0.66653  0.73375  0.79893  1.0000
  H   H7392     1.0  0.64245  0.56630  0.88593  1.0000
  H   H7393     1.0  0.67322  0.88787  0.79613  1.0000
  H   H7394     1.0  0.58653  0.66262  0.86596  1.0000
  H   H7395     1.0  0.74297  0.58851  0.78978  1.0000
  H   H7396     1.0  0.63763  0.59478  0.89784  1.0000
  H   H7397     1.0  0.56621  0.69734  0.84088  1.0000
  H   H7398     1.0  0.65052  0.92636  0.79035  1.0000
  C   C4175     1.0  0.60276  0.63207  0.88288  1.0000
  N   N233      1.0  0.57901  0.65830  0.84312  1.0000
  C   C4176     1.0  0.55893  0.68789  0.85133  1.0000
  C   C4177     1.0  0.59937  0.97548  0.94881  1.0000
  C   C4178     1.0  0.64248  0.55712  0.89920  1.0000
  H   H7399     1.0  0.70283  0.73489  0.80622  1.0000
  C   C4179     1.0  0.66299  0.97630  0.94230  1.0000
  H   H7400     1.0  0.61102  0.97322  0.82016  1.0000
  H   H7401     1.0  0.52844  0.75261  0.80255  1.0000
  C   C4180     1.0  0.89097  0.53669  0.80473  1.0000
  H   H7402     1.0  0.66702  0.65870  0.79897  1.0000
  H   H7403     1.0  0.59056  0.63199  0.89367  1.0000
  H   H7404     1.0  0.58606  0.96011  0.84004  1.0000
  H   H7405     1.0  0.58671  0.51376  0.96203  1.0000
  H   H7406     1.0  0.89391  0.59274  0.78569  1.0000
  H   H7407     1.0  0.68613  0.96331  0.95336  1.0000
  N   N234      1.0  0.88902  0.55329  0.90110  1.0000
  C   C4181     1.0  0.90877  0.55337  0.89752  1.0000
  C   C4182     1.0  0.88532  0.53525  0.91186  1.0000
  C   C4183     1.0  0.88395  0.55625  0.88328  1.0000
  C   C4184     1.0  0.87765  0.56808  0.91034  1.0000
  C   C4185     1.0  0.88200  0.56842  0.92819  1.0000
  C   C4186     1.0  0.91466  0.57093  0.88661  1.0000
  C   C4187     1.0  0.86401  0.55662  0.88403  1.0000
  C   C4188     1.0  0.89817  0.52423  0.92451  1.0000
  C   C4189     1.0  0.89244  0.50689  0.93507  1.0000
  C   C4190     1.0  0.87104  0.58504  0.93525  1.0000
  C   C4191     1.0  0.93451  0.56967  0.88576  1.0000
  C   C4192     1.0  0.86135  0.55408  0.86648  1.0000
  H   H7408     1.0  0.91665  0.54257  0.89031  1.0000
  H   H7409     1.0  0.91367  0.55022  0.91012  1.0000
  H   H7410     1.0  0.87141  0.53669  0.91999  1.0000
  H   H7411     1.0  0.88576  0.52626  0.90292  1.0000
  H   H7412     1.0  0.89252  0.54581  0.87584  1.0000
  H   H7413     1.0  0.88644  0.56921  0.87471  1.0000
  H   H7414     1.0  0.87817  0.58133  0.90128  1.0000
  H   H7415     1.0  0.86327  0.56727  0.91340  1.0000
  H   H7416     1.0  0.89629  0.56862  0.92667  1.0000
  H   H7417     1.0  0.87863  0.55661  0.93840  1.0000
  H   H7418     1.0  0.91291  0.57361  0.87266  1.0000
  H   H7419     1.0  0.90701  0.58248  0.89272  1.0000
  H   H7420     1.0  0.85561  0.56969  0.88655  1.0000
  H   H7421     1.0  0.85887  0.54610  0.89484  1.0000
  H   H7422     1.0  0.91192  0.52041  0.91673  1.0000
  H   H7423     1.0  0.89874  0.53188  0.93410  1.0000
  H   H7424     1.0  0.90132  0.49989  0.94465  1.0000
  H   H7425     1.0  0.87841  0.50957  0.94257  1.0000
  H   H7426     1.0  0.89370  0.49795  0.92589  1.0000
  H   H7427     1.0  0.85648  0.58601  0.93667  1.0000
  H   H7428     1.0  0.87358  0.58437  0.94859  1.0000
  H   H7429     1.0  0.87487  0.59728  0.92611  1.0000
  H   H7430     1.0  0.93861  0.58215  0.87752  1.0000
  H   H7431     1.0  0.93704  0.56784  0.89934  1.0000
  H   H7432     1.0  0.94288  0.55830  0.87964  1.0000
  H   H7433     1.0  0.86877  0.54071  0.86392  1.0000
  H   H7434     1.0  0.84690  0.55496  0.86730  1.0000
  H   H7435     1.0  0.86608  0.56453  0.85518  1.0000
  H   H7436     1.0  0.69822  0.55923  0.85847  1.0000
  H   H7437     1.0  0.70906  0.53842  0.87080  1.0000
  H   H7438     1.0  0.65537  0.75183  0.82151  1.0000
  H   H7439     1.0  0.55669  0.67531  0.83143  1.0000
  H   H7440     1.0  0.61693  0.48789  0.94757  1.0000
  H   H7441     1.0  0.90909  0.53903  0.77915  1.0000
  C   C4193     1.0  0.60933  0.95779  0.94333  1.0000
  H   H7442     1.0  0.61842  0.58559  0.91085  1.0000
  C   C4194     1.0  0.49117  0.85790  0.84656  1.0000
  C   C4195     1.0  0.63980  0.69170  0.83038  1.0000
  C   C4196     1.0  0.56736  0.64531  0.82196  1.0000
  H   H7443     1.0  0.66276  0.73500  0.85941  1.0000
  H   H7444     1.0  0.50922  0.66744  0.89704  1.0000
  H   H7445     1.0  0.79278  0.54494  0.80305  1.0000
  H   H7446     1.0  0.64967  0.71409  0.84580  1.0000
  H   H7447     1.0  0.89650  0.98023  0.96565  1.0000
  C   C4197     1.0  0.66607  0.60802  0.93437  1.0000
  H   H7448     1.0  0.84027  0.59800  0.82782  1.0000
  H   H7449     1.0  0.55051  0.66325  0.85332  1.0000
  H   H7450     1.0  0.70858  0.72340  0.77833  1.0000
  C   C4198     1.0  0.77953  0.57265  0.79977  1.0000
  C   C4199     1.0  0.71780  0.61990  0.93761  1.0000
  H   H7451     1.0  0.70732  0.62815  0.94617  1.0000
  H   H7452     1.0  0.52355  0.73172  0.83136  1.0000
  C   C4200     1.0  0.66616  0.96632  0.78753  1.0000
  H   H7453     1.0  0.64148  0.74060  0.85263  1.0000
  H   H7454     1.0  0.68938  0.49200  0.93341  1.0000
  H   H7455     1.0  0.50125  0.59037  0.83046  1.0000
  H   H7456     1.0  0.63324  0.69073  0.84469  1.0000
  H   H7457     1.0  0.63066  0.70116  0.82204  1.0000
  H   H7458     1.0  0.64232  0.67836  0.82703  1.0000
  H   H7459     1.0  0.66422  0.76739  0.85090  1.0000
  H   H7460     1.0  0.69608  0.58068  0.93192  1.0000
  S   S948      1.0  0.49305  0.69053  0.78762  1.0000
  H   H7461     1.0  0.64402  0.76359  0.86685  1.0000
  C   C4201     1.0  0.50269  0.75147  0.81963  1.0000
  C   C4202     1.0  0.54937  0.70794  0.80239  1.0000
  N   N235      1.0  0.77184  0.51299  0.94110  1.0000
  C   C4203     1.0  0.59282  0.67513  0.81188  1.0000
  H   H7462     1.0  0.56359  0.51838  0.93484  1.0000
  C   C4204     1.0  0.77455  0.53128  0.93075  1.0000
  H   H7463     1.0  0.55327  0.72618  0.81636  1.0000
  C   C4205     1.0  0.76931  0.53734  0.91222  1.0000
  H   H7464     1.0  0.83456  0.61844  0.81304  1.0000
  C   C4206     1.0  0.64701  0.52765  0.89229  1.0000
  C   C4207     1.0  0.77282  0.55600  0.90325  1.0000
  H   H7465     1.0  0.65326  0.97202  0.95458  1.0000
  H   H7466     1.0  0.62016  0.67981  0.80383  1.0000
  H   H7467     1.0  0.62342  0.95857  0.93680  1.0000
  H   H7468     1.0  0.78872  0.53234  0.92879  1.0000
  H   H7469     1.0  0.76669  0.54158  0.93853  1.0000
  H   H7470     1.0  0.74686  0.51526  0.93332  1.0000
  H   H7471     1.0  0.75487  0.53800  0.91345  1.0000
  H   H7472     1.0  0.77719  0.52819  0.90319  1.0000
  H   H7473     1.0  0.77493  0.50038  0.91894  1.0000
  Fe  Fe471     1.0  0.93395  0.48748  0.89524  1.0000
  C   C4208     1.0  0.66102  0.53048  0.91513  1.0000
  C   C4209     1.0  0.69232  0.73879  0.79819  1.0000
  S   S949      1.0  0.54484  0.68449  0.78433  1.0000
  H   H7474     1.0  0.76477  0.56584  0.91152  1.0000
  H   H7475     1.0  0.78724  0.55615  0.90126  1.0000
  H   H7476     1.0  0.76899  0.56019  0.89003  1.0000
  N   N236      1.0  0.54228  0.80210  0.83430  1.0000
  C   C4210     1.0  0.54000  0.81443  0.84677  1.0000
  C   C4211     1.0  0.52400  0.80234  0.83156  1.0000
  C   C4212     1.0  0.55127  0.78363  0.84249  1.0000
  C   C4213     1.0  0.55390  0.80801  0.81642  1.0000
  C   C4214     1.0  0.54779  0.82743  0.80663  1.0000
  C   C4215     1.0  0.55751  0.81750  0.84976  1.0000
  C   C4216     1.0  0.55251  0.76852  0.83277  1.0000
  C   C4217     1.0  0.51102  0.79433  0.84828  1.0000
  C   C4218     1.0  0.49344  0.79414  0.84374  1.0000
  H   H7477     1.0  0.49924  0.74165  0.81402  1.0000
  C   C4219     1.0  0.55343  0.83023  0.86251  1.0000
  C   C4220     1.0  0.56129  0.75047  0.84270  1.0000
  H   H7478     1.0  0.53249  0.80916  0.86022  1.0000
  H   H7479     1.0  0.53156  0.82770  0.84228  1.0000
  H   H7480     1.0  0.51700  0.81631  0.82704  1.0000
  H   H7481     1.0  0.52517  0.79552  0.82057  1.0000
  H   H7482     1.0  0.54466  0.77975  0.85671  1.0000
  H   H7483     1.0  0.56530  0.78350  0.84286  1.0000
  H   H7484     1.0  0.56802  0.80621  0.81767  1.0000
  H   H7485     1.0  0.55452  0.79941  0.80709  1.0000
  H   H7486     1.0  0.54675  0.83706  0.81496  1.0000
  H   H7487     1.0  0.53460  0.82922  0.80319  1.0000
  H   H7488     1.0  0.56575  0.80484  0.85569  1.0000
  H   H7489     1.0  0.56563  0.82339  0.83705  1.0000
  H   H7490     1.0  0.56077  0.77091  0.81909  1.0000
  H   H7491     1.0  0.53912  0.76740  0.83184  1.0000
  H   H7492     1.0  0.51682  0.78040  0.85412  1.0000
  H   H7493     1.0  0.50764  0.80246  0.85864  1.0000
  H   H7494     1.0  0.51851  0.77180  0.81171  1.0000
  C   C4221     1.0  0.56110  0.83222  0.78926  1.0000
  S   S950      1.0  0.57993  0.74449  0.79310  1.0000
  H   H7495     1.0  0.49347  0.95321  0.96332  1.0000
  H   H7496     1.0  0.60701  0.65854  0.83174  1.0000
  H   H7497     1.0  0.50171  0.73344  0.84547  1.0000
  H   H7498     1.0  0.54570  0.84338  0.85691  1.0000
  H   H7499     1.0  0.54569  0.82474  0.87571  1.0000
  H   H7500     1.0  0.56614  0.83230  0.86442  1.0000
  H   H7501     1.0  0.55316  0.74695  0.85631  1.0000
  H   H7502     1.0  0.56238  0.73995  0.83531  1.0000
  H   H7503     1.0  0.57501  0.75072  0.84364  1.0000
  C   C4222     1.0  0.70980  0.60690  0.93229  1.0000
  H   H7504     1.0  0.68953  0.54579  0.89908  1.0000
  C   C4223     1.0  0.70123  0.73727  0.77895  1.0000
  H   H7505     1.0  0.70314  0.62216  0.90747  1.0000
  C   C4224     1.0  0.56084  0.67069  0.84448  1.0000
  H   H7506     1.0  0.71696  0.56452  0.79226  1.0000
  H   H7507     1.0  0.86384  0.60622  0.80017  1.0000
  N   N237      1.0  0.50915  0.77204  0.78841  1.0000
  H   H7508     1.0  0.54091  0.59468  0.83258  1.0000
  H   H7509     1.0  0.83448  0.55617  0.82090  1.0000
  C   C4225     1.0  0.70768  0.66773  0.79595  1.0000
  C   C4226     1.0  0.61479  0.83024  0.77950  1.0000
  C   C4227     1.0  0.70180  0.55232  0.87154  1.0000
  C   C4228     1.0  0.68970  0.69195  0.77802  1.0000
  H   H7510     1.0  0.79715  0.61369  0.79544  1.0000
  H   H7511     1.0  0.60651  0.82516  0.79253  1.0000
  Fe  Fe472     1.0  0.68378  0.54012  0.97576  1.0000
  C   C4229     1.0  0.61900  0.53911  0.96002  1.0000
  C   C4230     1.0  0.58167  0.50167  0.96278  1.0000
  H   H7512     1.0  0.86134  0.51868  0.96919  1.0000
  H   H7513     1.0  0.78031  0.48542  0.93850  1.0000
  C   C4231     1.0  0.63197  0.52122  0.87066  1.0000
  C   C4232     1.0  0.65283  0.91207  0.78968  1.0000
  C   C4233     1.0  0.69926  0.69903  0.82821  1.0000
  H   H7514     1.0  0.71437  0.57884  0.80760  1.0000
  H   H7515     1.0  0.95945  0.97432  0.92454  1.0000
  C   C4234     1.0  0.86492  0.59631  0.79210  1.0000
  H   H7516     1.0  0.86404  0.60341  0.77822  1.0000
  H   H7517     1.0  0.60298  0.95491  0.93367  1.0000
  H   H7518     1.0  0.60593  0.69162  0.78829  1.0000
  H   H7519     1.0  0.65621  0.60114  0.93252  1.0000
  H   H7520     1.0  0.59263  0.63541  0.83117  1.0000
  C   C4235     1.0  0.49255  0.94024  0.97272  1.0000
  H   H7521     1.0  0.58883  0.94451  0.82588  1.0000
  H   H7522     1.0  0.85911  0.49986  0.79132  1.0000
  H   H7523     1.0  0.57063  0.64885  0.87163  1.0000
  C   C4236     1.0  0.55468  0.70108  0.78683  1.0000
  H   H7524     1.0  0.59436  0.67884  0.83753  1.0000
  C   C4237     1.0  0.67416  0.51212  0.91553  1.0000
  H   H7525     1.0  0.51498  0.61721  0.84285  1.0000
  H   H7526     1.0  0.50000  0.53184  0.84197  1.0000
  H   H7527     1.0  0.58383  0.96881  0.80053  1.0000
  H   H7528     1.0  0.70098  0.67958  0.85315  1.0000
  C   C4238     1.0  0.72420  0.57111  0.79814  1.0000
  H   H7529     1.0  0.89707  0.49314  0.82535  1.0000
  H   H7530     1.0  0.70896  0.70480  0.81674  1.0000
  H   H7531     1.0  0.72030  0.67650  0.83546  1.0000
  H   H7532     1.0  0.66613  0.68744  0.83500  1.0000
  H   H7533     1.0  0.57369  0.96978  0.95070  1.0000
  H   H7534     1.0  0.92528  0.49717  0.78930  1.0000
  N   N238      1.0  0.83118  0.59559  0.80506  1.0000
  H   H7535     1.0  0.93613  0.96571  0.95175  1.0000
  Fe  Fe473     1.0  0.51690  0.68365  0.80055  1.0000
  C   C4239     1.0  0.83037  0.60547  0.81933  1.0000
  H   H7536     1.0  0.71665  0.69140  0.77990  1.0000
  C   C4240     1.0  0.64642  0.96543  0.79096  1.0000
  H   H7537     1.0  0.85009  0.49055  0.82599  1.0000
  H   H7538     1.0  0.59618  0.66396  0.80474  1.0000
  H   H7539     1.0  0.61450  0.95819  0.80573  1.0000
  C   C4241     1.0  0.49552  0.85534  0.82901  1.0000
  Fe  Fe474     1.0  0.78829  0.56643  0.97242  1.0000
  C   C4242     1.0  0.87157  0.49003  0.78766  1.0000
  C   C4243     1.0  0.63238  0.58620  0.91055  1.0000
  H   H7540     1.0  0.64374  0.72533  0.82499  1.0000
  H   H7541     1.0  0.60148  0.94183  0.78859  1.0000
  H   H7542     1.0  0.64909  0.53988  0.86351  1.0000
  S   S951      1.0  0.50436  0.70126  0.82030  1.0000
  C   C4244     1.0  0.82671  0.60838  0.78830  1.0000
  H   H7543     1.0  0.53953  0.70272  0.81321  1.0000
  Fe  Fe475     1.0  0.90015  0.49089  0.88160  1.0000
  H   H7544     1.0  0.51332  0.58306  0.84775  1.0000
  H   H7545     1.0  0.73250  0.62245  0.78186  1.0000
  H   H7546     1.0  0.57942  0.68315  0.81036  1.0000
  H   H7547     1.0  0.53905  0.61505  0.81595  1.0000
  H   H7548     1.0  0.68621  0.75310  0.79803  1.0000
  C   C4245     1.0  0.60633  0.68714  0.80269  1.0000
  Fe  Fe476     1.0  0.62426  0.97320  0.88197  1.0000
  H   H7549     1.0  0.67869  0.56662  0.88676  1.0000
  H   H7550     1.0  0.59741  0.58213  0.94866  1.0000
  H   H7551     1.0  0.62636  0.52703  0.85843  1.0000
  C   C4246     1.0  0.59372  0.66769  0.83172  1.0000
  C   C4247     1.0  0.50389  0.59465  0.84167  1.0000
  H   H7552     1.0  0.50729  0.60138  0.79137  1.0000
  C   C4248     1.0  0.81890  0.58244  0.81110  1.0000
  C   C4249     1.0  0.65758  0.69768  0.82659  1.0000
  S   S952      1.0  0.65388  0.77485  0.78671  1.0000
  H   H7553     1.0  0.64296  0.50965  0.86799  1.0000
  C   C4250     1.0  0.81212  0.60920  0.83256  1.0000
  C   C4251     1.0  0.82374  0.56661  0.82652  1.0000
  H   H7554     1.0  0.62862  0.55458  0.90390  1.0000
  C   C4252     1.0  0.64432  0.56757  0.91252  1.0000
  H   H7555     1.0  0.66759  0.55156  0.87043  1.0000
  C   C4253     1.0  0.81218  0.62239  0.84362  1.0000
  H   H7556     1.0  0.56423  0.68511  0.86361  1.0000
  H   H7557     1.0  0.62126  0.51656  0.88175  1.0000
  H   H7558     1.0  0.80474  0.58917  0.81503  1.0000
  H   H7559     1.0  0.66863  0.50391  0.94455  1.0000
  C   C4254     1.0  0.61313  0.55731  0.96021  1.0000
  C   C4255     1.0  0.70991  0.68668  0.84187  1.0000
  H   H7560     1.0  0.67608  0.74990  0.82753  1.0000
  H   H7561     1.0  0.83637  0.61737  0.78275  1.0000
  H   H7562     1.0  0.85068  0.57701  0.79039  1.0000
  H   H7563     1.0  0.80945  0.59670  0.84197  1.0000
  H   H7564     1.0  0.80065  0.61464  0.82584  1.0000
  C   C4256     1.0  0.65122  0.60253  0.96705  1.0000
  C   C4257     1.0  0.79216  0.55800  0.79437  1.0000
  H   H7565     1.0  0.69325  0.69067  0.82318  1.0000
  C   C4258     1.0  0.80816  0.62112  0.79014  1.0000
  C   C4259     1.0  0.73509  0.58314  0.78345  1.0000
  H   H7566     1.0  0.85418  0.57549  0.81202  1.0000
  H   H7567     1.0  0.83282  0.51114  0.84742  1.0000
  C   C4260     1.0  0.68505  0.55247  0.88643  1.0000
  H   H7568     1.0  0.81455  0.63532  0.83485  1.0000
  H   H7569     1.0  0.79899  0.62494  0.85283  1.0000
  H   H7570     1.0  0.82268  0.61686  0.85173  1.0000
  H   H7571     1.0  0.80315  0.55244  0.82754  1.0000
  H   H7572     1.0  0.75252  0.49110  0.96961  1.0000
  H   H7573     1.0  0.52388  0.73497  0.78766  1.0000
  C   C4261     1.0  0.86352  0.48923  0.92037  1.0000
  C   C4262     1.0  0.50627  0.59324  0.87876  1.0000
  H   H7574     1.0  0.54244  0.52656  0.94843  1.0000
  C   C4263     1.0  0.58743  0.97216  0.81170  1.0000
  H   H7575     1.0  0.56752  0.95904  0.83131  1.0000
  H   H7576     1.0  0.58604  0.62649  0.80659  1.0000
  C   C4264     1.0  0.67217  0.90605  0.81240  1.0000
  C   C4265     1.0  0.84563  0.51480  0.84688  1.0000
  H   H7577     1.0  0.72244  0.48577  0.97197  1.0000
  C   C4266     1.0  0.57068  0.72754  0.79053  1.0000
  C   C4267     1.0  0.56121  0.50743  0.96342  1.0000
  H   H7578     1.0  0.86285  0.50729  0.81517  1.0000
  H   H7579     1.0  0.89353  0.50065  0.80349  1.0000
  H   H7580     1.0  0.68526  0.89891  0.81593  1.0000
  H   H7581     1.0  0.87369  0.50313  0.84411  1.0000
  H   H7582     1.0  0.67874  0.70808  0.85009  1.0000
  H   H7583     1.0  0.51922  0.59167  0.90031  1.0000
  C   C4268     1.0  0.75208  0.51304  0.94563  1.0000
  C   C4269     1.0  0.58003  0.97427  0.95932  1.0000
  C   C4270     1.0  0.60772  0.97191  0.80773  1.0000
  C   C4271     1.0  0.73516  0.56321  0.95351  1.0000
  H   H7584     1.0  0.94169  0.55495  0.95567  1.0000
  H   H7585     1.0  0.71251  0.60500  0.78327  1.0000
  H   H7586     1.0  0.84499  0.51821  0.85980  1.0000
  Fe  Fe477     1.0  0.82619  0.56839  0.97222  1.0000
  H   H7587     1.0  0.93646  0.52932  0.79214  1.0000
  H   H7588     1.0  0.57445  0.83115  0.79206  1.0000
  H   H7589     1.0  0.65925  0.62219  0.93408  1.0000
  C   C4272     1.0  0.95725  0.50136  0.94043  1.0000
  H   H7590     1.0  0.68328  0.71434  0.80184  1.0000
  H   H7591     1.0  0.63221  0.59234  0.92173  1.0000
  Fe  Fe478     1.0  0.97941  0.54646  0.96308  1.0000
  H   H7592     1.0  0.93428  0.55843  0.93516  1.0000
  H   H7593     1.0  0.65452  0.63324  0.87738  1.0000
  H   H7594     1.0  0.65440  0.65530  0.87971  1.0000
  H   H7595     1.0  0.71944  0.50301  0.95241  1.0000
  S   S953      1.0  0.50900  0.65897  0.81910  1.0000
  C   C4273     1.0  0.80775  0.55807  0.83659  1.0000
  H   H7596     1.0  0.72142  0.50863  0.97243  1.0000
  C   C4274     1.0  0.81019  0.48371  0.91207  1.0000
  N   N239      1.0  0.65591  0.53980  0.89742  1.0000
  C   C4275     1.0  0.59744  0.56075  0.93636  1.0000
  C   C4276     1.0  0.66218  0.64136  0.88085  1.0000
  H   H7597     1.0  0.49526  0.83025  0.89355  1.0000
  H   H7598     1.0  0.74445  0.52452  0.95196  1.0000
  H   H7599     1.0  0.70456  0.59799  0.94470  1.0000
  H   H7600     1.0  0.52040  0.79594  0.77898  1.0000
  H   H7601     1.0  0.56941  0.65704  0.81116  1.0000
  C   C4277     1.0  0.67194  0.54307  0.88274  1.0000
  C   C4278     1.0  0.92970  0.55785  0.94973  1.0000
  C   C4279     1.0  0.50210  0.86577  0.85245  1.0000
  S   S954      1.0  0.76457  0.56941  0.82047  1.0000
  C   C4280     1.0  0.51751  0.87091  0.84088  1.0000
  C   C4281     1.0  0.71757  0.56476  0.90713  1.0000
  H   H7602     1.0  0.59357  0.62299  0.86435  1.0000
  H   H7603     1.0  0.75396  0.97415  0.84979  1.0000
  H   H7604     1.0  0.58897  0.56914  0.92736  1.0000
  H   H7605     1.0  0.60943  0.94664  0.95516  1.0000
  H   H7606     1.0  0.81172  0.54707  0.84764  1.0000
  Fe  Fe479     1.0  0.49447  0.67732  0.83785  1.0000
  H   H7607     1.0  0.66790  0.60601  0.89993  1.0000
  H   H7608     1.0  0.68789  0.61436  0.89064  1.0000
  H   H7609     1.0  0.69974  0.58421  0.89191  1.0000
  H   H7610     1.0  0.70935  0.55438  0.91199  1.0000
  H   H7611     1.0  0.62690  0.53054  0.96941  1.0000
  C   C4282     1.0  0.66525  0.63394  0.89987  1.0000
  H   H7612     1.0  0.76933  0.60084  0.79281  1.0000
  C   C4283     1.0  0.67573  0.68269  0.78332  1.0000
  H   H7613     1.0  0.88554  0.57664  0.80459  1.0000
  H   H7614     1.0  0.90718  0.54685  0.95165  1.0000
  H   H7615     1.0  0.92727  0.53052  0.95479  1.0000
  C   C4284     1.0  0.67620  0.61444  0.90206  1.0000
  H   H7616     1.0  0.65177  0.63457  0.90869  1.0000
  H   H7617     1.0  0.67226  0.64283  0.90306  1.0000
  H   H7618     1.0  0.72741  0.56206  0.89483  1.0000
  C   C4285     1.0  0.91885  0.54327  0.95806  1.0000
  C   C4286     1.0  0.70581  0.58336  0.90336  1.0000
  C   C4287     1.0  0.69074  0.58715  0.91971  1.0000
  C   C4288     1.0  0.69543  0.61701  0.92092  1.0000
  H   H7619     1.0  0.50639  0.62009  0.82314  1.0000
  C   C4289     1.0  0.50131  0.60911  0.77965  1.0000
  H   H7620     1.0  0.63952  0.88647  0.78504  1.0000
  S   S955      1.0  0.94186  0.48835  0.92064  1.0000
  C   C4290     1.0  0.57172  0.62912  0.81335  1.0000
  H   H7621     1.0  0.68791  0.62921  0.92614  1.0000
  H   H7622     1.0  0.68034  0.57967  0.92040  1.0000
  H   H7623     1.0  0.92879  0.59582  0.97598  1.0000
  H   H7624     1.0  0.80723  0.63029  0.79896  1.0000
  H   H7625     1.0  0.80420  0.51114  0.91384  1.0000
  H   H7626     1.0  0.95536  0.48934  0.95020  1.0000
  H   H7627     1.0  0.72088  0.59842  0.92446  1.0000
  H   H7628     1.0  0.57286  0.63219  0.84747  1.0000
  H   H7629     1.0  0.73183  0.98034  0.96560  1.0000
  H   H7630     1.0  0.62770  0.54685  0.87725  1.0000
  H   H7631     1.0  0.52786  0.62241  0.78730  1.0000
  H   H7632     1.0  0.93088  0.49121  0.81118  1.0000
  C   C4291     1.0  0.88362  0.58440  0.79114  1.0000
  C   C4292     1.0  0.63898  0.53537  0.87528  1.0000
  H   H7633     1.0  0.73337  0.56061  0.80574  1.0000
  H   H7634     1.0  0.66707  0.53891  0.92013  1.0000
  H   H7635     1.0  0.96950  0.51104  0.95654  1.0000
  C   C4293     1.0  0.68515  0.71411  0.83637  1.0000
  C   C4294     1.0  0.85007  0.58518  0.80014  1.0000
  H   H7636     1.0  0.92147  0.57108  0.95190  1.0000
  H   H7637     1.0  0.64873  0.52838  0.92545  1.0000
  H   H7638     1.0  0.64017  0.56032  0.92641  1.0000
  H   H7639     1.0  0.53825  0.71014  0.85927  1.0000
  H   H7640     1.0  0.92748  0.62859  0.97136  1.0000
  H   H7641     1.0  0.50526  0.57901  0.88287  1.0000
  C   C4295     1.0  0.53926  0.69716  0.85580  1.0000
  H   H7642     1.0  0.53188  0.68875  0.86738  1.0000
  C   C4296     1.0  0.72112  0.55527  0.96446  1.0000
  C   C4297     1.0  0.68030  0.50530  0.93331  1.0000
  H   H7643     1.0  0.76739  0.53400  0.96705  1.0000
  H   H7644     1.0  0.69303  0.72299  0.83837  1.0000
  C   C4298     1.0  0.55712  0.52263  0.94772  1.0000
  H   H7645     1.0  0.64265  0.90660  0.80082  1.0000
  H   H7646     1.0  0.72395  0.62875  0.92553  1.0000
  H   H7647     1.0  0.56879  0.61711  0.82355  1.0000
  H   H7648     1.0  0.70363  0.96121  0.97154  1.0000
  H   H7649     1.0  0.53274  0.69961  0.84433  1.0000
  C   C4299     1.0  0.67780  0.66593  0.79487  1.0000
  C   C4300     1.0  0.92840  0.48598  0.80053  1.0000
  S   S956      1.0  0.87125  0.54168  0.79645  1.0000
  S   S957      1.0  0.70725  0.54800  0.95495  1.0000
  C   C4301     1.0  0.91606  0.60568  0.97504  1.0000
  C   C4302     1.0  0.65478  0.74415  0.84979  1.0000
  H   H7650     1.0  0.67697  0.60901  0.95679  1.0000
  H   H7651     1.0  0.71093  0.55938  0.87416  1.0000
  C   C4303     1.0  0.65484  0.71619  0.83114  1.0000
  C   C4304     1.0  0.67779  0.72730  0.80601  1.0000
  H   H7652     1.0  0.66359  0.69786  0.81236  1.0000
  H   H7653     1.0  0.79318  0.51152  0.95426  1.0000
  Fe  Fe480     1.0  0.60814  0.74497  0.77745  1.0000
  H   H7654     1.0  0.72830  0.61228  0.94527  1.0000
  H   H7655     1.0  0.91433  0.60889  0.96102  1.0000
  H   H7656     1.0  0.61677  0.91075  0.79432  1.0000
  N   N240      1.0  0.67094  0.72479  0.82594  1.0000
  C   C4305     1.0  0.72622  0.49847  0.96394  1.0000
  H   H7657     1.0  0.55569  0.49618  0.96269  1.0000
  C   C4306     1.0  0.60213  0.56807  0.94850  1.0000
  C   C4307     1.0  0.65138  0.76310  0.85295  1.0000
  H   H7658     1.0  0.51409  0.75056  0.84225  1.0000
  C   C4308     1.0  0.66910  0.60088  0.95367  1.0000
  H   H7659     1.0  0.65820  0.56911  0.91079  1.0000
  C   C4309     1.0  0.55730  0.72113  0.80422  1.0000
  H   H7660     1.0  0.66134  0.90119  0.82324  1.0000
  S   S958      1.0  0.66250  0.53133  0.96833  1.0000
  C   C4310     1.0  0.58222  0.95811  0.82826  1.0000
  H   H7661     1.0  0.68767  0.51457  0.93534  1.0000
  H   H7662     1.0  0.71670  0.69435  0.84702  1.0000
  H   H7663     1.0  0.64348  0.61650  0.96516  1.0000
  C   C4311     1.0  0.74655  0.49567  0.95759  1.0000
  H   H7664     1.0  0.64312  0.59367  0.96552  1.0000
  C   C4312     1.0  0.60714  0.48514  0.97667  1.0000
  C   C4313     1.0  0.80398  0.56010  0.77774  1.0000
  C   C4314     1.0  0.50486  0.75966  0.77920  1.0000
  H   H7665     1.0  0.62860  0.82880  0.78129  1.0000
  C   C4315     1.0  0.61541  0.91681  0.78050  1.0000
  H   H7666     1.0  0.73661  0.97703  0.86946  1.0000
  S   S959      1.0  0.96531  0.57233  0.97155  1.0000
  H   H7667     1.0  0.68972  0.98087  0.93399  1.0000
  H   H7668     1.0  0.55393  0.51229  0.97579  1.0000
  C   C4316     1.0  0.49022  0.60479  0.87038  1.0000
  H   H7669     1.0  0.80384  0.48614  0.90045  1.0000
  H   H7670     1.0  0.54559  0.77511  0.78946  1.0000
  H   H7671     1.0  0.91566  0.50693  0.97265  1.0000
  S   S960      1.0  0.61992  0.56685  0.97453  1.0000
  C   C4317     1.0  0.70572  0.68438  0.78421  1.0000
  H   H7672     1.0  0.54583  0.96746  0.96547  1.0000
  H   H7673     1.0  0.49223  0.61881  0.86628  1.0000
  H   H7674     1.0  0.49512  0.59701  0.90605  1.0000
  H   H7675     1.0  0.58094  0.96310  0.97112  1.0000
  H   H7676     1.0  0.75677  0.64215  0.77882  1.0000
  C   C4318     1.0  0.49208  0.78533  0.79342  1.0000
  H   H7677     1.0  0.82794  0.60081  0.77777  1.0000
  H   H7678     1.0  0.49256  0.75475  0.78702  1.0000
  H   H7679     1.0  0.51892  0.57637  0.77746  1.0000
  C   C4319     1.0  0.53904  0.98015  0.96993  1.0000
  C   C4320     1.0  0.51997  0.63154  0.77762  1.0000
  H   H7680     1.0  0.49023  0.76045  0.82483  1.0000
