data_image0
_chemical_formula_structural       FeCFeS2FeS2HSFeS2HNHFeH2SH2C6H3CH2CH3C6H4CH7FeSHFeS2Fe2S3H2FeS2FeS2FeHFeS4C6H5CH2C2H2C6H4C3HC2HCH4CH2C3H11CSHCH2C6H5C2HCH4CH6CSHCH3CHC2HCHCHC2HC2SHCH2CH3CH3SCHCNC2HC4H3CH8CH2C3H2CNCH6CNC3H2C4HC2H7CH11CH4CH2CHCHCHCHC4H5CH2CH2SH8NHCH6CSH2CHCFeH2C3H10CH9CHCFeH2SCH6CH2NSHCHC2SFeSFeC3HS2HC2HC2H7CNHC2H2CHCHCHCHC2HCH2C2HCHCH3SHC2H4CHC2H2SHSHC2H3C3H2CHNHCH3CH8CHS2H2CNHCHC2H2C3H4CFeSH5SHCFeH5SCHCSHCSCH3CH6SH2C2HCHCH2CH4CH2FeHC2H4FeSHSH3CHCH3SH4CHC2H3C2H2C2HSH4CH2CHCHSH4C2H5SFeH2C2HC3Fe2CSH2CH11CHCHCNC2H5CHCSCH3CH2C2HCH4CH3CH2CSC3HC2HNH7CHNHC2H2C3H2SH2FeH3CS2FeS2FeS2FeSFeS3CHCFeHSHFeSHSFeSHFeS2FeHFeS3FeS2FeS2FeSHS2H2SHSFeS2Fe2S3C5H2C6H4C6H5C2H2C6H4C6HCH3CHCNH3C6H4C6H4C2H2C6H2C5H10CHCH4C2H11CHSHCH2CHCH2CH8SHC4H7NC11H26C6HCHCH2CH2CHSC2H3FeH2C2HC2H9C2HCH2SCH2CHCHNHCNCH4CHCH2SCH3NH2CH2CH9CH2NH3FeCHCH4CNHC2HCHC2H2C2H4CH6SH2CHCHCH2NCH3CH4CH2C4HCH4CHCHSH3CH2C2HCH5C2H8CH2CH2CH3CH2CHSHFeH3CHCH2CHCNH2CHCH2C2HNH3CHNHFeH2CH3C2HCH8C2HCH2CH4CH3CH5C2HCHCH4FeCFeH2CFeS2FeS2FeSFeS3FeS2FeSFeSFeS3H2FeSCFeSHS2FeSFeSHFeSFeS3FeS2FeS2FeSFeS4HC6H6C8H4C6H4C6H3C6H4C6HCH2C6H7C2H3C6H4C2H3CH5CH4CH3C3H8CH5FeHC3HCHNHCNH2CH2C2H3CHNC8HC3H16C2H10C2HCH2CH3SH3NH2C2HCH6NC12H28CHNHCSH3CH4CH2CH4CH5C3FeC3H2CH3CH3SHCH3C2HCH2SH2CH3C2HC2H3CSC2HCH3CHCH4C3HCH6C2HNCH2C2H3CH2C2HCHFeH4C2H5C2H3C2H16SCHCH5C3H2C3NH2CH2C2H4CNH2C2HCHC3H2CH3CH2CH3CH3CH4NH2C2H5CH4CHCH6CHCH2CH3CH2CH3C2H2CH3CHC2HCHNCSFe2S2FeS4C3H2C6H5SCHC2H2CHSHCFeH2Fe2H6CH2CNH2CH2CHC2H2CHCSC2H4CHCH2CHCHCH4CSC2HCH5CHC2HCHSH3CH2FeHCNCHCH2CHCH7CHCH2SHC2HCH3SH2C3H4FeH3CNH4CHCHCH3CH2CH3C2HFeH3SCH3FeS2FeS2FeSFeS3CH2C6H4C6H6C6H2C6H5CH2C2H2NH3C2H5CH6CH4CH2CHC3H3NH2CH4CH3C2HCHCNC12H24CH4C2H3CH8CH3CHSH7CH4CH2CH4CSH4NH2CH7CH2NH2CHCH4C2HCH2FeS2FeS2FeHFeHS2C3H3SFeS2FeS2FeSFeS3HC6H6C5H3C6H4CH7CH3C6H4C3H4C3H7CSH5CHCH2CH5CH5CHNC12H28NC3H4C3HCH6C2H4C2H5C3H2CH3NCHC5H7CH7C3SH4CH2CH2C2HCH2C2H2NCH5CNH2CH2SH3CHCH4NC2HC5H2CH5SHCH6C5H7CH2NC2HC3HC2HC2H6NCH8C2H5C3HCH4SHCH3C2HFeS2FeCSFeSCFeS2Fe2S3FeSFeS2FeSFeS3H2FeS2FeCFeHS2FeHSFeCNFeSHSHCHCH2C6H4C4HCH2CHC6H4C6H5C2HC4H4C3H8CH2CHC2H5CH2C3HCNC2H2CSHC4HCH3CH4NHCH4FeC2H2C2SC2H3SHCH2C2H3CH3CH2S2C4HCHCH2CSH3SH3CH2CHNC12H30CH3C2H12C3H4C2H4NSH4C2H2C2H4FeH4SHFeCHC2H2C2SCH10CH11C3SH3CHCHCH3C2H2SFeS2FeS2FeSFeHS2FeHSFe2SH3S2HCSH4CH4CHC6H4C6H5C5H4CH8C5H2C4H2C3HC2H2CH3C2HC3H2SCH2CH2CH3NH2C2HNH3CHNH4CH2C2HCHCH2CH3CHCHC2SCHNC11H5CH12CH11CH3CH4CHSHC2HCHCH6CH3SH5FeHC2H3C3H2CH3FeHFeS2FeSHFeSFeS3HFeH2SHSCFeSCFeS2FeSFeS4C6H6SH2C4SH3CNCHC2H4CHC6H4C6H4C8H6CHC3H2CHCHCH2SHCHCH2C2H2CHSH7C2H6SC2H2NH3C2HCH2CHCH4CH5CH3CH2FeH13C2H3C3H5CH4CH4NH3CH4CHNCH6CHCHCH2CH5CH2NC3H3CH2CHFeH2CSH2C2HNC5HC5HCH12CH3CH6CH7CH2CFeCHCHCHC2H2C2H3C2H2CH5CH10CHCH2CNCH2C2H3SH2CHCHNCHCHCH2C3HCH5C2H2CH7CHC2H2CH3C2HC2FeSHFeS2FeS2FeSFeS5H5C2HC2H5C6H5CH4C6H13NH2CH5CHC2H3CH4CH3NHCH2CHCH4C3H12SH6C3HCHCH4CH5CHCHFeHC3HCHCH3CH2CH2CHSC2H5CH2C2HCHNH3CHC2H4C4SH5CH2CH2C2H2CHNC2HC3H3CH4CH4C2H4SFeS2FeSFeHSH4SHFeCSC2SHCFeH2CH2C3H2S3C6H4C2H3C2H3CHSCH2FeHCH2C2H2NC6HCHC3H26CH7CH5CHCHCHSHFeHSH3CH6NH4CH5CHCH3CH5C2HCH2CSFeHC2FeC2HCH4C3SCH3CHCS2FeS2FeS2FeSFeS3FeS2CSCNFeS2FeSFeHFeS3FeS2FeSFeSFeS3FeS2FeS2FeSFeCS3HC4HC2H4C6H4C6H4C6H6CHC3H2SH2C6H7C6H4C7H3C3H4CHC4H6CH2CHCH2CHCHFeH4CH5CNH3C3NH3C2HCH3CH2CHC2HCHCHC3HCH2C2H3CH2FeHC3HCNC12H19CH8CH2CH3C2H2NC10H22CHCH2C2H2CSH3CH2CH13SNH2CHCH2NC12H24CH4CH3CH3CH7C2HCSHC2H7CSHCHC3HFeCHFeCH2SH4CH11CH2SH2CH4C2H4C3H2CH4CH2NH3CHSH7CH3CH6CHCH2CHCH3NHCHCH5C2HCH3CH2C3NSH3CHCHCH2CH2CHC3H2CHCH3CH3CHCH6C5HSCH3CHCNC3H8CH4SC2HCH3CH4CHCH6CHCH2C3H5CH2CH2C5H3CH2CH3FeSFeS2FeSFeS4FeS2FeS2FeSFeNS2FeSC2SFeSFeSCSFeS2FeSFeS2HFeSFeS2FeS2FeS2FeS2Fe2S3H5CSC7H4C6H4C2H2CHC3HCH5C3H2C6H4C6H4C6H4C3H9C6H4C6H4CH5CHCHC2H2CH2CH2CH4CH2CH2CHCH2CHCHCHCHCHCH4SH7CH3C3HC3H8CHCH3C8H18CH8CH2CH4CN3C5HCNH12C3H5NC2HC7H6CSH5NH12C2H3SH3CHCH2CH7C2NHC2H4CHCHCH3CH3CH2C3H3CH3C2HCSC2HFeHC2H2CHCH3SCH3CHCHSH4CH6CH3C3H3CH6C3H4CHCH3SCHNH3FeHCHCHC2HC2HCH2C2H8C2H6CH2CHC2HC2HFeHC2H2SH3CHCH3C2H3C2NSHSHCH4C2HCH2NH2CH3NH4CFeSCSCFeSFeS2FeSFeHS2H2FeS2FeSFeHS2FeS2FeS2FeHFeS3FeS2HFeS3C5H3CHC6H4C6H4C6H4C6H4C2NH7CFeH2CH5CH2CHCHCSHCH4SHCH2CHSH3C2H2CH4CH2CHCH2C2HNC2HC2H6NH2CH2C2HSCHCH3CH4C2H3CH9CHCH5SHCH3C2HFeHC2H3C2H2CSH3CH2SH3CHCNC11H26CSH3CHC3SH2CH2CH2CHCH3C2HCH6FeH3CH7CHCHFeH7FeS2FeS2FeHFeS3HCHCFeS2FeS2FeSFeS3C6H4C3HCH2C3HSH3C6H10C6H2NH2FeH3C2H6NHCHCHC3HSH2CHCH9SH2CH2C5HC2H3NH2C2HCH3C3H3CHCH3C2H2CH3CH4CH2CHC4HC2NH2CHC3HCH3C3H7CH4CSH4CH7CH3CH2CH3CHNC3HNCHC2H2NH6CH3CH11C2HCHCH13CHCHC2HCH4C2HCH2C2H2CH3CNCH4CHCH4CH2C3
_chemical_formula_sum              "Fe216 C1944 S432 H3456 N108"
_cell_length_a       74.3037
_cell_length_b       76.897
_cell_length_c       45.2703
_cell_angle_alpha    84.3245
_cell_angle_beta     87.7544
_cell_angle_gamma    111.865

_space_group_name_H-M_alt    "P 1"
_space_group_IT_number       1

loop_
  _space_group_symop_operation_xyz
  'x, y, z'

loop_
  _atom_site_type_symbol
  _atom_site_label
  _atom_site_symmetry_multiplicity
  _atom_site_fract_x
  _atom_site_fract_y
  _atom_site_fract_z
  _atom_site_occupancy
  Fe  Fe1       1.0  0.24195  0.24124  0.08166  1.0000
  C   C1        1.0  0.39182  0.24805  0.42824  1.0000
  Fe  Fe2       1.0  0.27447  0.22594  0.07898  1.0000
  S   S1        1.0  0.28073  0.23082  0.12625  1.0000
  S   S2        1.0  0.29602  0.21749  0.05254  1.0000
  Fe  Fe3       1.0  0.24847  0.21906  0.13685  1.0000
  S   S3        1.0  0.23870  0.19972  0.18048  1.0000
  S   S4        1.0  0.24213  0.21184  0.09002  1.0000
  H   H1        1.0  0.35402  0.07220  0.12618  1.0000
  S   S5        1.0  0.29076  0.14295  0.38216  1.0000
  Fe  Fe4       1.0  0.24462  0.21410  0.39138  1.0000
  S   S6        1.0  0.25650  0.21822  0.34376  1.0000
  S   S7        1.0  0.23854  0.18710  0.42130  1.0000
  H   H2        1.0  0.28136  0.18605  0.10096  1.0000
  N   N1        1.0  0.44983  0.11931  0.29998  1.0000
  H   H3        1.0  0.31882  0.21339  0.45249  1.0000
  Fe  Fe5       1.0  0.23741  0.23461  0.33531  1.0000
  H   H4        1.0  0.42109  0.09757  0.31047  1.0000
  H   H5        1.0  0.45094  0.04514  0.21878  1.0000
  S   S8        1.0  0.22326  0.22811  0.38230  1.0000
  H   H6        1.0  0.42504  0.01891  0.30969  1.0000
  H   H7        1.0  0.32214  0.20585  0.01958  1.0000
  C   C2        1.0  0.25324  0.17516  0.41010  1.0000
  C   C3        1.0  0.26472  0.17024  0.43049  1.0000
  C   C4        1.0  0.27648  0.16064  0.42194  1.0000
  C   C5        1.0  0.27632  0.15526  0.39334  1.0000
  C   C6        1.0  0.26448  0.15983  0.37311  1.0000
  C   C7        1.0  0.25323  0.17006  0.38127  1.0000
  H   H8        1.0  0.26484  0.17423  0.45276  1.0000
  H   H9        1.0  0.28568  0.15752  0.43752  1.0000
  H   H10       1.0  0.24421  0.17363  0.36550  1.0000
  C   C8        1.0  0.29155  0.19878  0.03047  1.0000
  H   H11       1.0  0.31139  0.19891  0.30621  1.0000
  H   H12       1.0  0.09195  0.23197  0.06845  1.0000
  C   C9        1.0  0.27273  0.18631  0.02667  1.0000
  H   H13       1.0  0.41414  0.00998  0.18293  1.0000
  H   H14       1.0  0.36077  0.10226  0.14604  1.0000
  H   H15       1.0  0.26030  0.18810  0.03715  1.0000
  C   C10       1.0  0.23352  0.20964  0.21189  1.0000
  C   C11       1.0  0.22835  0.22541  0.20863  1.0000
  C   C12       1.0  0.22432  0.23308  0.23385  1.0000
  C   C13       1.0  0.22616  0.22554  0.26255  1.0000
  C   C14       1.0  0.23111  0.20964  0.26594  1.0000
  C   C15       1.0  0.23445  0.20154  0.24070  1.0000
  H   H16       1.0  0.22687  0.23141  0.18675  1.0000
  H   H17       1.0  0.35595  0.06032  0.01812  1.0000
  H   H18       1.0  0.23199  0.20337  0.28802  1.0000
  H   H19       1.0  0.23794  0.18905  0.24351  1.0000
  C   C16       1.0  0.42489  0.01826  0.33432  1.0000
  H   H20       1.0  0.38880  0.19714  0.37749  1.0000
  H   H21       1.0  0.29952  0.14691  0.04261  1.0000
  H   H22       1.0  0.43528  0.03189  0.34004  1.0000
  H   H23       1.0  0.40406  0.01644  0.37095  1.0000
  H   H24       1.0  0.13684  0.20467  0.08365  1.0000
  H   H25       1.0  0.36328  0.03245  0.06299  1.0000
  H   H26       1.0  0.43689  0.16632  0.27130  1.0000
  Fe  Fe6       1.0  0.31830  0.11838  0.47100  1.0000
  S   S9        1.0  0.31616  0.11125  0.42407  1.0000
  H   H27       1.0  0.28644  0.12703  0.06992  1.0000
  Fe  Fe7       1.0  0.34416  0.16073  0.45066  1.0000
  S   S10       1.0  0.34441  0.15616  0.40227  1.0000
  S   S11       1.0  0.35226  0.18851  0.47067  1.0000
  Fe  Fe8       1.0  0.31250  0.13890  0.41299  1.0000
  Fe  Fe9       1.0  0.34821  0.12895  0.41766  1.0000
  S   S12       1.0  0.36871  0.11571  0.40037  1.0000
  S   S13       1.0  0.31210  0.14456  0.46034  1.0000
  S   S14       1.0  0.35058  0.13495  0.46558  1.0000
  H   H28       1.0  0.26051  0.03727  0.49003  1.0000
  H   H29       1.0  0.46089  0.13232  0.33943  1.0000
  Fe  Fe10      1.0  0.42470  0.05854  0.25755  1.0000
  S   S15       1.0  0.40442  0.03204  0.24203  1.0000
  S   S16       1.0  0.45356  0.06123  0.27497  1.0000
  Fe  Fe11      1.0  0.39443  0.07667  0.25817  1.0000
  S   S17       1.0  0.37174  0.05161  0.24213  1.0000
  S   S18       1.0  0.38776  0.10217  0.26827  1.0000
  Fe  Fe12      1.0  0.38229  0.03439  0.27463  1.0000
  H   H30       1.0  0.44179  0.03690  0.15517  1.0000
  Fe  Fe13      1.0  0.39567  0.05130  0.21019  1.0000
  S   S19       1.0  0.38636  0.04169  0.16525  1.0000
  S   S20       1.0  0.40318  0.05933  0.29296  1.0000
  S   S21       1.0  0.41782  0.07810  0.22333  1.0000
  S   S22       1.0  0.43713  0.06187  0.04107  1.0000
  C   C17       1.0  0.40120  0.04746  0.13144  1.0000
  C   C18       1.0  0.39349  0.03803  0.10707  1.0000
  C   C19       1.0  0.40445  0.04229  0.07944  1.0000
  C   C20       1.0  0.42330  0.05607  0.07588  1.0000
  C   C21       1.0  0.43115  0.06539  0.10035  1.0000
  C   C22       1.0  0.42014  0.06112  0.12808  1.0000
  H   H31       1.0  0.37903  0.02721  0.10970  1.0000
  H   H32       1.0  0.39836  0.03483  0.06090  1.0000
  H   H33       1.0  0.44577  0.07601  0.09778  1.0000
  H   H34       1.0  0.42626  0.06843  0.14674  1.0000
  H   H35       1.0  0.32675  0.17450  0.34883  1.0000
  C   C23       1.0  0.34998  0.22999  0.31027  1.0000
  H   H36       1.0  0.31437  0.19011  0.44327  1.0000
  H   H37       1.0  0.45315  0.01591  0.29382  1.0000
  C   C24       1.0  0.34818  0.04910  0.08243  1.0000
  C   C25       1.0  0.23249  0.12434  0.48021  1.0000
  H   H38       1.0  0.44376  0.09835  0.26938  1.0000
  H   H39       1.0  0.29852  0.20217  0.43138  1.0000
  C   C26       1.0  0.38000  0.10427  0.30489  1.0000
  C   C27       1.0  0.38159  0.09261  0.32956  1.0000
  C   C28       1.0  0.37772  0.09610  0.35860  1.0000
  C   C29       1.0  0.37150  0.11084  0.36337  1.0000
  C   C30       1.0  0.36915  0.12207  0.33871  1.0000
  C   C31       1.0  0.37362  0.11893  0.30961  1.0000
  H   H40       1.0  0.38619  0.08113  0.32633  1.0000
  H   H41       1.0  0.37958  0.08735  0.37751  1.0000
  H   H42       1.0  0.36454  0.13356  0.34208  1.0000
  H   H43       1.0  0.37241  0.12807  0.29069  1.0000
  C   C32       1.0  0.36696  0.21117  0.45266  1.0000
  C   C33       1.0  0.36336  0.22700  0.45998  1.0000
  C   C34       1.0  0.37547  0.24535  0.44727  1.0000
  H   H44       1.0  0.30199  0.23497  0.19870  1.0000
  C   C35       1.0  0.39535  0.23222  0.42087  1.0000
  C   C36       1.0  0.38287  0.21384  0.43279  1.0000
  H   H45       1.0  0.45412  0.09611  0.34916  1.0000
  C   C37       1.0  0.30345  0.16943  0.30290  1.0000
  H   H46       1.0  0.40808  0.23422  0.40641  1.0000
  H   H47       1.0  0.38607  0.20179  0.42783  1.0000
  H   H48       1.0  0.26414  0.15562  0.35097  1.0000
  H   H49       1.0  0.48309  0.15233  0.27875  1.0000
  C   C38       1.0  0.36945  0.20057  0.34454  1.0000
  H   H50       1.0  0.11232  0.23112  0.08794  1.0000
  H   H51       1.0  0.27086  0.13410  0.47855  1.0000
  C   C39       1.0  0.46320  0.04388  0.22960  1.0000
  C   C40       1.0  0.40469  0.01634  0.34643  1.0000
  C   C41       1.0  0.47873  0.15145  0.30262  1.0000
  H   H52       1.0  0.34251  0.23388  0.35445  1.0000
  H   H53       1.0  0.13273  0.22002  0.01722  1.0000
  H   H54       1.0  0.43845  0.14757  0.31915  1.0000
  H   H55       1.0  0.38699  0.09163  0.01693  1.0000
  H   H56       1.0  0.32197  0.22196  0.33578  1.0000
  H   H57       1.0  0.41732  0.09575  0.06263  1.0000
  H   H58       1.0  0.26555  0.09088  0.46155  1.0000
  H   H59       1.0  0.26606  0.20582  0.28162  1.0000
  H   H60       1.0  0.47163  0.03064  0.19452  1.0000
  H   H61       1.0  0.16276  0.21769  0.08128  1.0000
  H   H62       1.0  0.29568  0.23357  0.28502  1.0000
  C   C42       1.0  0.30184  0.18363  0.13234  1.0000
  S   S23       1.0  0.26770  0.24009  0.40439  1.0000
  H   H63       1.0  0.27479  0.20340  0.24481  1.0000
  C   C43       1.0  0.47170  0.12006  0.25293  1.0000
  H   H64       1.0  0.20444  0.24618  0.10947  1.0000
  H   H65       1.0  0.41480  0.01601  0.12822  1.0000
  C   C44       1.0  0.28061  0.17915  0.12404  1.0000
  C   C45       1.0  0.42957  0.14034  0.30164  1.0000
  C   C46       1.0  0.47487  0.03564  0.21592  1.0000
  C   C47       1.0  0.43425  0.10502  0.32203  1.0000
  C   C48       1.0  0.27004  0.17138  0.00937  1.0000
  C   C49       1.0  0.46460  0.01854  0.34732  1.0000
  H   H66       1.0  0.28943  0.16783  0.29345  1.0000
  H   H67       1.0  0.46663  0.12981  0.23921  1.0000
  H   H68       1.0  0.31464  0.17183  0.28431  1.0000
  H   H69       1.0  0.47647  0.12344  0.32113  1.0000
  H   H70       1.0  0.20217  0.10498  0.47722  1.0000
  C   C50       1.0  0.16790  0.22084  0.30870  1.0000
  C   C51       1.0  0.17410  0.24825  0.44537  1.0000
  H   H71       1.0  0.28300  0.07079  0.47674  1.0000
  C   C52       1.0  0.30949  0.18602  0.32135  1.0000
  H   H72       1.0  0.36699  0.01041  0.37481  1.0000
  H   H73       1.0  0.31000  0.17896  0.11589  1.0000
  H   H74       1.0  0.11653  0.21557  0.04917  1.0000
  H   H75       1.0  0.30893  0.14510  0.07835  1.0000
  C   C53       1.0  0.42462  0.07856  0.36507  1.0000
  H   H76       1.0  0.42337  0.08800  0.38142  1.0000
  H   H77       1.0  0.46348  0.09962  0.29126  1.0000
  H   H78       1.0  0.42882  0.06740  0.37668  1.0000
  H   H79       1.0  0.42084  0.11029  0.02740  1.0000
  H   H80       1.0  0.22352  0.24732  0.46026  1.0000
  H   H81       1.0  0.41544  0.16043  0.29646  1.0000
  C   C54       1.0  0.33687  0.22258  0.33977  1.0000
  S   S24       1.0  0.22207  0.23635  0.29349  1.0000
  H   H82       1.0  0.21501  0.14625  0.44881  1.0000
  C   C55       1.0  0.32165  0.19862  0.38240  1.0000
  H   H83       1.0  0.44929  0.03520  0.11761  1.0000
  H   H84       1.0  0.32809  0.20767  0.13753  1.0000
  H   H85       1.0  0.33278  0.04632  0.08992  1.0000
  C   C56       1.0  0.35508  0.10046  0.12373  1.0000
  H   H86       1.0  0.24324  0.17988  0.12877  1.0000
  C   C57       1.0  0.20473  0.13320  0.46232  1.0000
  C   C58       1.0  0.31376  0.20396  0.43501  1.0000
  H   H87       1.0  0.35997  0.09636  0.01453  1.0000
  C   C59       1.0  0.30754  0.19632  0.01661  1.0000
  H   H88       1.0  0.34659  0.21920  0.29463  1.0000
  C   C60       1.0  0.47581  0.10719  0.23220  1.0000
  H   H89       1.0  0.15187  0.20562  0.05047  1.0000
  C   C61       1.0  0.14969  0.21372  0.06836  1.0000
  C   C62       1.0  0.41253  0.09611  0.03971  1.0000
  H   H90       1.0  0.47034  0.16065  0.30435  1.0000
  C   C63       1.0  0.10586  0.23610  0.00839  1.0000
  C   C64       1.0  0.37542  0.03398  0.48599  1.0000
  S   S25       1.0  0.41071  0.01780  0.00020  1.0000
  H   H91       1.0  0.32180  0.01095  0.09246  1.0000
  C   C65       1.0  0.34823  0.03156  0.06803  1.0000
  H   H92       1.0  0.17842  0.21375  0.31158  1.0000
  H   H93       1.0  0.48748  0.05483  0.29153  1.0000
  C   C66       1.0  0.12926  0.22681  0.03606  1.0000
  H   H94       1.0  0.33798  0.07335  0.44434  1.0000
  H   H95       1.0  0.25410  0.12043  0.15967  1.0000
  H   H96       1.0  0.06231  0.25247  0.99781  1.0000
  C   C67       1.0  0.32676  0.21258  0.40615  1.0000
  H   H97       1.0  0.30226  0.17657  0.15469  1.0000
  H   H98       1.0  0.39637  0.22085  0.35800  1.0000
  H   H99       1.0  0.29733  0.18341  0.33819  1.0000
  S   S26       1.0  0.36323  0.00899  0.30563  1.0000
  C   C68       1.0  0.34744  0.24735  0.29450  1.0000
  H   H100      1.0  0.31985  0.18436  0.39345  1.0000
  C   C69       1.0  0.34621  0.08383  0.01671  1.0000
  N   N2        1.0  0.35709  0.06794  0.06315  1.0000
  C   C70       1.0  0.35241  0.08225  0.07919  1.0000
  C   C71       1.0  0.34803  0.06600  0.03357  1.0000
  H   H101      1.0  0.33904  0.09626  0.12641  1.0000
  C   C72       1.0  0.37872  0.07283  0.05887  1.0000
  C   C73       1.0  0.39076  0.09200  0.04035  1.0000
  C   C74       1.0  0.36032  0.08531  0.11031  1.0000
  C   C75       1.0  0.38967  0.20555  0.35572  1.0000
  H   H102      1.0  0.10011  0.24742  0.00331  1.0000
  H   H103      1.0  0.15325  0.20986  0.30734  1.0000
  H   H104      1.0  0.24067  0.07147  0.49056  1.0000
  C   C76       1.0  0.42515  0.01038  0.13837  1.0000
  H   H105      1.0  0.31600  0.07485  0.46044  1.0000
  H   H106      1.0  0.33632  0.07811  0.08205  1.0000
  H   H107      1.0  0.35801  0.09634  0.06579  1.0000
  H   H108      1.0  0.38348  0.04890  0.48963  1.0000
  H   H109      1.0  0.30140  0.15608  0.31708  1.0000
  H   H110      1.0  0.36169  0.11421  0.10937  1.0000
  H   H111      1.0  0.21552  0.11488  0.44151  1.0000
  H   H112      1.0  0.27001  0.24071  0.26234  1.0000
  C   C77       1.0  0.32868  0.18826  0.33578  1.0000
  H   H113      1.0  0.38835  0.10386  0.04952  1.0000
  H   H114      1.0  0.35691  0.01115  0.24324  1.0000
  C   C78       1.0  0.10217  0.25249  0.09883  1.0000
  C   C79       1.0  0.48375  0.04926  0.27062  1.0000
  C   C80       1.0  0.42379  0.15455  0.28232  1.0000
  H   H115      1.0  0.34203  0.21654  0.41151  1.0000
  H   H116      1.0  0.33498  0.08741  0.02880  1.0000
  C   C81       1.0  0.12035  0.25340  0.04956  1.0000
  N   N3        1.0  0.33599  0.20397  0.35523  1.0000
  C   C82       1.0  0.28206  0.24137  0.24633  1.0000
  H   H117      1.0  0.17213  0.23044  0.28741  1.0000
  H   H118      1.0  0.34094  0.03002  0.04699  1.0000
  H   H119      1.0  0.33938  0.19010  0.31685  1.0000
  H   H120      1.0  0.36549  0.23434  0.31498  1.0000
  H   H121      1.0  0.31994  0.24340  0.46463  1.0000
  H   H122      1.0  0.34670  0.01509  0.48010  1.0000
  C   C83       1.0  0.33749  0.01341  0.08906  1.0000
  N   N4        1.0  0.26761  0.15848  0.12701  1.0000
  C   C84       1.0  0.27738  0.14717  0.11226  1.0000
  C   C85       1.0  0.26321  0.15117  0.15974  1.0000
  C   C86       1.0  0.24926  0.15655  0.11210  1.0000
  H   H123      1.0  0.21996  0.24504  0.23108  1.0000
  H   H124      1.0  0.33277  0.05544  0.03670  1.0000
  C   C87       1.0  0.28392  0.15349  0.07864  1.0000
  C   C88       1.0  0.23558  0.16460  0.12757  1.0000
  C   C89       1.0  0.24821  0.13062  0.16755  1.0000
  C   C90       1.0  0.24352  0.12563  0.20123  1.0000
  H   H125      1.0  0.42967  0.12204  0.26841  1.0000
  C   C91       1.0  0.29540  0.14241  0.06683  1.0000
  C   C92       1.0  0.21761  0.16195  0.11044  1.0000
  H   H126      1.0  0.26736  0.13212  0.11382  1.0000
  H   H127      1.0  0.29013  0.14701  0.12423  1.0000
  H   H128      1.0  0.27667  0.15150  0.16996  1.0000
  H   H129      1.0  0.25820  0.16066  0.17200  1.0000
  H   H130      1.0  0.24070  0.14152  0.10948  1.0000
  H   H131      1.0  0.25296  0.16396  0.08895  1.0000
  H   H132      1.0  0.41593  0.08557  0.02799  1.0000
  C   C93       1.0  0.14707  0.23158  0.05506  1.0000
  H   H133      1.0  0.20884  0.14669  0.11024  1.0000
  H   H134      1.0  0.31285  0.21270  0.11076  1.0000
  H   H135      1.0  0.27104  0.15084  0.06556  1.0000
  H   H136      1.0  0.29327  0.16869  0.07422  1.0000
  H   H137      1.0  0.37124  0.20795  0.32173  1.0000
  H   H138      1.0  0.23036  0.15752  0.15056  1.0000
  H   H139      1.0  0.23431  0.12848  0.15746  1.0000
  H   H140      1.0  0.09252  0.24304  0.11800  1.0000
  H   H141      1.0  0.25690  0.12701  0.21256  1.0000
  H   H142      1.0  0.30591  0.20995  0.15031  1.0000
  H   H143      1.0  0.23299  0.11081  0.20634  1.0000
  C   C94       1.0  0.35571  0.20574  0.36569  1.0000
  H   H144      1.0  0.23260  0.09456  0.44574  1.0000
  H   H145      1.0  0.45117  0.14227  0.26666  1.0000
  H   H146      1.0  0.19780  0.23979  0.34341  1.0000
  H   H147      1.0  0.46227  0.09830  0.22295  1.0000
  C   C95       1.0  0.31278  0.20480  0.13272  1.0000
  H   H148      1.0  0.27465  0.23414  0.22750  1.0000
  H   H149      1.0  0.22188  0.16889  0.08714  1.0000
  C   C96       1.0  0.33137  0.07713  0.46391  1.0000
  H   H150      1.0  0.32457  0.22569  0.39796  1.0000
  C   C97       1.0  0.24593  0.10617  0.45112  1.0000
  H   H151      1.0  0.24217  0.13829  0.46825  1.0000
  C   C98       1.0  0.44044  0.13098  0.28261  1.0000
  H   H152      1.0  0.27426  0.18681  0.13824  1.0000
  C   C99       1.0  0.10614  0.24068  0.07608  1.0000
  H   H153      1.0  0.33688  0.25268  0.17932  1.0000
  C   C100      1.0  0.26369  0.10088  0.44389  1.0000
  C   C101      1.0  0.26196  0.09211  0.41474  1.0000
  C   C102      1.0  0.27918  0.20835  0.26663  1.0000
  C   C103      1.0  0.35372  0.02992  0.48479  1.0000
  H   H154      1.0  0.34163  0.00660  0.37689  1.0000
  H   H155      1.0  0.34378  0.01423  0.11096  1.0000
  H   H156      1.0  0.38135  0.03156  0.46455  1.0000
  H   H157      1.0  0.09407  0.22480  0.02302  1.0000
  H   H158      1.0  0.24796  0.11850  0.43420  1.0000
  C   C104      1.0  0.21323  0.11786  0.46454  1.0000
  H   H159      1.0  0.42939  0.11220  0.33904  1.0000
  H   H160      1.0  0.35400  0.19651  0.38706  1.0000
  C   C105      1.0  0.44410  0.02720  0.14014  1.0000
  H   H161      1.0  0.23689  0.13502  0.21019  1.0000
  H   H162      1.0  0.37641  0.09005  0.10882  1.0000
  S   S27       1.0  0.24564  0.24711  0.12913  1.0000
  H   H163      1.0  0.36384  0.22032  0.37112  1.0000
  H   H164      1.0  0.33942  0.09236  0.46547  1.0000
  H   H165      1.0  0.16063  0.24033  0.04106  1.0000
  H   H166      1.0  0.27715  0.11385  0.44124  1.0000
  H   H167      1.0  0.31556  0.00882  0.48611  1.0000
  H   H168      1.0  0.26078  0.10204  0.39603  1.0000
  H   H169      1.0  0.27510  0.08899  0.40961  1.0000
  H   H170      1.0  0.24903  0.07869  0.41660  1.0000
  N   N5        1.0  0.12414  0.24332  0.02448  1.0000
  H   H171      1.0  0.20845  0.16843  0.12143  1.0000
  C   C106      1.0  0.30484  0.18143  0.99938  1.0000
  H   H172      1.0  0.38176  0.06199  0.04753  1.0000
  H   H173      1.0  0.30967  0.24567  0.42938  1.0000
  H   H174      1.0  0.40128  0.02835  0.33630  1.0000
  H   H175      1.0  0.15885  0.23821  0.44492  1.0000
  H   H176      1.0  0.30695  0.19743  0.37628  1.0000
  H   H177      1.0  0.41596  0.12953  0.31299  1.0000
  C   C107      1.0  0.46639  0.13094  0.31687  1.0000
  S   S28       1.0  0.22333  0.25052  0.05018  1.0000
  H   H178      1.0  0.41020  0.07167  0.35638  1.0000
  H   H179      1.0  0.36344  0.18510  0.34326  1.0000
  C   C108      1.0  0.46771  0.05079  0.25695  1.0000
  H   H180      1.0  0.48219  0.09787  0.24431  1.0000
  C   C109      1.0  0.43996  0.08970  0.33957  1.0000
  Fe  Fe14      1.0  0.27792  0.24525  0.35600  1.0000
  H   H181      1.0  0.39919  0.20215  0.33964  1.0000
  H   H182      1.0  0.46404  0.03157  0.33503  1.0000
  C   C110      1.0  0.29227  0.22927  0.26254  1.0000
  C   C111      1.0  0.32141  0.25279  0.44365  1.0000
  C   C112      1.0  0.45656  0.10842  0.27901  1.0000
  H   H183      1.0  0.35594  0.04920  0.10303  1.0000
  H   H184      1.0  0.41435  0.14746  0.26512  1.0000
  H   H185      1.0  0.38501  0.07222  0.08068  1.0000
  H   H186      1.0  0.35715  0.25253  0.27360  1.0000
  H   H187      1.0  0.32247  0.04050  0.46953  1.0000
  H   H188      1.0  0.35112  0.22504  0.47549  1.0000
  H   H189      1.0  0.44103  0.07939  0.32475  1.0000
  H   H190      1.0  0.28704  0.19991  0.27688  1.0000
  H   H191      1.0  0.30597  0.23071  0.25010  1.0000
  H   H192      1.0  0.29528  0.25210  0.17711  1.0000
  C   C113      1.0  0.48598  0.02021  0.34164  1.0000
  H   H193      1.0  0.45551  0.02231  0.14833  1.0000
  H   H194      1.0  0.48826  0.00747  0.35144  1.0000
  H   H195      1.0  0.46196  0.01943  0.37144  1.0000
  H   H196      1.0  0.19092  0.12827  0.45130  1.0000
  H   H197      1.0  0.35211  0.03947  0.46595  1.0000
  H   H198      1.0  0.99285  0.24941  0.01876  1.0000
  H   H199      1.0  0.48575  0.12808  0.26166  1.0000
  H   H200      1.0  0.20165  0.13658  0.48480  1.0000
  H   H201      1.0  0.14558  0.23934  0.07377  1.0000
  C   C114      1.0  0.30697  0.25011  0.18970  1.0000
  H   H202      1.0  0.33218  0.24378  0.28886  1.0000
  C   C115      1.0  0.32041  0.04428  0.49217  1.0000
  Fe  Fe15      1.0  0.42099  0.04896  0.00217  1.0000
  H   H203      1.0  0.18923  0.24080  0.39553  1.0000
  H   H204      1.0  0.41013  0.21702  0.47785  1.0000
  S   S29       1.0  0.39208  0.05081  0.99490  1.0000
  C   C116      1.0  0.18095  0.24997  0.38963  1.0000
  H   H205      1.0  0.32100  0.24531  0.15000  1.0000
  H   H206      1.0  0.35412  0.00857  0.41057  1.0000
  H   H207      1.0  0.16293  0.22133  0.35530  1.0000
  H   H208      1.0  0.25547  0.16165  0.00671  1.0000
  H   H209      1.0  0.27828  0.22504  0.99748  1.0000
  H   H210      1.0  0.48637  0.11587  0.21336  1.0000
  C   C117      1.0  0.16751  0.23179  0.33499  1.0000
  H   H211      1.0  0.15639  0.23806  0.33175  1.0000
  H   H212      1.0  0.39845  0.24180  0.49144  1.0000
  N   N6        1.0  0.24312  0.11092  0.48223  1.0000
  S   S30       1.0  0.30943  0.25357  0.34128  1.0000
  H   H213      1.0  0.18357  0.24014  0.44963  1.0000
  C   C118      1.0  0.18785  0.24720  0.33762  1.0000
  H   H214      1.0  0.16554  0.24031  0.38929  1.0000
  C   C119      1.0  0.28608  0.16884  0.99574  1.0000
  C   C120      1.0  0.33270  0.06552  0.49253  1.0000
  S   S31       1.0  0.02574  0.23480  0.79380  1.0000
  Fe  Fe16      1.0  0.01510  0.23418  0.58820  1.0000
  S   S32       1.0  0.04534  0.23585  0.57266  1.0000
  Fe  Fe17      1.0  0.01414  0.23772  0.83966  1.0000
  C   C121      1.0  0.01046  0.23034  0.76404  1.0000
  C   C122      1.0  0.00729  0.23009  0.71044  1.0000
  C   C123      1.0  0.01892  0.23407  0.73465  1.0000
  H   H215      1.0  0.01397  0.23303  0.68794  1.0000
  S   S33       1.0  0.00976  0.21888  0.88329  1.0000
  S   S34       1.0  0.99805  0.24292  0.55410  1.0000
  H   H216      1.0  0.04974  0.20091  0.71624  1.0000
  C   C124      1.0  0.05121  0.21352  0.65412  1.0000
  C   C125      1.0  0.02954  0.20953  0.65320  1.0000
  H   H217      1.0  0.05286  0.20067  0.66495  1.0000
  C   C126      1.0  0.06262  0.20982  0.72693  1.0000
  C   C127      1.0  0.06552  0.19751  0.75347  1.0000
  H   H218      1.0  0.07772  0.20598  0.76590  1.0000
  H   H219      1.0  0.05208  0.19176  0.76889  1.0000
  H   H220      1.0  0.08165  0.20517  0.69464  1.0000
  H   H221      1.0  0.05888  0.22107  0.73573  1.0000
  H   H222      1.0  0.06857  0.18549  0.74594  1.0000
  H   H223      1.0  0.05756  0.21618  0.63067  1.0000
  H   H224      1.0  0.05180  0.23063  0.68968  1.0000
  C   C128      1.0  0.08088  0.21772  0.70419  1.0000
  N   N7        1.0  0.08159  0.23291  0.67970  1.0000
  H   H225      1.0  0.08729  0.21706  0.64586  1.0000
  C   C129      1.0  0.06166  0.23094  0.67047  1.0000
  C   C130      1.0  0.09329  0.23156  0.65251  1.0000
  H   H226      1.0  0.06267  0.24361  0.65532  1.0000
  H   H227      1.0  0.09403  0.22281  0.71687  1.0000
  C   C131      1.0  0.11532  0.23639  0.65547  1.0000
  H   H228      1.0  0.11769  0.22856  0.67592  1.0000
  C   C132      1.0  0.12481  0.23149  0.62862  1.0000
  H   H229      1.0  0.26710  0.06781  0.78351  1.0000
  C   C133      1.0  0.29088  0.07388  0.89007  1.0000
  H   H230      1.0  0.26703  0.19848  0.89104  1.0000
  C   C134      1.0  0.25851  0.16187  0.90083  1.0000
  H   H231      1.0  0.28175  0.14122  0.55756  1.0000
  C   C135      1.0  0.25297  0.05009  0.82589  1.0000
  C   C136      1.0  0.26121  0.05285  0.91911  1.0000
  H   H232      1.0  0.28360  0.06750  0.81167  1.0000
  C   C137      1.0  0.27368  0.17686  0.91620  1.0000
  H   H233      1.0  0.25464  0.11437  0.54236  1.0000
  H   H234      1.0  0.29175  0.07538  0.56923  1.0000
  C   C138      1.0  0.27452  0.07122  0.90899  1.0000
  C   C139      1.0  0.27276  0.04801  0.55932  1.0000
  H   H235      1.0  0.28616  0.17240  0.91860  1.0000
  C   C140      1.0  0.24292  0.02992  0.78448  1.0000
  H   H236      1.0  0.25465  0.08749  0.81143  1.0000
  C   C141      1.0  0.26433  0.03697  0.91099  1.0000
  H   H237      1.0  0.27959  0.03928  0.79747  1.0000
  H   H238      1.0  0.27176  0.08333  0.91500  1.0000
  H   H239      1.0  0.26948  0.08601  0.84158  1.0000
  S   S35       1.0  0.24750  0.01333  0.54609  1.0000
  H   H240      1.0  0.24827  0.05093  0.93302  1.0000
  C   C142      1.0  0.26383  0.03713  0.53714  1.0000
  C   C143      1.0  0.22009  0.03343  0.74639  1.0000
  H   H241      1.0  0.20614  0.03530  0.74324  1.0000
  H   H242      1.0  0.21139  0.02140  0.79166  1.0000
  H   H243      1.0  0.28382  0.02744  0.88718  1.0000
  H   H244      1.0  0.22453  0.04680  0.78625  1.0000
  C   C144      1.0  0.28911  0.07538  0.52204  1.0000
  H   H245      1.0  0.26722  0.17690  0.93869  1.0000
  C   C145      1.0  0.28517  0.06703  0.55179  1.0000
  C   C146      1.0  0.26837  0.08586  0.81719  1.0000
  H   H246      1.0  0.26981  0.04188  0.58237  1.0000
  H   H247      1.0  0.26524  0.20893  0.93682  1.0000
  S   S36       1.0  0.24621  0.01432  0.92214  1.0000
  H   H248      1.0  0.26448  0.16113  0.87830  1.0000
  S   S37       1.0  0.29968  0.14522  0.89492  1.0000
  H   H249      1.0  0.25704  0.04996  0.84935  1.0000
  C   C147      1.0  0.22393  0.03318  0.77936  1.0000
  C   C148      1.0  0.28115  0.03958  0.89314  1.0000
  H   H250      1.0  0.25457  0.03975  0.76782  1.0000
  H   H251      1.0  0.24515  0.16501  0.89894  1.0000
  H   H252      1.0  0.27542  0.03141  0.83629  1.0000
  C   C149      1.0  0.26896  0.02871  0.81466  1.0000
  C   C150      1.0  0.28049  0.19659  0.89772  1.0000
  C   C151      1.0  0.26894  0.06753  0.80769  1.0000
  H   H253      1.0  0.25454  0.14785  0.91421  1.0000
  H   H254      1.0  0.28084  0.09810  0.80560  1.0000
  C   C152      1.0  0.29418  0.05799  0.88224  1.0000
  H   H255      1.0  0.23939  0.05291  0.82661  1.0000
  N   N8        1.0  0.24969  0.03114  0.81549  1.0000
  H   H256      1.0  0.29081  0.12768  0.53525  1.0000
  C   C153      1.0  0.28252  0.13709  0.53487  1.0000
  H   H257      1.0  0.22521  0.02971  0.87031  1.0000
  H   H258      1.0  0.23194  0.04526  0.73273  1.0000
  H   H259      1.0  0.28236  0.20507  0.95982  1.0000
  C   C154      1.0  0.28106  0.21444  0.94026  1.0000
  H   H260      1.0  0.28848  0.19588  0.87672  1.0000
  H   H261      1.0  0.11833  0.21610  0.62706  1.0000
  H   H262      1.0  0.24022  0.01568  0.77792  1.0000
  H   H263      1.0  0.27823  0.22550  0.85674  1.0000
  H   H264      1.0  0.09205  0.24100  0.63311  1.0000
  H   H265      1.0  0.14065  0.23562  0.63090  1.0000
  H   H266      1.0  0.21222  0.05611  0.52795  1.0000
  H   H267      1.0  0.30378  0.03668  0.54531  1.0000
  C   C155      1.0  0.28270  0.23442  0.87511  1.0000
  H   H268      1.0  0.30683  0.05997  0.86762  1.0000
  S   S38       1.0  0.30622  0.09669  0.87331  1.0000
  S   S39       1.0  0.98979  0.20695  0.60431  1.0000
  H   H269      1.0  0.08163  0.24871  0.73617  1.0000
  H   H270      1.0  0.12295  0.23933  0.60773  1.0000
  C   C156      1.0  0.23543  0.01546  0.83754  1.0000
  N   N9        1.0  0.29284  0.21302  0.91316  1.0000
  H   H271      1.0  0.02208  0.20545  0.67602  1.0000
  C   C157      1.0  0.28577  0.23441  0.94998  1.0000
  H   H272      1.0  0.22630  0.09747  0.52406  1.0000
  C   C158      1.0  0.26751  0.04552  0.50732  1.0000
  C   C159      1.0  0.29931  0.23044  0.89062  1.0000
  H   H273      1.0  0.02280  0.19771  0.63987  1.0000
  H   H274      1.0  0.22630  0.06932  0.55588  1.0000
  C   C160      1.0  0.22713  0.06322  0.53487  1.0000
  C   C161      1.0  0.23978  0.07858  0.51040  1.0000
  C   C162      1.0  0.26198  0.12695  0.52572  1.0000
  H   H275      1.0  0.25442  0.08489  0.51846  1.0000
  H   H276      1.0  0.23360  0.05242  0.53929  1.0000
  H   H277      1.0  0.02737  0.22216  0.64253  1.0000
  H   H278      1.0  0.26967  0.23100  0.89082  1.0000
  C   C163      1.0  0.23075  0.09349  0.50279  1.0000
  Fe  Fe18      1.0  0.02492  0.24588  0.90358  1.0000
  S   S40       1.0  0.30477  0.09949  0.51453  1.0000
  H   H279      1.0  0.28171  0.24350  0.93316  1.0000
  H   H280      1.0  0.08516  0.23514  0.95758  1.0000
  H   H281      1.0  0.21902  0.01991  0.73830  1.0000
  H   H282      1.0  0.25839  0.22677  0.97727  1.0000
  H   H283      1.0  0.21151  0.02629  0.83826  1.0000
  S   S41       1.0  0.28217  0.14950  0.97519  1.0000
  H   H284      1.0  0.08994  0.21613  0.94327  1.0000
  C   C164      1.0  0.28024  0.06453  0.49973  1.0000
  Fe  Fe19      1.0  0.30555  0.14725  0.94326  1.0000
  H   H285      1.0  0.31228  0.01112  0.92338  1.0000
  H   H286      1.0  0.11920  0.23794  0.96292  1.0000
  H   H287      1.0  0.03455  0.23994  0.73074  1.0000
  H   H288      1.0  0.25435  0.13684  0.52690  1.0000
  H   H289      1.0  0.29047  0.15005  0.51918  1.0000
  S   S42       1.0  0.00860  0.25030  0.62312  1.0000
  C   C165      1.0  0.09169  0.25234  0.68895  1.0000
  H   H290      1.0  0.29914  0.01867  0.79209  1.0000
  C   C166      1.0  0.21898  0.01977  0.85374  1.0000
  S   S43       1.0  0.04367  0.24723  0.94329  1.0000
  H   H291      1.0  0.22859  0.12711  0.50273  1.0000
  C   C167      1.0  0.26256  0.12110  0.49397  1.0000
  S   S44       1.0  0.26571  0.00899  0.62712  1.0000
  C   C168      1.0  0.99017  0.22277  0.76904  1.0000
  H   H292      1.0  0.20517  0.24597  0.50812  1.0000
  H   H293      1.0  0.24320  0.01135  0.85593  1.0000
  H   H294      1.0  0.12304  0.25178  0.65624  1.0000
  C   C169      1.0  0.10759  0.22773  0.97908  1.0000
  H   H295      1.0  0.21689  0.08592  0.49301  1.0000
  H   H296      1.0  0.29388  0.01086  0.83167  1.0000
  H   H297      1.0  0.27179  0.11259  0.49437  1.0000
  H   H298      1.0  0.30140  0.24169  0.95289  1.0000
  H   H299      1.0  0.30624  0.19611  0.93798  1.0000
  H   H300      1.0  0.31189  0.01914  0.56115  1.0000
  S   S45       1.0  0.99682  0.24963  0.91365  1.0000
  H   H301      1.0  0.28439  0.00595  0.53545  1.0000
  H   H302      1.0  0.26416  0.00655  0.78495  1.0000
  C   C170      1.0  0.27430  0.23337  0.97933  1.0000
  C   C171      1.0  0.28857  0.00816  0.80933  1.0000
  H   H303      1.0  0.00803  0.24978  0.98644  1.0000
  C   C172      1.0  0.28953  0.00472  0.51274  1.0000
  H   H304      1.0  0.27771  0.24780  0.98560  1.0000
  C   C173      1.0  0.08856  0.22242  0.96388  1.0000
  H   H305      1.0  0.30934  0.22929  0.87259  1.0000
  H   H306      1.0  0.31091  0.05578  0.58782  1.0000
  C   C174      1.0  0.26849  0.00917  0.80776  1.0000
  H   H307      1.0  0.08522  0.24344  0.55365  1.0000
  H   H308      1.0  0.28462  0.01348  0.49655  1.0000
  H   H309      1.0  0.11077  0.21477  0.98367  1.0000
  H   H310      1.0  0.14600  0.24960  0.98755  1.0000
  C   C175      1.0  0.31055  0.20921  0.92205  1.0000
  H   H311      1.0  0.30800  0.24320  0.90069  1.0000
  H   H312      1.0  0.07629  0.21194  0.97882  1.0000
  Fe  Fe20      1.0  0.31230  0.12269  0.89739  1.0000
  H   H313      1.0  0.27347  0.25264  0.51643  1.0000
  C   C176      1.0  0.08526  0.25298  0.56973  1.0000
  C   C177      1.0  0.06747  0.25275  0.58195  1.0000
  H   H314      1.0  0.19180  0.00543  0.88111  1.0000
  H   H315      1.0  0.30500  0.04299  0.49432  1.0000
  H   H316      1.0  0.48574  0.02331  0.90245  1.0000
  H   H317      1.0  0.31953  0.22500  0.96014  1.0000
  Fe  Fe21      1.0  0.41903  0.02536  0.95059  1.0000
  S   S46       1.0  0.39186  0.07387  0.91353  1.0000
  H   H318      1.0  0.48809  0.01958  0.80835  1.0000
  S   S47       1.0  0.33559  0.16961  0.93349  1.0000
  H   H319      1.0  0.48818  0.03602  0.75455  1.0000
  H   H320      1.0  0.35702  0.11672  0.90777  1.0000
  H   H321      1.0  0.31428  0.03490  0.95671  1.0000
  C   C178      1.0  0.31200  0.01084  0.50929  1.0000
  H   H322      1.0  0.34607  0.03124  0.83174  1.0000
  C   C179      1.0  0.39044  0.18055  0.87879  1.0000
  H   H323      1.0  0.33995  0.21325  0.79195  1.0000
  H   H324      1.0  0.37882  0.18543  0.87181  1.0000
  H   H325      1.0  0.34385  0.00960  0.92377  1.0000
  S   S48       1.0  0.37096  0.14156  0.95320  1.0000
  H   H326      1.0  0.34731  0.00860  0.58835  1.0000
  H   H327      1.0  0.43208  0.14253  0.86891  1.0000
  H   H328      1.0  0.39017  0.20097  0.50340  1.0000
  H   H329      1.0  0.33982  0.06795  0.83684  1.0000
  C   C180      1.0  0.34486  0.03287  0.51460  1.0000
  H   H330      1.0  0.48216  0.04783  0.92937  1.0000
  C   C181      1.0  0.43805  0.00778  0.88905  1.0000
  C   C182      1.0  0.48288  0.04985  0.90464  1.0000
  H   H331      1.0  0.41449  0.20168  0.50694  1.0000
  H   H332      1.0  0.39959  0.24562  0.62700  1.0000
  H   H333      1.0  0.31811  0.20660  0.90215  1.0000
  C   C183      1.0  0.40581  0.21040  0.50129  1.0000
  C   C184      1.0  0.32797  0.03368  0.94837  1.0000
  H   H334      1.0  0.39696  0.01000  0.88574  1.0000
  H   H335      1.0  0.33217  0.02492  0.96561  1.0000
  C   C185      1.0  0.40252  0.19455  0.89972  1.0000
  C   C186      1.0  0.42154  0.19722  0.80278  1.0000
  H   H336      1.0  0.32709  0.07077  0.51140  1.0000
  S   S49       1.0  0.34235  0.14406  0.88345  1.0000
  H   H337      1.0  0.35649  0.03381  0.91224  1.0000
  H   H338      1.0  0.35096  0.07738  0.97193  1.0000
  H   H339      1.0  0.37589  0.24601  0.61965  1.0000
  H   H340      1.0  0.36692  0.01701  0.84490  1.0000
  C   C187      1.0  0.39676  0.24752  0.56550  1.0000
  H   H341      1.0  0.31727  0.17937  0.98952  1.0000
  H   H342      1.0  0.46775  0.04532  0.89794  1.0000
  C   C188      1.0  0.31682  0.03287  0.54643  1.0000
  H   H343      1.0  0.37780  0.02445  0.50418  1.0000
  C   C189      1.0  0.32189  0.04958  0.59293  1.0000
  H   H344      1.0  0.38315  0.24670  0.91698  1.0000
  S   S50       1.0  0.43427  0.00862  0.92780  1.0000
  H   H345      1.0  0.40603  0.21822  0.54535  1.0000
  H   H346      1.0  0.48640  0.05028  0.80124  1.0000
  H   H347      1.0  0.37813  0.20041  0.91849  1.0000
  H   H348      1.0  0.40408  0.09672  0.96237  1.0000
  C   C190      1.0  0.38552  0.09199  0.92620  1.0000
  C   C191      1.0  0.35486  0.06812  0.83572  1.0000
  H   H349      1.0  0.38254  0.16667  0.89239  1.0000
  H   H350      1.0  0.39580  0.15923  0.81797  1.0000
  H   H351      1.0  0.35249  0.24825  0.83706  1.0000
  H   H352      1.0  0.32767  0.03278  0.85583  1.0000
  H   H353      1.0  0.43116  0.03186  0.87430  1.0000
  S   S51       1.0  0.38943  0.02480  0.94075  1.0000
  Fe  Fe22      1.0  0.34507  0.14490  0.93237  1.0000
  H   H354      1.0  0.37218  0.21234  0.86824  1.0000
  H   H355      1.0  0.43847  0.22762  0.79677  1.0000
  C   C192      1.0  0.42831  0.21670  0.78453  1.0000
  C   C193      1.0  0.41741  0.17141  0.86110  1.0000
  H   H356      1.0  0.41411  0.19021  0.90864  1.0000
  C   C194      1.0  0.38970  0.19559  0.92619  1.0000
  C   C195      1.0  0.37128  0.21829  0.84602  1.0000
  C   C196      1.0  0.39381  0.10108  0.95049  1.0000
  Fe  Fe23      1.0  0.40153  0.05564  0.94640  1.0000
  Fe  Fe24      1.0  0.33032  0.16676  0.88527  1.0000
  C   C197      1.0  0.34384  0.21993  0.94213  1.0000
  S   S52       1.0  0.43181  0.05670  0.95335  1.0000
  H   H357      1.0  0.40668  0.24048  0.57312  1.0000
  H   H358      1.0  0.42533  0.23442  0.51928  1.0000
  C   C198      1.0  0.32574  0.22452  0.93767  1.0000
  H   H359      1.0  0.43710  0.03005  0.82048  1.0000
  H   H360      1.0  0.36722  0.24196  0.76787  1.0000
  H   H361      1.0  0.31465  0.03580  0.60703  1.0000
  H   H362      1.0  0.47783  0.03052  0.85299  1.0000
  H   H363      1.0  0.40009  0.20370  0.82899  1.0000
  H   H364      1.0  0.41567  0.22061  0.77958  1.0000
  H   H365      1.0  0.36500  0.08242  0.83942  1.0000
  H   H366      1.0  0.34857  0.15911  0.79108  1.0000
  H   H367      1.0  0.36583  0.09090  0.89212  1.0000
  H   H368      1.0  0.39607  0.12355  0.97708  1.0000
  H   H369      1.0  0.33296  0.05923  0.60576  1.0000
  C   C199      1.0  0.33170  0.04708  0.56423  1.0000
  H   H370      1.0  0.33960  0.04804  0.94458  1.0000
  C   C200      1.0  0.38930  0.11629  0.95874  1.0000
  H   H371      1.0  0.42217  0.13407  0.90684  1.0000
  C   C201      1.0  0.43904  0.01984  0.83696  1.0000
  N   N10       1.0  0.34426  0.01749  0.87640  1.0000
  C   C202      1.0  0.34333  0.02150  0.90827  1.0000
  C   C203      1.0  0.37238  0.09788  0.91080  1.0000
  H   H372      1.0  0.40625  0.15680  0.90639  1.0000
  H   H373      1.0  0.43599  0.21654  0.76307  1.0000
  H   H374      1.0  0.42947  0.18277  0.86993  1.0000
  H   H375      1.0  0.35286  0.05719  0.88153  1.0000
  H   H376      1.0  0.37995  0.18264  0.80137  1.0000
  C   C204      1.0  0.32493  0.02480  0.91929  1.0000
  H   H377      1.0  0.33890  0.06114  0.55118  1.0000
  C   C205      1.0  0.42734  0.14667  0.88977  1.0000
  S   S53       1.0  0.33369  0.19100  0.84888  1.0000
  C   C206      1.0  0.35657  0.05347  0.85966  1.0000
  H   H378      1.0  0.36339  0.17391  0.83401  1.0000
  H   H379      1.0  0.32115  0.03438  0.90305  1.0000
  H   H380      1.0  0.34001  0.20632  0.95655  1.0000
  C   C207      1.0  0.36851  0.23537  0.78952  1.0000
  H   H381      1.0  0.39992  0.24032  0.84343  1.0000
  H   H382      1.0  0.42423  0.16799  0.84131  1.0000
  C   C208      1.0  0.36358  0.01585  0.86937  1.0000
  C   C209      1.0  0.40958  0.22556  0.52226  1.0000
  H   H383      1.0  0.41201  0.18690  0.78911  1.0000
  C   C210      1.0  0.37274  0.17018  0.81824  1.0000
  H   H384      1.0  0.37565  0.02797  0.87664  1.0000
  H   H385      1.0  0.38153  0.22745  0.52075  1.0000
  H   H386      1.0  0.34671  0.02279  0.53231  1.0000
  H   H387      1.0  0.40931  0.20907  0.88789  1.0000
  C   C211      1.0  0.35940  0.15440  0.80196  1.0000
  H   H388      1.0  0.35074  0.21907  0.92038  1.0000
  H   H389      1.0  0.43457  0.19374  0.80641  1.0000
  H   H390      1.0  0.32314  0.24095  0.81112  1.0000
  C   C212      1.0  0.35431  0.21045  0.83159  1.0000
  H   H391      1.0  0.42227  0.20727  0.84514  1.0000
  H   H392      1.0  0.38185  0.23645  0.57020  1.0000
  C   C213      1.0  0.34283  0.03322  0.85510  1.0000
  S   S54       1.0  0.31552  0.12279  0.94645  1.0000
  C   C214      1.0  0.43561  0.02088  0.86747  1.0000
  C   C215      1.0  0.37608  0.12211  0.94328  1.0000
  C   C216      1.0  0.38774  0.16392  0.83466  1.0000
  H   H393      1.0  0.33064  0.23866  0.92462  1.0000
  C   C217      1.0  0.38686  0.23438  0.83207  1.0000
  C   C218      1.0  0.36744  0.11264  0.91959  1.0000
  H   H394      1.0  0.36796  0.15083  0.78456  1.0000
  N   N11       1.0  0.40167  0.17830  0.85188  1.0000
  H   H395      1.0  0.35448  0.23111  0.95332  1.0000
  H   H396      1.0  0.35137  0.14154  0.81781  1.0000
  H   H397      1.0  0.37920  0.15084  0.84977  1.0000
  H   H398      1.0  0.36013  0.24052  0.52529  1.0000
  H   H399      1.0  0.39871  0.20575  0.94066  1.0000
  H   H400      1.0  0.43991  0.15778  0.89793  1.0000
  H   H401      1.0  0.35874  0.06535  0.81320  1.0000
  C   C219      1.0  0.44516  0.00586  0.82766  1.0000
  H   H402      1.0  0.37197  0.05477  0.85867  1.0000
  N   N12       1.0  0.32378  0.03068  0.51560  1.0000
  H   H403      1.0  0.38285  0.18160  0.93973  1.0000
  C   C220      1.0  0.39691  0.23741  0.51583  1.0000
  C   C221      1.0  0.35307  0.21907  0.80325  1.0000
  H   H404      1.0  0.34310  0.04167  0.57078  1.0000
  H   H405      1.0  0.39851  0.14182  0.87747  1.0000
  C   C222      1.0  0.38543  0.24325  0.80402  1.0000
  C   C223      1.0  0.41082  0.15363  0.88461  1.0000
  C   C224      1.0  0.41101  0.19719  0.83308  1.0000
  H   H406      1.0  0.35438  0.04691  0.52011  1.0000
  H   H407      1.0  0.36365  0.25388  0.55650  1.0000
  S   S55       1.0  0.45015  0.00583  0.78902  1.0000
  H   H408      1.0  0.48341  0.00450  0.62840  1.0000
  H   H409      1.0  0.34833  0.06847  0.49430  1.0000
  Fe  Fe25      1.0  0.38239  0.02012  0.99012  1.0000
  H   H410      1.0  0.33820  0.09311  0.97410  1.0000
  H   H411      1.0  0.10642  0.25418  0.69589  1.0000
  H   H412      1.0  0.32567  0.06828  0.98634  1.0000
  C   C225      1.0  0.33985  0.08035  0.98540  1.0000
  S   S56       1.0  0.00494  0.47618  0.20682  1.0000
  S   S57       1.0  0.02654  0.46844  0.28346  1.0000
  Fe  Fe26      1.0  0.07377  0.39604  0.26453  1.0000
  S   S58       1.0  0.06124  0.38768  0.31185  1.0000
  S   S59       1.0  0.07017  0.41922  0.23330  1.0000
  Fe  Fe27      1.0  0.09330  0.36730  0.26764  1.0000
  S   S60       1.0  0.08230  0.35664  0.31578  1.0000
  S   S61       1.0  0.11396  0.35611  0.24486  1.0000
  Fe  Fe28      1.0  0.05426  0.35809  0.30162  1.0000
  S   S62       1.0  0.02514  0.33747  0.32178  1.0000
  Fe  Fe29      1.0  0.09012  0.38700  0.32253  1.0000
  S   S63       1.0  0.10533  0.39973  0.36232  1.0000
  S   S64       1.0  0.06443  0.36633  0.25298  1.0000
  S   S65       1.0  0.10359  0.39781  0.27558  1.0000
  C   C226      1.0  0.29408  0.32585  0.41601  1.0000
  H   H413      1.0  0.27514  0.26170  0.20175  1.0000
  C   C227      1.0  0.32477  0.25472  0.16777  1.0000
  Fe  Fe30      1.0  0.47317  0.45915  0.27398  1.0000
  H   H414      1.0  0.19612  0.30213  0.34387  1.0000
  S   S66       1.0  0.46172  0.44462  0.32122  1.0000
  H   H415      1.0  0.11746  0.37457  0.40319  1.0000
  Fe  Fe31      1.0  0.46233  0.45886  0.20933  1.0000
  S   S67       1.0  0.44070  0.43772  0.18241  1.0000
  H   H416      1.0  0.28786  0.33685  0.41755  1.0000
  S   S68       1.0  0.45409  0.47115  0.24844  1.0000
  Fe  Fe32      1.0  0.13519  0.31663  0.02245  1.0000
  S   S69       1.0  0.12331  0.30200  0.06852  1.0000
  H   H417      1.0  0.18073  0.28614  0.04122  1.0000
  Fe  Fe33      1.0  0.17273  0.34401  0.04589  1.0000
  S   S70       1.0  0.16318  0.33174  0.09367  1.0000
  S   S71       1.0  0.20120  0.36815  0.02873  1.0000
  Fe  Fe34      1.0  0.15392  0.30388  0.07504  1.0000
  H   H418      1.0  0.12944  0.41433  0.20975  1.0000
  Fe  Fe35      1.0  0.13353  0.33103  0.08334  1.0000
  S   S72       1.0  0.11217  0.34004  0.10933  1.0000
  S   S73       1.0  0.16511  0.31618  0.02784  1.0000
  S   S74       1.0  0.14381  0.34568  0.03669  1.0000
  Fe  Fe36      1.0  0.35400  0.41519  0.06818  1.0000
  S   S75       1.0  0.36230  0.40659  0.02513  1.0000
  S   S76       1.0  0.37478  0.43727  0.09466  1.0000
  Fe  Fe37      1.0  0.31003  0.39238  0.06356  1.0000
  S   S77       1.0  0.31515  0.38199  0.02069  1.0000
  S   S78       1.0  0.28045  0.38210  0.08962  1.0000
  Fe  Fe38      1.0  0.34020  0.37772  0.04218  1.0000
  S   S79       1.0  0.34491  0.35097  0.03603  1.0000
  H   H419      1.0  0.00215  0.32685  0.13417  1.0000
  S   S80       1.0  0.33357  0.38581  0.08633  1.0000
  S   S81       1.0  0.32972  0.42244  0.04876  1.0000
  H   H420      1.0  0.04178  0.41168  0.28398  1.0000
  H   H421      1.0  0.42713  0.34001  0.32783  1.0000
  S   S82       1.0  0.29649  0.28437  0.13521  1.0000
  H   H422      1.0  0.24401  0.28496  0.23127  1.0000
  S   S83       1.0  0.42950  0.31954  0.44801  1.0000
  Fe  Fe39      1.0  0.38346  0.32369  0.41679  1.0000
  S   S84       1.0  0.40642  0.31989  0.38778  1.0000
  S   S85       1.0  0.35688  0.32665  0.39881  1.0000
  Fe  Fe40      1.0  0.40640  0.29827  0.42502  1.0000
  Fe  Fe41      1.0  0.42750  0.34158  0.41240  1.0000
  S   S86       1.0  0.45305  0.36304  0.38185  1.0000
  S   S87       1.0  0.38146  0.30025  0.45181  1.0000
  S   S88       1.0  0.40424  0.34669  0.43938  1.0000
  C   C228      1.0  0.32282  0.27403  0.35663  1.0000
  C   C229      1.0  0.35227  0.29335  0.37722  1.0000
  C   C230      1.0  0.34419  0.30677  0.38148  1.0000
  C   C231      1.0  0.32548  0.30387  0.37304  1.0000
  C   C232      1.0  0.31463  0.28732  0.36127  1.0000
  H   H423      1.0  0.31912  0.31413  0.37637  1.0000
  H   H424      1.0  0.30003  0.28498  0.35541  1.0000
  C   C233      1.0  0.33352  0.33236  0.06465  1.0000
  C   C234      1.0  0.32647  0.31374  0.05789  1.0000
  C   C235      1.0  0.31559  0.29884  0.07976  1.0000
  C   C236      1.0  0.31198  0.30249  0.10857  1.0000
  C   C237      1.0  0.32016  0.32096  0.11589  1.0000
  C   C238      1.0  0.33080  0.33590  0.09388  1.0000
  H   H425      1.0  0.32898  0.31092  0.03548  1.0000
  H   H426      1.0  0.31001  0.28455  0.07429  1.0000
  H   H427      1.0  0.31765  0.32382  0.13827  1.0000
  H   H428      1.0  0.33674  0.35015  0.09941  1.0000
  C   C239      1.0  0.22306  0.37145  0.04592  1.0000
  C   C240      1.0  0.24075  0.38417  0.03122  1.0000
  C   C241      1.0  0.25851  0.38708  0.04384  1.0000
  C   C242      1.0  0.25863  0.37778  0.07193  1.0000
  C   C243      1.0  0.24092  0.36516  0.08682  1.0000
  C   C244      1.0  0.22322  0.36180  0.07372  1.0000
  H   H429      1.0  0.07871  0.46300  0.41869  1.0000
  H   H430      1.0  0.27203  0.39701  0.03239  1.0000
  H   H431      1.0  0.24088  0.35794  0.10860  1.0000
  H   H432      1.0  0.20970  0.35201  0.08534  1.0000
  H   H433      1.0  0.22033  0.28466  0.13150  1.0000
  C   C245      1.0  0.11770  0.36925  0.46248  1.0000
  C   C246      1.0  0.30116  0.26854  0.46805  1.0000
  H   H434      1.0  0.37001  0.43005  0.16580  1.0000
  H   H435      1.0  0.02076  0.37671  0.24878  1.0000
  C   C247      1.0  0.42290  0.43822  0.15727  1.0000
  C   C248      1.0  0.41218  0.42158  0.14513  1.0000
  C   C249      1.0  0.39783  0.42113  0.12530  1.0000
  C   C250      1.0  0.39391  0.43734  0.11739  1.0000
  C   C251      1.0  0.40457  0.45396  0.12961  1.0000
  C   C252      1.0  0.41899  0.45444  0.14934  1.0000
  H   H436      1.0  0.41510  0.40895  0.15098  1.0000
  H   H437      1.0  0.38981  0.40825  0.11615  1.0000
  H   H438      1.0  0.40160  0.46657  0.12386  1.0000
  H   H439      1.0  0.42706  0.46735  0.15842  1.0000
  C   C253      1.0  0.45879  0.42154  0.33687  1.0000
  C   C254      1.0  0.46595  0.41008  0.32191  1.0000
  C   C255      1.0  0.46414  0.39223  0.33599  1.0000
  C   C256      1.0  0.45440  0.38529  0.36456  1.0000
  C   C257      1.0  0.44684  0.39657  0.37915  1.0000
  C   C258      1.0  0.44934  0.41472  0.36558  1.0000
  H   H440      1.0  0.07921  0.42507  0.37036  1.0000
  C   C259      1.0  0.34171  0.27713  0.36433  1.0000
  H   H441      1.0  0.43961  0.39154  0.40131  1.0000
  H   H442      1.0  0.44387  0.42353  0.37742  1.0000
  H   H443      1.0  0.36657  0.29530  0.38409  1.0000
  C   C260      1.0  0.42846  0.34778  0.30530  1.0000
  H   H444      1.0  0.09149  0.35459  0.44012  1.0000
  C   C261      1.0  0.18267  0.29267  0.35751  1.0000
  N   N13       1.0  0.29758  0.28611  0.47348  1.0000
  H   H445      1.0  0.14261  0.39468  0.25644  1.0000
  H   H446      1.0  0.33296  0.27807  0.46390  1.0000
  H   H447      1.0  0.15703  0.47450  0.17008  1.0000
  C   C262      1.0  0.11233  0.35009  0.20796  1.0000
  C   C263      1.0  0.09755  0.35137  0.19074  1.0000
  C   C264      1.0  0.09752  0.34785  0.16076  1.0000
  C   C265      1.0  0.11215  0.34288  0.14774  1.0000
  C   C266      1.0  0.12665  0.34112  0.16518  1.0000
  C   C267      1.0  0.12674  0.34474  0.19514  1.0000
  H   H448      1.0  0.08631  0.35534  0.20038  1.0000
  H   H449      1.0  0.08619  0.34915  0.14750  1.0000
  H   H450      1.0  0.13796  0.33725  0.15548  1.0000
  H   H451      1.0  0.13818  0.34363  0.20832  1.0000
  C   C268      1.0  0.09135  0.39573  0.39655  1.0000
  C   C269      1.0  0.09988  0.40530  0.42039  1.0000
  C   C270      1.0  0.08918  0.40213  0.44807  1.0000
  C   C271      1.0  0.06967  0.38979  0.45178  1.0000
  C   C272      1.0  0.06107  0.38047  0.42781  1.0000
  C   C273      1.0  0.07192  0.38324  0.40038  1.0000
  H   H452      1.0  0.11474  0.41536  0.41737  1.0000
  H   H453      1.0  0.09589  0.40957  0.46632  1.0000
  H   H454      1.0  0.04591  0.37112  0.43044  1.0000
  H   H455      1.0  0.06520  0.37585  0.38209  1.0000
  C   C274      1.0  0.98971  0.40769  0.23296  1.0000
  C   C275      1.0  0.01618  0.32609  0.26670  1.0000
  H   H456      1.0  0.02805  0.31670  0.01606  1.0000
  H   H457      1.0  0.03162  0.33019  0.26144  1.0000
  C   C276      1.0  0.05677  0.43208  0.24634  1.0000
  C   C277      1.0  0.05883  0.44941  0.23039  1.0000
  C   C278      1.0  0.04902  0.46038  0.24097  1.0000
  C   C279      1.0  0.03704  0.45402  0.26756  1.0000
  C   C280      1.0  0.03430  0.43631  0.28278  1.0000
  C   C281      1.0  0.04407  0.42534  0.27218  1.0000
  H   H458      1.0  0.06840  0.45461  0.21015  1.0000
  H   H459      1.0  0.02444  0.43106  0.30266  1.0000
  C   C282      1.0  0.34151  0.39871  0.15941  1.0000
  C   C283      1.0  0.33141  0.40102  0.23288  1.0000
  C   C284      1.0  0.34966  0.38503  0.17603  1.0000
  C   C285      1.0  0.35190  0.37108  0.15572  1.0000
  C   C286      1.0  0.31436  0.38916  0.25548  1.0000
  H   H460      1.0  0.36447  0.41805  0.20191  1.0000
  H   H461      1.0  0.32721  0.38953  0.15249  1.0000
  H   H462      1.0  0.35109  0.40531  0.13849  1.0000
  H   H463      1.0  0.33952  0.41430  0.24222  1.0000
  H   H464      1.0  0.34127  0.39333  0.23121  1.0000
  H   H465      1.0  0.36420  0.39268  0.18369  1.0000
  H   H466      1.0  0.33941  0.37647  0.19516  1.0000
  H   H467      1.0  0.36193  0.37866  0.13572  1.0000
  H   H468      1.0  0.35800  0.36155  0.16789  1.0000
  H   H469      1.0  0.33754  0.36231  0.14851  1.0000
  C   C287      1.0  0.00158  0.25830  0.99845  1.0000
  H   H470      1.0  0.11596  0.26152  0.10736  1.0000
  C   C288      1.0  0.99681  0.42861  0.22116  1.0000
  H   H471      1.0  0.17966  0.25782  0.12824  1.0000
  H   H472      1.0  0.24765  0.30655  0.31168  1.0000
  H   H473      1.0  0.16676  0.33846  0.44608  1.0000
  H   H474      1.0  0.28376  0.32755  0.12680  1.0000
  C   C289      1.0  0.07572  0.43855  0.32769  1.0000
  C   C290      1.0  0.09503  0.43989  0.31265  1.0000
  H   H475      1.0  0.06432  0.42559  0.32186  1.0000
  H   H476      1.0  0.07273  0.45091  0.31795  1.0000
  H   H477      1.0  0.09840  0.42745  0.32079  1.0000
  H   H478      1.0  0.09401  0.44018  0.28819  1.0000
  H   H479      1.0  0.10704  0.45296  0.31705  1.0000
  H   H480      1.0  0.14794  0.46528  0.13624  1.0000
  H   H481      1.0  0.01560  0.35483  0.17687  1.0000
  H   H482      1.0  0.04112  0.36759  0.16639  1.0000
  H   H483      1.0  0.03344  0.35139  0.20018  1.0000
  H   H484      1.0  0.31951  0.27762  0.20407  1.0000
  H   H485      1.0  0.11408  0.40442  0.13181  1.0000
  C   C291      1.0  0.15413  0.40747  0.24423  1.0000
  H   H486      1.0  0.11430  0.26399  0.04106  1.0000
  S   S89       1.0  0.16022  0.27999  0.09988  1.0000
  H   H487      1.0  0.30016  0.34700  0.06955  1.0000
  C   C292      1.0  0.14327  0.37197  0.38395  1.0000
  H   H488      1.0  0.04665  0.46282  0.41361  1.0000
  H   H489      1.0  0.06347  0.29599  0.00391  1.0000
  C   C293      1.0  0.00393  0.39875  0.22176  1.0000
  H   H490      1.0  0.27425  0.28553  0.25255  1.0000
  C   C294      1.0  0.13403  0.36445  0.35586  1.0000
  H   H491      1.0  0.15310  0.36825  0.47293  1.0000
  H   H492      1.0  0.08862  0.45433  0.46782  1.0000
  C   C295      1.0  0.24239  0.30674  0.08079  1.0000
  H   H493      1.0  0.99648  0.31094  0.16827  1.0000
  H   H494      1.0  0.16001  0.39777  0.42112  1.0000
  H   H495      1.0  0.16166  0.36841  0.43610  1.0000
  H   H496      1.0  0.24781  0.27211  0.20204  1.0000
  H   H497      1.0  0.12777  0.38589  0.11323  1.0000
  H   H498      1.0  0.23661  0.30690  0.44389  1.0000
  H   H499      1.0  0.15114  0.38744  0.37830  1.0000
  H   H500      1.0  0.15388  0.36537  0.38937  1.0000
  S   S90       1.0  0.24479  0.27894  0.41444  1.0000
  H   H501      1.0  0.27870  0.34140  0.03462  1.0000
  C   C296      1.0  0.07546  0.44449  0.45886  1.0000
  C   C297      1.0  0.02105  0.32626  0.43457  1.0000
  C   C298      1.0  0.23613  0.29116  0.13438  1.0000
  C   C299      1.0  0.99045  0.31857  0.15183  1.0000
  H   H502      1.0  0.26363  0.30050  0.10883  1.0000
  H   H503      1.0  0.18572  0.29363  0.38113  1.0000
  H   H504      1.0  0.02668  0.34818  0.01908  1.0000
  H   H505      1.0  0.15418  0.38374  0.08209  1.0000
  H   H506      1.0  0.12353  0.37100  0.34909  1.0000
  H   H507      1.0  0.14548  0.36799  0.33726  1.0000
  H   H508      1.0  0.12632  0.34887  0.35963  1.0000
  N   N14       1.0  0.39531  0.37562  0.32219  1.0000
  C   C300      1.0  0.39910  0.38777  0.29257  1.0000
  C   C301      1.0  0.37523  0.36045  0.32381  1.0000
  C   C302      1.0  0.39715  0.38803  0.34668  1.0000
  C   C303      1.0  0.40987  0.36633  0.32588  1.0000
  C   C304      1.0  0.41142  0.35414  0.30130  1.0000
  C   C305      1.0  0.42015  0.40252  0.28521  1.0000
  C   C306      1.0  0.38968  0.37761  0.37855  1.0000
  C   C307      1.0  0.35824  0.36754  0.32212  1.0000
  C   C308      1.0  0.33864  0.35134  0.33065  1.0000
  C   C309      1.0  0.42202  0.41448  0.25540  1.0000
  C   C310      1.0  0.39326  0.39155  0.40155  1.0000
  H   H509      1.0  0.38938  0.39583  0.29151  1.0000
  H   H510      1.0  0.39526  0.37892  0.27400  1.0000
  H   H511      1.0  0.37395  0.35180  0.30513  1.0000
  H   H512      1.0  0.37264  0.35023  0.34421  1.0000
  H   H513      1.0  0.38969  0.39802  0.34181  1.0000
  H   H514      1.0  0.41263  0.39730  0.34770  1.0000
  H   H515      1.0  0.42457  0.37708  0.32767  1.0000
  H   H516      1.0  0.40645  0.35685  0.34728  1.0000
  H   H517      1.0  0.41379  0.36200  0.27871  1.0000
  H   H518      1.0  0.39798  0.34123  0.30247  1.0000
  H   H519      1.0  0.42432  0.41228  0.30243  1.0000
  H   H520      1.0  0.43079  0.39559  0.28364  1.0000
  H   H521      1.0  0.39717  0.36794  0.38501  1.0000
  H   H522      1.0  0.37379  0.36927  0.38012  1.0000
  H   H523      1.0  0.35947  0.37832  0.33728  1.0000
  H   H524      1.0  0.35804  0.37386  0.29904  1.0000
  H   H525      1.0  0.32664  0.35641  0.32692  1.0000
  H   H526      1.0  0.33684  0.33959  0.31717  1.0000
  H   H527      1.0  0.33758  0.34602  0.35462  1.0000
  H   H528      1.0  0.41867  0.40553  0.23696  1.0000
  H   H529      1.0  0.41217  0.42236  0.25584  1.0000
  H   H530      1.0  0.43717  0.42493  0.25081  1.0000
  H   H531      1.0  0.38781  0.38365  0.42408  1.0000
  H   H532      1.0  0.40905  0.39999  0.40172  1.0000
  H   H533      1.0  0.38547  0.40122  0.39666  1.0000
  H   H534      1.0  0.13999  0.40096  0.48035  1.0000
  C   C311      1.0  0.28296  0.27074  0.21860  1.0000
  C   C312      1.0  0.24811  0.29435  0.10470  1.0000
  C   C313      1.0  0.31193  0.26287  0.21505  1.0000
  C   C314      1.0  0.30259  0.27150  0.26231  1.0000
  C   C315      1.0  0.31535  0.29285  0.25539  1.0000
  C   C316      1.0  0.26742  0.27484  0.23744  1.0000
  H   H535      1.0  0.12228  0.36807  0.48550  1.0000
  C   C317      1.0  0.01341  0.37132  0.22870  1.0000
  H   H536      1.0  0.29045  0.26953  0.27921  1.0000
  C   C318      1.0  0.32110  0.30174  0.28403  1.0000
  H   H537      1.0  0.02767  0.45115  0.39060  1.0000
  H   H538      1.0  0.21166  0.28441  0.37569  1.0000
  C   C319      1.0  0.22106  0.28346  0.32999  1.0000
  H   H539      1.0  0.29246  0.28428  0.20527  1.0000
  H   H540      1.0  0.16114  0.33905  0.48513  1.0000
  C   C320      1.0  0.15489  0.33405  0.46423  1.0000
  H   H541      1.0  0.29423  0.32106  0.02347  1.0000
  S   S91       1.0  0.48835  0.48549  0.19386  1.0000
  C   C321      1.0  0.08508  0.32009  0.03925  1.0000
  C   C322      1.0  0.18100  0.26134  0.41602  1.0000
  H   H542      1.0  0.30769  0.30071  0.24281  1.0000
  H   H543      1.0  0.32900  0.29494  0.24200  1.0000
  H   H544      1.0  0.45577  0.29232  0.46647  1.0000
  Fe  Fe42      1.0  0.48174  0.49683  0.23522  1.0000
  H   H545      1.0  0.15382  0.26342  0.01691  1.0000
  H   H546      1.0  0.99512  0.43042  0.19691  1.0000
  C   C323      1.0  0.22975  0.29355  0.45785  1.0000
  C   C324      1.0  0.14686  0.42855  0.15259  1.0000
  H   H547      1.0  0.17168  0.46645  0.14648  1.0000
  C   C325      1.0  0.35905  0.42602  0.18517  1.0000
  C   C326      1.0  0.03470  0.33314  0.40604  1.0000
  H   H548      1.0  0.30796  0.30028  0.29823  1.0000
  H   H549      1.0  0.32970  0.29488  0.29670  1.0000
  H   H550      1.0  0.33019  0.31698  0.27849  1.0000
  H   H551      1.0  0.20454  0.27344  0.02194  1.0000
  H   H552      1.0  0.16311  0.39867  0.47495  1.0000
  H   H553      1.0  0.29604  0.32165  0.46335  1.0000
  H   H554      1.0  0.11279  0.38132  0.46105  1.0000
  H   H555      1.0  0.00631  0.27980  0.46588  1.0000
  H   H556      1.0  0.99750  0.36167  0.28697  1.0000
  C   C327      1.0  0.14284  0.39463  0.11790  1.0000
  C   C328      1.0  0.15616  0.38533  0.10601  1.0000
  H   H557      1.0  0.16662  0.41869  0.19933  1.0000
  C   C329      1.0  0.33152  0.31339  0.47512  1.0000
  H   H558      1.0  0.17575  0.42905  0.44145  1.0000
  H   H559      1.0  0.31990  0.38661  0.27727  1.0000
  S   S92       1.0  0.27389  0.25480  0.06746  1.0000
  C   C330      1.0  0.14808  0.36373  0.45111  1.0000
  H   H560      1.0  0.15237  0.43122  0.44692  1.0000
  H   H561      1.0  0.09201  0.27735  0.01259  1.0000
  C   C331      1.0  0.02992  0.36197  0.18552  1.0000
  H   H562      1.0  0.08933  0.44990  0.36636  1.0000
  C   C332      1.0  0.37886  0.45311  0.21296  1.0000
  H   H563      1.0  0.09647  0.33346  0.04415  1.0000
  N   N15       1.0  0.01578  0.30586  0.48597  1.0000
  H   H564      1.0  0.42870  0.33828  0.28848  1.0000
  C   C333      1.0  0.07619  0.43774  0.36200  1.0000
  N   N16       1.0  0.33934  0.41394  0.17621  1.0000
  C   C334      1.0  0.28657  0.33496  0.07845  1.0000
  H   H565      1.0  0.31105  0.30235  0.43099  1.0000
  H   H566      1.0  0.07613  0.31281  0.06034  1.0000
  H   H567      1.0  0.23560  0.31151  0.34328  1.0000
  H   H568      1.0  0.22556  0.27339  0.31856  1.0000
  C   C335      1.0  0.21828  0.32824  0.00711  1.0000
  H   H569      1.0  0.05115  0.47398  0.22900  1.0000
  C   C336      1.0  0.32418  0.40548  0.20235  1.0000
  H   H570      1.0  0.31258  0.39231  0.19697  1.0000
  H   H571      1.0  0.27539  0.28215  0.00133  1.0000
  S   S93       1.0  0.48049  0.44590  0.23570  1.0000
  C   C337      1.0  0.23134  0.27718  0.44868  1.0000
  H   H572      1.0  0.47311  0.41509  0.29972  1.0000
  H   H573      1.0  0.44246  0.36015  0.30228  1.0000
  H   H574      1.0  0.02948  0.38995  0.18728  1.0000
  N   N17       1.0  0.18873  0.26116  0.35938  1.0000
  H   H575      1.0  0.05182  0.40137  0.36486  1.0000
  H   H576      1.0  0.04416  0.38371  0.21242  1.0000
  C   C338      1.0  0.36039  0.44469  0.19696  1.0000
  H   H577      1.0  0.32315  0.25977  0.22772  1.0000
  H   H578      1.0  0.09099  0.44687  0.41675  1.0000
  C   C339      1.0  0.23944  0.30048  0.33371  1.0000
  H   H579      1.0  0.15255  0.37106  0.11828  1.0000
  H   H580      1.0  0.23994  0.28154  0.15058  1.0000
  H   H581      1.0  0.16380  0.30049  0.32770  1.0000
  H   H582      1.0  0.05362  0.45886  0.34738  1.0000
  H   H583      1.0  0.34761  0.44255  0.21246  1.0000
  H   H584      1.0  0.07196  0.46871  0.37131  1.0000
  H   H585      1.0  0.06093  0.41999  0.41662  1.0000
  H   H586      1.0  0.00739  0.38987  0.36954  1.0000
  H   H587      1.0  0.99672  0.32140  0.48292  1.0000
  C   C340      1.0  0.14103  0.25704  0.00403  1.0000
  H   H588      1.0  0.27261  0.29703  0.06244  1.0000
  H   H589      1.0  0.04432  0.28931  0.48094  1.0000
  N   N18       1.0  0.05832  0.43807  0.37866  1.0000
  H   H590      1.0  0.28688  0.28662  0.42970  1.0000
  H   H591      1.0  0.24897  0.29621  0.34866  1.0000
  H   H592      1.0  0.42066  0.27985  0.48111  1.0000
  Fe  Fe43      1.0  0.01146  0.48304  0.25325  1.0000
  C   C341      1.0  0.03857  0.40269  0.37446  1.0000
  H   H593      1.0  0.03767  0.42692  0.34634  1.0000
  C   C342      1.0  0.33271  0.42632  0.15482  1.0000
  H   H594      1.0  0.34441  0.43421  0.13682  1.0000
  H   H595      1.0  0.31642  0.41506  0.20642  1.0000
  H   H596      1.0  0.31693  0.40775  0.12257  1.0000
  H   H597      1.0  0.03654  0.39744  0.39857  1.0000
  C   C343      1.0  0.05742  0.45727  0.37081  1.0000
  N   N19       1.0  0.13506  0.40827  0.16506  1.0000
  H   H598      1.0  0.00916  0.40492  0.19824  1.0000
  C   C344      1.0  0.03994  0.42340  0.36991  1.0000
  C   C345      1.0  0.05968  0.43394  0.41157  1.0000
  H   H599      1.0  0.04722  0.29979  0.02997  1.0000
  C   C346      1.0  0.31396  0.41608  0.13944  1.0000
  H   H600      1.0  0.36093  0.45527  0.17796  1.0000
  C   C347      1.0  0.04257  0.46195  0.39033  1.0000
  C   C348      1.0  0.28789  0.29413  0.00782  1.0000
  H   H601      1.0  0.22769  0.29742  0.07531  1.0000
  H   H602      1.0  0.02698  0.42348  0.38291  1.0000
  C   C349      1.0  0.18531  0.26151  0.10511  1.0000
  C   C350      1.0  0.02125  0.38969  0.35975  1.0000
  H   H603      1.0  0.13299  0.33577  0.43614  1.0000
  H   H604      1.0  0.02072  0.37499  0.36327  1.0000
  H   H605      1.0  0.32996  0.43730  0.16642  1.0000
  H   H606      1.0  0.30209  0.40643  0.15582  1.0000
  C   C351      1.0  0.07732  0.44823  0.42486  1.0000
  H   H607      1.0  0.01945  0.33876  0.44286  1.0000
  H   H608      1.0  0.00665  0.31696  0.42842  1.0000
  H   H609      1.0  0.26462  0.29597  0.20400  1.0000
  H   H610      1.0  0.25404  0.28828  0.03885  1.0000
  H   H611      1.0  0.14714  0.40888  0.10531  1.0000
  H   H612      1.0  0.99882  0.38552  0.28276  1.0000
  S   S94       1.0  0.40877  0.27087  0.41441  1.0000
  H   H613      1.0  0.05635  0.49247  0.37818  1.0000
  H   H614      1.0  0.19572  0.27176  0.41856  1.0000
  C   C352      1.0  0.22242  0.26003  0.46697  1.0000
  H   H615      1.0  0.02271  0.39411  0.33536  1.0000
  C   C353      1.0  0.30669  0.43019  0.12293  1.0000
  H   H616      1.0  0.31815  0.44001  0.10605  1.0000
  C   C354      1.0  0.04183  0.48096  0.37836  1.0000
  H   H617      1.0  0.14828  0.31838  0.46782  1.0000
  H   H618      1.0  0.20774  0.31355  0.00687  1.0000
  N   N20       1.0  0.99647  0.37742  0.22432  1.0000
  C   C355      1.0  0.11439  0.40226  0.15640  1.0000
  H   H619      1.0  0.29375  0.42247  0.11122  1.0000
  H   H620      1.0  0.30245  0.43842  0.13875  1.0000
  H   H621      1.0  0.04602  0.43253  0.42442  1.0000
  C   C356      1.0  0.29670  0.29656  0.44388  1.0000
  H   H622      1.0  0.15149  0.42020  0.24933  1.0000
  H   H623      1.0  0.01704  0.40445  0.23434  1.0000
  H   H624      1.0  0.12812  0.33699  0.47532  1.0000
  H   H625      1.0  0.26613  0.27201  0.47611  1.0000
  C   C357      1.0  0.08055  0.40262  0.16252  1.0000
  H   H626      1.0  0.11873  0.35220  0.41181  1.0000
  H   H627      1.0  0.17167  0.39407  0.10818  1.0000
  C   C358      1.0  0.14718  0.44401  0.17245  1.0000
  C   C359      1.0  0.13473  0.40476  0.19854  1.0000
  C   C360      1.0  0.25526  0.28246  0.21739  1.0000
  C   C361      1.0  0.14396  0.39567  0.15189  1.0000
  H   H628      1.0  0.14182  0.43193  0.13069  1.0000
  C   C362      1.0  0.15655  0.46374  0.15513  1.0000
  H   H629      1.0  0.33785  0.30785  0.45764  1.0000
  H   H630      1.0  0.15962  0.40022  0.15605  1.0000
  H   H631      1.0  0.99880  0.37591  0.17679  1.0000
  H   H632      1.0  0.24526  0.28041  0.09686  1.0000
  C   C363      1.0  0.02987  0.37807  0.20287  1.0000
  H   H633      1.0  0.07444  0.38813  0.17470  1.0000
  C   C364      1.0  0.10180  0.41243  0.16887  1.0000
  H   H634      1.0  0.04298  0.32666  0.46456  1.0000
  S   S95       1.0  0.25997  0.26219  0.34392  1.0000
  H   H635      1.0  0.07191  0.41063  0.17027  1.0000
  H   H636      1.0  0.22201  0.32428  0.05365  1.0000
  H   H637      1.0  0.04973  0.34173  0.41093  1.0000
  C   C365      1.0  0.99992  0.28860  0.47729  1.0000
  H   H638      1.0  0.28903  0.25922  0.45622  1.0000
  H   H639      1.0  0.03493  0.32097  0.39489  1.0000
  C   C366      1.0  0.02924  0.31596  0.45852  1.0000
  C   C367      1.0  0.20627  0.25913  0.06449  1.0000
  H   H640      1.0  0.29173  0.35223  0.11507  1.0000
  C   C368      1.0  0.15440  0.40619  0.21075  1.0000
  H   H641      1.0  0.15581  0.44354  0.19177  1.0000
  H   H642      1.0  0.30432  0.39663  0.25871  1.0000
  H   H643      1.0  0.47024  0.38369  0.32465  1.0000
  H   H644      1.0  0.27597  0.31495  0.99735  1.0000
  H   H645      1.0  0.13245  0.44224  0.18137  1.0000
  C   C369      1.0  0.00314  0.31891  0.24521  1.0000
  C   C370      1.0  0.28167  0.33817  0.11030  1.0000
  H   H646      1.0  0.07922  0.40187  0.13828  1.0000
  H   H647      1.0  0.01060  0.28389  0.01910  1.0000
  H   H648      1.0  0.43005  0.26138  0.48274  1.0000
  H   H649      1.0  0.16241  0.43071  0.14758  1.0000
  H   H650      1.0  0.13695  0.38096  0.16315  1.0000
  H   H651      1.0  0.17476  0.25676  0.46406  1.0000
  H   H652      1.0  0.10196  0.33896  0.45727  1.0000
  H   H653      1.0  0.39197  0.45567  0.19781  1.0000
  C   C371      1.0  0.16253  0.42521  0.45695  1.0000
  H   H654      1.0  0.09245  0.31111  0.03096  1.0000
  H   H655      1.0  0.23981  0.31813  0.09150  1.0000
  C   C372      1.0  0.31278  0.29817  0.49207  1.0000
  H   H656      1.0  0.03380  0.30584  0.44729  1.0000
  H   H657      1.0  0.10201  0.41248  0.19331  1.0000
  C   C373      1.0  0.20987  0.27352  0.36052  1.0000
  H   H658      1.0  0.26363  0.34371  0.06331  1.0000
  H   H659      1.0  0.02645  0.27095  0.02261  1.0000
  H   H660      1.0  0.29464  0.28886  0.02621  1.0000
  C   C374      1.0  0.00916  0.32766  0.29503  1.0000
  H   H661      1.0  0.00860  0.31777  0.22329  1.0000
  H   H662      1.0  0.10688  0.42716  0.15781  1.0000
  C   C375      1.0  0.15259  0.40379  0.46408  1.0000
  H   H663      1.0  0.16836  0.40837  0.25219  1.0000
  S   S96       1.0  0.05534  0.38642  0.48543  1.0000
  H   H664      1.0  0.15729  0.39334  0.20711  1.0000
  Fe  Fe44      1.0  0.33660  0.41152  0.00706  1.0000
  H   H665      1.0  0.02954  0.34198  0.39031  1.0000
  H   H666      1.0  0.07879  0.35870  0.48811  1.0000
  H   H667      1.0  0.10661  0.38685  0.16315  1.0000
  C   C376      1.0  0.12754  0.36752  0.41018  1.0000
  H   H668      1.0  0.30122  0.26016  0.48946  1.0000
  C   C377      1.0  0.28945  0.31298  0.44552  1.0000
  H   H669      1.0  0.33564  0.25539  0.43149  1.0000
  H   H670      1.0  0.25743  0.26193  0.25129  1.0000
  C   C378      1.0  0.32058  0.27153  0.45046  1.0000
  H   H671      1.0  0.20994  0.33733  0.01027  1.0000
  C   C379      1.0  0.17646  0.27219  0.34930  1.0000
  N   N21       1.0  0.13476  0.37325  0.43985  1.0000
  H   H672      1.0  0.12395  0.39041  0.20685  1.0000
  H   H673      1.0  0.13790  0.40168  0.42331  1.0000
  C   C380      1.0  0.14631  0.39431  0.43540  1.0000
  H   H674      1.0  0.31008  0.33296  0.41089  1.0000
  C   C381      1.0  0.26544  0.30165  0.04398  1.0000
  H   H675      1.0  0.13466  0.28274  0.00306  1.0000
  H   H676      1.0  0.32965  0.26953  0.15696  1.0000
  C   C382      1.0  0.13936  0.34191  0.45623  1.0000
  C   C383      1.0  0.27082  0.33423  0.05652  1.0000
  H   H677      1.0  0.26659  0.33751  0.11402  1.0000
  N   N22       1.0  0.25603  0.31499  0.05284  1.0000
  H   H678      1.0  0.23928  0.30475  0.14362  1.0000
  H   H679      1.0  0.29053  0.32249  0.07913  1.0000
  H   H680      1.0  0.25303  0.32386  0.00687  1.0000
  C   C384      1.0  0.19937  0.27029  0.04526  1.0000
  H   H681      1.0  0.28755  0.31755  0.39769  1.0000
  N   N23       1.0  0.29490  0.26162  0.23565  1.0000
  H   H682      1.0  0.34802  0.26679  0.36116  1.0000
  Fe  Fe45      1.0  0.40426  0.32285  0.47286  1.0000
  H   H683      1.0  0.01230  0.43598  0.22507  1.0000
  H   H684      1.0  0.30620  0.37527  0.24783  1.0000
  C   C385      1.0  0.28125  0.30946  0.01727  1.0000
  H   H685      1.0  0.03706  0.48060  0.35536  1.0000
  H   H686      1.0  0.32830  0.32532  0.46406  1.0000
  H   H687      1.0  0.31181  0.26493  0.27400  1.0000
  C   C386      1.0  0.16694  0.30060  0.35150  1.0000
  C   C387      1.0  0.18588  0.27748  0.05612  1.0000
  H   H688      1.0  0.15335  0.29217  0.36575  1.0000
  C   C388      1.0  0.17861  0.27290  0.08603  1.0000
  H   H689      1.0  0.06253  0.44668  0.46825  1.0000
  H   H690      1.0  0.24108  0.34422  0.03257  1.0000
  H   H691      1.0  0.21785  0.26497  0.37046  1.0000
  H   H692      1.0  0.03126  0.48411  0.39276  1.0000
  H   H693      1.0  0.17073  0.26865  0.41301  1.0000
  H   H694      1.0  0.21824  0.30551  0.49180  1.0000
  H   H695      1.0  0.07406  0.42982  0.46636  1.0000
  H   H696      1.0  0.23378  0.30300  0.02314  1.0000
  C   C389      1.0  0.24385  0.31717  0.02782  1.0000
  C   C390      1.0  0.05642  0.30601  0.00871  1.0000
  H   H697      1.0  0.37876  0.44346  0.23298  1.0000
  C   C391      1.0  0.19932  0.25489  0.09452  1.0000
  H   H698      1.0  0.21190  0.28829  0.31513  1.0000
  H   H699      1.0  0.17620  0.27350  0.32458  1.0000
  C   C392      1.0  0.23147  0.32920  0.03250  1.0000
  H   H700      1.0  0.27340  0.30720  0.45040  1.0000
  H   H701      1.0  0.32256  0.28038  0.42894  1.0000
  H   H702      1.0  0.13419  0.26184  0.05862  1.0000
  H   H703      1.0  0.00807  0.35570  0.23381  1.0000
  C   C393      1.0  0.09892  0.35177  0.45985  1.0000
  H   H704      1.0  0.17199  0.31541  0.35670  1.0000
  H   H705      1.0  0.16099  0.26425  0.35794  1.0000
  H   H706      1.0  0.99121  0.29267  0.46057  1.0000
  C   C394      1.0  0.21932  0.29281  0.48499  1.0000
  H   H707      1.0  0.09483  0.26156  0.08870  1.0000
  H   H708      1.0  0.19318  0.25467  0.31474  1.0000
  H   H709      1.0  0.16693  0.43150  0.47789  1.0000
  H   H710      1.0  0.35125  0.25888  0.30893  1.0000
  H   H711      1.0  0.03213  0.34523  0.48973  1.0000
  C   C395      1.0  0.45056  0.28837  0.49045  1.0000
  C   C396      1.0  0.01761  0.27586  0.00712  1.0000
  H   H712      1.0  0.36033  0.33242  0.48359  1.0000
  C   C397      1.0  0.08460  0.34736  0.48724  1.0000
  H   H713      1.0  0.37981  0.46680  0.22013  1.0000
  C   C398      1.0  0.27774  0.27978  0.49027  1.0000
  H   H714      1.0  0.24063  0.39201  0.01019  1.0000
  H   H715      1.0  0.07233  0.33380  0.48622  1.0000
  H   H716      1.0  0.37247  0.25740  0.45273  1.0000
  H   H717      1.0  0.04300  0.50394  0.11157  1.0000
  Fe  Fe46      1.0  0.24742  0.25461  0.39176  1.0000
  C   C399      1.0  0.07256  0.32439  0.01581  1.0000
  Fe  Fe47      1.0  0.27760  0.25847  0.11558  1.0000
  H   H718      1.0  0.06597  0.33364  0.02516  1.0000
  H   H719      1.0  0.08250  0.33213  0.99587  1.0000
  C   C400      1.0  0.02773  0.35011  0.99434  1.0000
  Fe  Fe48      1.0  0.15563  0.30024  0.59547  1.0000
  S   S97       1.0  0.16489  0.30515  0.54647  1.0000
  S   S98       1.0  0.12467  0.28856  0.61809  1.0000
  Fe  Fe49      1.0  0.19805  0.31922  0.61315  1.0000
  S   S99       1.0  0.21045  0.32558  0.56524  1.0000
  S   S100      1.0  0.21337  0.32271  0.65668  1.0000
  Fe  Fe50      1.0  0.18478  0.33388  0.55607  1.0000
  S   S101      1.0  0.18837  0.36019  0.52522  1.0000
  Fe  Fe51      1.0  0.18970  0.29638  0.55906  1.0000
  S   S102      1.0  0.19745  0.27386  0.53811  1.0000
  S   S103      1.0  0.17403  0.32976  0.60415  1.0000
  S   S104      1.0  0.17879  0.28927  0.60776  1.0000
  Fe  Fe52      1.0  0.07198  0.37557  0.59009  1.0000
  S   S105      1.0  0.09531  0.40162  0.60205  1.0000
  S   S106      1.0  0.06118  0.34895  0.62196  1.0000
  Fe  Fe53      1.0  0.07019  0.39329  0.52801  1.0000
  S   S107      1.0  0.09291  0.42111  0.53525  1.0000
  Fe  Fe54      1.0  0.10864  0.40353  0.55580  1.0000
  S   S108      1.0  0.14094  0.41246  0.54440  1.0000
  Fe  Fe55      1.0  0.07729  0.41659  0.58097  1.0000
  S   S109      1.0  0.07288  0.44086  0.60138  1.0000
  S   S110      1.0  0.08686  0.37605  0.54581  1.0000
  S   S111      1.0  0.05299  0.39017  0.57178  1.0000
  H   H720      1.0  0.28296  0.44510  0.93999  1.0000
  H   H721      1.0  0.07288  0.28113  0.90880  1.0000
  Fe  Fe56      1.0  0.01935  0.48887  0.77181  1.0000
  S   S112      1.0  0.01425  0.48357  0.72421  1.0000
  C   C401      1.0  0.03886  0.50066  0.64900  1.0000
  Fe  Fe57      1.0  0.00953  0.45332  0.73980  1.0000
  S   S113      1.0  0.01660  0.43112  0.71722  1.0000
  H   H722      1.0  0.33715  0.25828  0.85392  1.0000
  S   S114      1.0  0.01742  0.45926  0.78626  1.0000
  S   S115      1.0  0.45345  0.48434  0.76926  1.0000
  Fe  Fe58      1.0  0.41801  0.32826  0.73067  1.0000
  S   S116      1.0  0.40564  0.32440  0.68625  1.0000
  Fe  Fe59      1.0  0.40454  0.28499  0.74831  1.0000
  S   S117      1.0  0.39149  0.27807  0.70470  1.0000
  H   H723      1.0  0.01446  0.36891  0.82268  1.0000
  Fe  Fe60      1.0  0.41816  0.30229  0.68327  1.0000
  S   S118      1.0  0.43287  0.30203  0.63839  1.0000
  Fe  Fe61      1.0  0.37997  0.30078  0.71034  1.0000
  S   S119      1.0  0.35051  0.29936  0.69790  1.0000
  S   S120      1.0  0.43264  0.30759  0.72647  1.0000
  S   S121      1.0  0.39094  0.30609  0.75522  1.0000
  Fe  Fe62      1.0  0.30643  0.38242  0.74090  1.0000
  S   S122      1.0  0.29275  0.36581  0.78523  1.0000
  S   S123      1.0  0.29209  0.38247  0.69687  1.0000
  Fe  Fe63      1.0  0.34775  0.39789  0.76385  1.0000
  S   S124      1.0  0.33710  0.38173  0.80943  1.0000
  S   S125      1.0  0.38021  0.41162  0.74893  1.0000
  Fe  Fe64      1.0  0.31874  0.35772  0.78598  1.0000
  S   S126      1.0  0.31577  0.32810  0.80255  1.0000
  Fe  Fe65      1.0  0.31212  0.39118  0.80553  1.0000
  S   S127      1.0  0.30001  0.40070  0.84490  1.0000
  S   S128      1.0  0.33148  0.37275  0.74056  1.0000
  S   S129      1.0  0.32372  0.40899  0.76097  1.0000
  S   S130      1.0  0.33845  0.42890  0.96267  1.0000
  H   H724      1.0  0.10734  0.28019  0.72702  1.0000
  C   C402      1.0  0.31370  0.40840  0.87546  1.0000
  C   C403      1.0  0.31771  0.42688  0.88155  1.0000
  C   C404      1.0  0.32597  0.43293  0.90780  1.0000
  C   C405      1.0  0.32941  0.42035  0.92921  1.0000
  C   C406      1.0  0.32562  0.40179  0.92323  1.0000
  C   C407      1.0  0.31800  0.39590  0.89612  1.0000
  H   H725      1.0  0.31415  0.43654  0.86606  1.0000
  H   H726      1.0  0.32899  0.44731  0.91209  1.0000
  H   H727      1.0  0.32836  0.39201  0.93956  1.0000
  H   H728      1.0  0.31459  0.38147  0.89185  1.0000
  H   H729      1.0  0.39941  0.37755  0.63764  1.0000
  H   H730      1.0  0.36982  0.34987  0.70707  1.0000
  C   C408      1.0  0.39449  0.36687  0.65758  1.0000
  C   C409      1.0  0.04671  0.31511  0.92619  1.0000
  C   C410      1.0  0.42280  0.30820  0.60601  1.0000
  C   C411      1.0  0.43303  0.31145  0.57787  1.0000
  C   C412      1.0  0.42489  0.31564  0.55175  1.0000
  C   C413      1.0  0.40645  0.31660  0.55363  1.0000
  C   C414      1.0  0.39626  0.31331  0.58171  1.0000
  C   C415      1.0  0.40436  0.30915  0.60775  1.0000
  H   H731      1.0  0.44729  0.31071  0.57632  1.0000
  H   H732      1.0  0.43294  0.31829  0.53026  1.0000
  H   H733      1.0  0.38195  0.31390  0.58334  1.0000
  H   H734      1.0  0.39619  0.30639  0.62914  1.0000
  C   C416      1.0  0.33876  0.30546  0.72698  1.0000
  C   C417      1.0  0.33965  0.29877  0.75653  1.0000
  C   C418      1.0  0.33121  0.30468  0.77983  1.0000
  C   C419      1.0  0.32244  0.31773  0.77354  1.0000
  C   C420      1.0  0.32098  0.32389  0.74397  1.0000
  C   C421      1.0  0.32908  0.31771  0.72067  1.0000
  H   H735      1.0  0.34711  0.28928  0.76128  1.0000
  H   H736      1.0  0.33233  0.29999  0.80269  1.0000
  H   H737      1.0  0.31390  0.33369  0.73912  1.0000
  H   H738      1.0  0.32870  0.32313  0.69787  1.0000
  C   C422      1.0  0.43301  0.46398  0.76451  1.0000
  C   C423      1.0  0.43524  0.44759  0.75740  1.0000
  C   C424      1.0  0.41884  0.43167  0.75310  1.0000
  C   C425      1.0  0.40004  0.43188  0.75608  1.0000
  C   C426      1.0  0.39779  0.44830  0.76309  1.0000
  C   C427      1.0  0.41423  0.46428  0.76739  1.0000
  H   H739      1.0  0.44962  0.44722  0.75498  1.0000
  H   H740      1.0  0.42076  0.41911  0.74744  1.0000
  H   H741      1.0  0.38349  0.44886  0.76437  1.0000
  C   C428      1.0  0.05814  0.43777  0.63480  1.0000
  C   C429      1.0  0.04472  0.42000  0.64696  1.0000
  C   C430      1.0  0.03227  0.41824  0.67234  1.0000
  C   C431      1.0  0.03315  0.43417  0.68596  1.0000
  C   C432      1.0  0.04687  0.45189  0.67425  1.0000
  C   C433      1.0  0.05919  0.45368  0.64867  1.0000
  H   H742      1.0  0.04373  0.40766  0.63649  1.0000
  H   H743      1.0  0.02180  0.40446  0.68132  1.0000
  H   H744      1.0  0.04799  0.46419  0.68489  1.0000
  H   H745      1.0  0.06959  0.46747  0.63950  1.0000
  C   C434      1.0  0.04198  0.33213  0.60697  1.0000
  C   C435      1.0  0.02603  0.33627  0.59826  1.0000
  C   C436      1.0  0.00961  0.32200  0.58977  1.0000
  C   C437      1.0  0.00941  0.30379  0.58912  1.0000
  C   C438      1.0  0.02590  0.30004  0.59591  1.0000
  C   C439      1.0  0.04206  0.31411  0.60532  1.0000
  H   H746      1.0  0.02599  0.35024  0.59934  1.0000
  C   C440      1.0  0.01651  0.42382  0.57982  1.0000
  H   H747      1.0  0.02621  0.28630  0.59410  1.0000
  H   H748      1.0  0.05455  0.31098  0.61144  1.0000
  C   C441      1.0  0.23466  0.34037  0.66760  1.0000
  C   C442      1.0  0.24738  0.35530  0.64750  1.0000
  C   C443      1.0  0.26463  0.36827  0.65702  1.0000
  C   C444      1.0  0.26951  0.36642  0.68662  1.0000
  C   C445      1.0  0.25660  0.35168  0.70683  1.0000
  C   C446      1.0  0.23936  0.33874  0.69733  1.0000
  H   H749      1.0  0.24401  0.35679  0.62458  1.0000
  H   H750      1.0  0.27438  0.37971  0.64123  1.0000
  H   H751      1.0  0.26000  0.35016  0.72972  1.0000
  H   H752      1.0  0.22960  0.32733  0.71315  1.0000
  H   H753      1.0  0.38166  0.32698  0.84803  1.0000
  H   H754      1.0  0.46407  0.42297  0.76174  1.0000
  H   H755      1.0  0.99600  0.35974  0.87402  1.0000
  C   C447      1.0  0.10322  0.27654  0.60095  1.0000
  C   C448      1.0  0.08546  0.27681  0.61235  1.0000
  H   H756      1.0  0.28511  0.44034  0.97927  1.0000
  H   H757      1.0  0.08543  0.28574  0.62933  1.0000
  H   H758      1.0  0.19977  0.39956  0.52857  1.0000
  C   C449      1.0  0.17449  0.37374  0.53293  1.0000
  C   C450      1.0  0.18406  0.39326  0.53213  1.0000
  C   C451      1.0  0.17351  0.40476  0.53596  1.0000
  C   C452      1.0  0.15318  0.39697  0.54007  1.0000
  C   C453      1.0  0.14340  0.37746  0.54014  1.0000
  C   C454      1.0  0.15409  0.36581  0.53674  1.0000
  H   H759      1.0  0.00345  0.35594  0.68366  1.0000
  H   H760      1.0  0.44709  0.45590  0.69225  1.0000
  H   H761      1.0  0.12768  0.37148  0.54248  1.0000
  H   H762      1.0  0.14667  0.35083  0.53602  1.0000
  C   C455      1.0  0.37753  0.39567  0.65114  1.0000
  C   C456      1.0  0.09406  0.29406  0.93970  1.0000
  H   H763      1.0  0.39211  0.40395  0.63982  1.0000
  H   H764      1.0  0.10291  0.30567  0.92333  1.0000
  H   H765      1.0  0.32653  0.26549  0.80429  1.0000
  C   C457      1.0  0.00655  0.31825  0.49868  1.0000
  H   H766      1.0  0.02316  0.27150  0.50156  1.0000
  H   H767      1.0  0.34335  0.25703  0.78646  1.0000
  H   H768      1.0  0.99435  0.27949  0.78793  1.0000
  H   H769      1.0  0.22701  0.33327  0.98533  1.0000
  H   H770      1.0  0.00729  0.39861  0.77492  1.0000
  C   C458      1.0  0.03531  0.28521  0.50247  1.0000
  H   H771      1.0  0.01561  0.44506  0.85255  1.0000
  H   H772      1.0  0.37493  0.42081  0.66603  1.0000
  H   H773      1.0  0.03909  0.44643  0.83716  1.0000
  H   H774      1.0  0.45238  0.40623  0.67922  1.0000
  C   C459      1.0  0.00789  0.27821  0.77911  1.0000
  H   H775      1.0  0.34617  0.31548  0.90055  1.0000
  H   H776      1.0  0.22985  0.27888  0.62325  1.0000
  H   H777      1.0  0.28707  0.27299  0.53429  1.0000
  C   C460      1.0  0.36673  0.40904  0.65342  1.0000
  C   C461      1.0  0.07701  0.28019  0.93138  1.0000
  C   C462      1.0  0.34664  0.25955  0.83371  1.0000
  H   H778      1.0  0.41503  0.27189  0.58623  1.0000
  H   H779      1.0  0.41654  0.41596  0.66712  1.0000
  H   H780      1.0  0.01807  0.45752  0.58985  1.0000
  H   H781      1.0  0.29893  0.30007  0.98849  1.0000
  H   H782      1.0  0.29898  0.43351  0.95267  1.0000
  H   H783      1.0  0.02097  0.42085  0.80751  1.0000
  H   H784      1.0  0.36521  0.41508  0.63078  1.0000
  H   H785      1.0  0.35197  0.40143  0.66498  1.0000
  C   C463      1.0  0.02021  0.38435  0.82458  1.0000
  H   H786      1.0  0.36318  0.37599  0.68960  1.0000
  H   H787      1.0  0.00325  0.28655  0.91712  1.0000
  H   H788      1.0  0.40156  0.30035  0.82981  1.0000
  H   H789      1.0  0.45236  0.42811  0.66081  1.0000
  H   H790      1.0  0.32833  0.29161  0.90952  1.0000
  Fe  Fe66      1.0  0.48355  0.48375  0.76124  1.0000
  H   H791      1.0  0.43732  0.45736  0.65644  1.0000
  C   C464      1.0  0.36364  0.27915  0.82813  1.0000
  C   C465      1.0  0.36070  0.28983  0.87831  1.0000
  C   C466      1.0  0.34497  0.29700  0.86647  1.0000
  H   H792      1.0  0.31735  0.28900  0.50820  1.0000
  C   C467      1.0  0.33530  0.30338  0.89135  1.0000
  H   H793      1.0  0.02349  0.49355  0.61022  1.0000
  N   N24       1.0  0.00465  0.29421  0.69478  1.0000
  H   H794      1.0  0.35809  0.28940  0.81698  1.0000
  C   C468      1.0  0.00559  0.29395  0.72815  1.0000
  N   N25       1.0  0.00378  0.39143  0.82304  1.0000
  H   H795      1.0  0.37240  0.37383  0.74180  1.0000
  H   H796      1.0  0.16840  0.29173  0.97901  1.0000
  C   C469      1.0  0.29667  0.27175  0.66069  1.0000
  H   H797      1.0  0.36966  0.30011  0.89278  1.0000
  H   H798      1.0  0.08454  0.28170  0.73854  1.0000
  C   C470      1.0  0.06544  0.26509  0.95225  1.0000
  C   C471      1.0  0.48398  0.39279  0.73894  1.0000
  H   H799      1.0  0.32392  0.30804  0.88228  1.0000
  H   H800      1.0  0.03361  0.44342  0.87691  1.0000
  H   H801      1.0  0.40017  0.30864  0.86492  1.0000
  C   C472      1.0  0.38317  0.41888  0.94587  1.0000
  H   H802      1.0  0.01602  0.34998  0.65384  1.0000
  N   N26       1.0  0.38711  0.42302  0.85820  1.0000
  C   C473      1.0  0.38815  0.40394  0.85588  1.0000
  C   C474      1.0  0.38094  0.42439  0.88993  1.0000
  C   C475      1.0  0.37155  0.42456  0.83874  1.0000
  C   C476      1.0  0.40602  0.43906  0.84707  1.0000
  C   C477      1.0  0.42458  0.43890  0.86125  1.0000
  C   C478      1.0  0.39411  0.40042  0.82448  1.0000
  C   C479      1.0  0.36678  0.44254  0.83971  1.0000
  C   C480      1.0  0.38826  0.41427  0.91537  1.0000
  H   H803      1.0  0.26953  0.34541  0.96382  1.0000
  C   C481      1.0  0.44290  0.45350  0.84379  1.0000
  C   C482      1.0  0.39753  0.38198  0.82565  1.0000
  C   C483      1.0  0.35103  0.44250  0.81894  1.0000
  H   H804      1.0  0.37375  0.39256  0.86361  1.0000
  H   H805      1.0  0.39852  0.40133  0.87092  1.0000
  H   H806      1.0  0.38517  0.43945  0.89372  1.0000
  H   H807      1.0  0.36475  0.41812  0.89399  1.0000
  H   H808      1.0  0.35767  0.41216  0.84495  1.0000
  H   H809      1.0  0.37560  0.42422  0.81497  1.0000
  H   H810      1.0  0.40855  0.43997  0.82249  1.0000
  H   H811      1.0  0.40524  0.45284  0.85082  1.0000
  H   H812      1.0  0.42598  0.42505  0.86174  1.0000
  H   H813      1.0  0.42449  0.44275  0.88422  1.0000
  H   H814      1.0  0.38237  0.39922  0.80954  1.0000
  H   H815      1.0  0.40773  0.41188  0.81446  1.0000
  H   H816      1.0  0.37972  0.45554  0.83234  1.0000
  H   H817      1.0  0.36141  0.44340  0.86254  1.0000
  H   H818      1.0  0.38113  0.39870  0.91574  1.0000
  H   H819      1.0  0.40417  0.41814  0.91272  1.0000
  C   C484      1.0  0.01230  0.34761  0.67830  1.0000
  C   C485      1.0  0.27477  0.26708  0.52038  1.0000
  H   H820      1.0  0.02035  0.36197  0.52598  1.0000
  H   H821      1.0  0.45595  0.45406  0.85542  1.0000
  H   H822      1.0  0.44455  0.44959  0.82115  1.0000
  H   H823      1.0  0.44228  0.46779  0.84170  1.0000
  H   H824      1.0  0.38402  0.36980  0.83431  1.0000
  H   H825      1.0  0.40183  0.38005  0.80281  1.0000
  H   H826      1.0  0.40947  0.38237  0.83990  1.0000
  H   H827      1.0  0.33796  0.42931  0.82390  1.0000
  H   H828      1.0  0.34672  0.45463  0.82180  1.0000
  H   H829      1.0  0.35637  0.44367  0.79535  1.0000
  C   C486      1.0  0.10310  0.26500  0.57888  1.0000
  C   C487      1.0  0.01249  0.31452  0.68047  1.0000
  H   H830      1.0  0.99720  0.32498  0.71301  1.0000
  C   C488      1.0  0.08162  0.25755  0.71529  1.0000
  H   H831      1.0  0.41606  0.33211  0.80361  1.0000
  H   H832      1.0  0.99690  0.32496  0.58435  1.0000
  C   C489      1.0  0.39289  0.27594  0.89625  1.0000
  H   H833      1.0  0.02065  0.28869  0.96195  1.0000
  H   H834      1.0  0.02759  0.32209  0.68641  1.0000
  H   H835      1.0  0.01814  0.30641  0.73346  1.0000
  S   S131      1.0  0.40476  0.26455  0.78886  1.0000
  H   H836      1.0  0.02839  0.33420  0.52753  1.0000
  H   H837      1.0  0.06589  0.39347  0.78832  1.0000
  H   H838      1.0  0.04273  0.29820  0.70519  1.0000
  N   N27       1.0  0.04414  0.30787  0.98370  1.0000
  H   H839      1.0  0.15820  0.27826  0.94887  1.0000
  H   H840      1.0  0.38907  0.43437  0.94681  1.0000
  C   C490      1.0  0.46685  0.37668  0.73812  1.0000
  C   C491      1.0  0.40809  0.33701  0.82007  1.0000
  H   H841      1.0  0.39162  0.27242  0.57886  1.0000
  C   C492      1.0  0.02749  0.30061  0.50927  1.0000
  H   H842      1.0  0.45969  0.49182  0.64298  1.0000
  H   H843      1.0  0.03147  0.41339  0.86026  1.0000
  H   H844      1.0  0.38371  0.34130  0.76758  1.0000
  H   H845      1.0  0.06668  0.33125  0.95622  1.0000
  H   H846      1.0  0.11665  0.26458  0.57002  1.0000
  H   H847      1.0  0.33331  0.28562  0.85724  1.0000
  N   N28       1.0  0.11768  0.34415  0.63465  1.0000
  C   C493      1.0  0.10764  0.34960  0.65975  1.0000
  C   C494      1.0  0.13323  0.36157  0.61760  1.0000
  C   C495      1.0  0.10245  0.33533  0.61362  1.0000
  C   C496      1.0  0.12606  0.32978  0.64537  1.0000
  C   C497      1.0  0.14062  0.33503  0.66959  1.0000
  C   C498      1.0  0.09115  0.33321  0.67914  1.0000
  C   C499      1.0  0.10963  0.32985  0.58471  1.0000
  C   C500      1.0  0.14476  0.37769  0.63586  1.0000
  C   C501      1.0  0.16231  0.39261  0.61729  1.0000
  C   C502      1.0  0.14524  0.31805  0.68191  1.0000
  C   C503      1.0  0.08276  0.34050  0.70434  1.0000
  C   C504      1.0  0.09289  0.32191  0.56506  1.0000
  H   H848      1.0  0.10134  0.35991  0.65053  1.0000
  H   H849      1.0  0.11810  0.35710  0.67538  1.0000
  H   H850      1.0  0.14390  0.35758  0.60470  1.0000
  H   H851      1.0  0.12668  0.36844  0.60066  1.0000
  H   H852      1.0  0.09521  0.34519  0.60663  1.0000
  H   H853      1.0  0.09094  0.32213  0.62468  1.0000
  H   H854      1.0  0.11420  0.31593  0.65328  1.0000
  H   H855      1.0  0.13416  0.32698  0.62651  1.0000
  H   H856      1.0  0.13494  0.34001  0.68864  1.0000
  H   H857      1.0  0.15459  0.34608  0.65970  1.0000
  H   H858      1.0  0.07892  0.32618  0.66581  1.0000
  H   H859      1.0  0.09662  0.32260  0.68930  1.0000
  H   H860      1.0  0.11584  0.31896  0.58954  1.0000
  H   H861      1.0  0.12084  0.34227  0.57174  1.0000
  H   H862      1.0  0.13522  0.38492  0.64328  1.0000
  H   H863      1.0  0.15012  0.37246  0.65590  1.0000
  H   H864      1.0  0.17103  0.40305  0.63161  1.0000
  H   H865      1.0  0.17180  0.38611  0.60725  1.0000
  H   H866      1.0  0.15738  0.40030  0.59942  1.0000
  H   H867      1.0  0.15621  0.32231  0.69850  1.0000
  H   H868      1.0  0.13194  0.30656  0.69290  1.0000
  H   H869      1.0  0.15132  0.31258  0.66379  1.0000
  H   H870      1.0  0.09422  0.34748  0.71910  1.0000
  H   H871      1.0  0.07647  0.35072  0.69506  1.0000
  H   H872      1.0  0.07103  0.32852  0.71789  1.0000
  H   H873      1.0  0.08175  0.30859  0.57649  1.0000
  H   H874      1.0  0.08591  0.33222  0.55975  1.0000
  H   H875      1.0  0.09854  0.31881  0.54395  1.0000
  C   C505      1.0  0.99147  0.30165  0.88627  1.0000
  H   H876      1.0  0.39648  0.37509  0.74942  1.0000
  N   N29       1.0  0.39227  0.37566  0.68515  1.0000
  H   H877      1.0  0.02597  0.35284  0.68965  1.0000
  C   C506      1.0  0.09957  0.29326  0.96906  1.0000
  S   S132      1.0  0.03157  0.26416  0.85938  1.0000
  H   H878      1.0  0.44380  0.42106  0.69962  1.0000
  H   H879      1.0  0.41241  0.47699  0.77261  1.0000
  H   H880      1.0  0.27452  0.29222  0.49545  1.0000
  C   C507      1.0  0.38857  0.32131  0.83127  1.0000
  H   H881      1.0  0.35091  0.30893  0.84850  1.0000
  H   H882      1.0  0.25637  0.27903  0.54316  1.0000
  H   H883      1.0  0.23296  0.39568  0.87736  1.0000
  H   H884      1.0  0.37954  0.31822  0.81213  1.0000
  C   C508      1.0  0.02740  0.43958  0.85546  1.0000
  H   H885      1.0  0.41725  0.34160  0.83881  1.0000
  H   H886      1.0  0.33929  0.25935  0.52674  1.0000
  C   C509      1.0  0.25606  0.26505  0.53826  1.0000
  H   H887      1.0  0.46048  0.28265  0.50194  1.0000
  H   H888      1.0  0.23290  0.37121  0.84584  1.0000
  H   H889      1.0  0.00908  0.26546  0.79122  1.0000
  H   H890      1.0  0.40630  0.36127  0.65956  1.0000
  C   C510      1.0  0.01012  0.34947  0.51679  1.0000
  H   H891      1.0  0.99066  0.29595  0.96180  1.0000
  H   H892      1.0  0.38520  0.28030  0.91381  1.0000
  H   H893      1.0  0.23593  0.29135  0.58613  1.0000
  H   H894      1.0  0.00600  0.38299  0.88463  1.0000
  H   H895      1.0  0.42143  0.38043  0.69715  1.0000
  C   C511      1.0  0.01935  0.41813  0.85596  1.0000
  C   C512      1.0  0.03065  0.28814  0.97930  1.0000
  C   C513      1.0  0.39172  0.30369  0.84565  1.0000
  Fe  Fe67      1.0  0.00250  0.26595  0.86818  1.0000
  C   C514      1.0  0.03900  0.29427  0.68266  1.0000
  C   C515      1.0  0.01669  0.28457  0.68112  1.0000
  C   C516      1.0  0.21202  0.25931  0.49411  1.0000
  H   H896      1.0  0.12499  0.26910  0.97326  1.0000
  H   H897      1.0  0.39394  0.35163  0.71248  1.0000
  C   C517      1.0  0.27862  0.35951  0.96979  1.0000
  H   H898      1.0  0.25436  0.25602  0.55972  1.0000
  H   H899      1.0  0.25464  0.41735  0.96634  1.0000
  H   H900      1.0  0.28123  0.37301  0.92540  1.0000
  C   C518      1.0  0.48313  0.40963  0.74733  1.0000
  H   H901      1.0  0.04488  0.30734  0.66668  1.0000
  H   H902      1.0  0.36068  0.28085  0.52361  1.0000
  H   H903      1.0  0.38962  0.26726  0.49727  1.0000
  S   S133      1.0  0.42665  0.35718  0.74744  1.0000
  H   H904      1.0  0.26617  0.32005  0.75024  1.0000
  C   C519      1.0  0.27667  0.37502  0.94798  1.0000
  H   H905      1.0  0.05950  0.38951  0.82790  1.0000
  H   H906      1.0  0.06656  0.25589  0.71116  1.0000
  H   H907      1.0  0.38940  0.41219  0.96339  1.0000
  C   C520      1.0  0.41212  0.38871  0.69226  1.0000
  C   C521      1.0  0.38454  0.35999  0.71083  1.0000
  H   H908      1.0  0.42514  0.40110  0.64649  1.0000
  C   C522      1.0  0.37380  0.34906  0.76559  1.0000
  H   H909      1.0  0.24597  0.35959  0.94648  1.0000
  H   H910      1.0  0.28698  0.38870  0.95371  1.0000
  S   S134      1.0  0.99773  0.29279  0.85503  1.0000
  H   H911      1.0  0.01219  0.26972  0.69135  1.0000
  H   H912      1.0  0.03940  0.27737  0.54871  1.0000
  C   C523      1.0  0.04795  0.28208  0.52672  1.0000
  H   H913      1.0  0.04173  0.34370  0.95719  1.0000
  H   H914      1.0  0.43857  0.48251  0.70560  1.0000
  H   H915      1.0  0.37390  0.33743  0.66559  1.0000
  C   C524      1.0  0.28482  0.43483  0.95744  1.0000
  C   C525      1.0  0.37603  0.35041  0.65042  1.0000
  H   H916      1.0  0.36276  0.35364  0.65337  1.0000
  C   C526      1.0  0.44023  0.48090  0.68178  1.0000
  C   C527      1.0  0.25548  0.37422  0.94974  1.0000
  H   H917      1.0  0.24355  0.36742  0.89678  1.0000
  H   H918      1.0  0.31194  0.27906  0.66612  1.0000
  H   H919      1.0  0.04431  0.26826  0.68988  1.0000
  C   C528      1.0  0.00079  0.32664  0.68862  1.0000
  S   S135      1.0  0.39539  0.32190  0.52186  1.0000
  C   C529      1.0  0.44871  0.37718  0.74625  1.0000
  C   C530      1.0  0.43638  0.46009  0.67998  1.0000
  H   H920      1.0  0.25136  0.29546  0.76100  1.0000
  C   C531      1.0  0.33419  0.25559  0.80725  1.0000
  H   H921      1.0  0.26761  0.38398  0.89033  1.0000
  H   H922      1.0  0.25872  0.38348  0.83599  1.0000
  H   H923      1.0  0.35968  0.33954  0.75931  1.0000
  C   C532      1.0  0.05721  0.31629  0.95535  1.0000
  H   H924      1.0  0.06754  0.30907  0.95280  1.0000
  C   C533      1.0  0.06038  0.32778  0.89995  1.0000
  H   H925      1.0  0.35259  0.27672  0.89373  1.0000
  H   H926      1.0  0.04624  0.27789  0.65132  1.0000
  H   H927      1.0  0.40733  0.28735  0.88972  1.0000
  H   H928      1.0  0.39125  0.34270  0.61504  1.0000
  C   C534      1.0  0.44429  0.41584  0.67768  1.0000
  C   C535      1.0  0.38234  0.36613  0.74200  1.0000
  C   C536      1.0  0.26427  0.30539  0.74666  1.0000
  H   H929      1.0  0.27729  0.30270  0.75355  1.0000
  C   C537      1.0  0.25256  0.38264  0.89708  1.0000
  H   H930      1.0  0.24201  0.39436  0.82479  1.0000
  H   H931      1.0  0.06542  0.34283  0.90386  1.0000
  H   H932      1.0  0.01408  0.28360  0.65715  1.0000
  H   H933      1.0  0.02155  0.27515  0.73883  1.0000
  H   H934      1.0  0.09402  0.26328  0.66954  1.0000
  H   H935      1.0  0.01901  0.29596  0.53131  1.0000
  C   C538      1.0  0.42370  0.40559  0.66866  1.0000
  C   C539      1.0  0.99529  0.29568  0.91463  1.0000
  H   H936      1.0  0.37147  0.35359  0.78744  1.0000
  N   N30       1.0  0.25148  0.38825  0.92793  1.0000
  C   C540      1.0  0.24505  0.38524  0.84291  1.0000
  H   H937      1.0  0.22920  0.40013  0.92433  1.0000
  H   H938      1.0  0.15269  0.29858  0.95519  1.0000
  C   C541      1.0  0.28398  0.28223  0.67047  1.0000
  C   C542      1.0  0.04934  0.28147  0.67418  1.0000
  H   H939      1.0  0.34201  0.32798  0.51378  1.0000
  H   H940      1.0  0.99806  0.41688  0.82523  1.0000
  H   H941      1.0  0.05254  0.32606  0.87937  1.0000
  C   C543      1.0  0.37797  0.34589  0.61864  1.0000
  H   H942      1.0  0.36963  0.38499  0.63658  1.0000
  H   H943      1.0  0.18118  0.41983  0.53558  1.0000
  C   C544      1.0  0.23157  0.38802  0.93672  1.0000
  C   C545      1.0  0.24700  0.39437  0.87175  1.0000
  H   H944      1.0  0.28094  0.40907  0.91931  1.0000
  C   C546      1.0  0.26632  0.40798  0.92824  1.0000
  H   H945      1.0  0.02641  0.38569  0.84645  1.0000
  Fe  Fe68      1.0  0.98968  0.25705  0.59010  1.0000
  H   H946      1.0  0.29403  0.36076  0.96875  1.0000
  H   H947      1.0  0.24325  0.25828  0.52573  1.0000
  H   H948      1.0  0.25849  0.40877  0.86712  1.0000
  H   H949      1.0  0.03908  0.28011  0.97074  1.0000
  C   C547      1.0  0.04070  0.34067  0.98181  1.0000
  C   C548      1.0  0.37840  0.38583  0.68238  1.0000
  H   H950      1.0  0.41100  0.39529  0.71261  1.0000
  H   H951      1.0  0.25926  0.28767  0.71162  1.0000
  H   H952      1.0  0.04151  0.30041  0.92035  1.0000
  H   H953      1.0  0.23042  0.39019  0.96056  1.0000
  H   H954      1.0  0.21503  0.35743  0.94758  1.0000
  C   C549      1.0  0.26821  0.41558  0.95895  1.0000
  C   C550      1.0  0.26132  0.30245  0.71400  1.0000
  H   H955      1.0  0.24762  0.30433  0.70875  1.0000
  H   H956      1.0  0.29312  0.26458  0.87926  1.0000
  H   H957      1.0  0.26273  0.41820  0.91284  1.0000
  C   C551      1.0  0.08805  0.27812  0.98991  1.0000
  C   C552      1.0  0.03765  0.39409  0.80075  1.0000
  H   H958      1.0  0.00157  0.41728  0.62348  1.0000
  H   H959      1.0  0.42422  0.28085  0.53681  1.0000
  H   H960      1.0  0.99266  0.43279  0.66493  1.0000
  H   H961      1.0  0.02058  0.29070  0.78366  1.0000
  H   H962      1.0  0.36715  0.41320  0.95081  1.0000
  H   H963      1.0  0.37882  0.35796  0.60224  1.0000
  H   H964      1.0  0.18258  0.35761  0.94027  1.0000
  H   H965      1.0  0.07317  0.32379  0.89659  1.0000
  H   H966      1.0  0.99578  0.26314  0.74258  1.0000
  H   H967      1.0  0.01288  0.34407  0.98657  1.0000
  H   H968      1.0  0.38965  0.26785  0.85180  1.0000
  H   H969      1.0  0.36513  0.33331  0.61485  1.0000
  H   H970      1.0  0.27417  0.36091  0.99286  1.0000
  H   H971      1.0  0.01608  0.46326  0.66480  1.0000
  H   H972      1.0  0.46771  0.36382  0.73166  1.0000
  H   H973      1.0  0.43394  0.39449  0.76124  1.0000
  S   S136      1.0  0.12069  0.31170  0.97848  1.0000
  C   C553      1.0  0.25786  0.30274  0.61703  1.0000
  H   H974      1.0  0.38182  0.39663  0.69798  1.0000
  C   C554      1.0  0.42199  0.26762  0.52686  1.0000
  H   H975      1.0  0.00142  0.47654  0.65684  1.0000
  H   H976      1.0  0.02418  0.44836  0.62370  1.0000
  H   H977      1.0  0.27118  0.40598  0.97622  1.0000
  H   H978      1.0  0.00419  0.35451  0.49703  1.0000
  H   H979      1.0  0.29645  0.27082  0.63637  1.0000
  C   C555      1.0  0.44788  0.39401  0.75469  1.0000
  C   C556      1.0  0.38069  0.27123  0.86895  1.0000
  C   C557      1.0  0.27864  0.31692  0.69319  1.0000
  H   H980      1.0  0.29233  0.31752  0.70285  1.0000
  H   H981      1.0  0.27771  0.33081  0.69580  1.0000
  C   C558      1.0  0.05374  0.38650  0.80590  1.0000
  C   C559      1.0  0.02815  0.48605  0.62869  1.0000
  C   C560      1.0  0.21413  0.36957  0.93317  1.0000
  N   N31       1.0  0.99818  0.45470  0.62813  1.0000
  H   H982      1.0  0.01346  0.31508  0.65576  1.0000
  H   H983      1.0  0.04816  0.37102  0.80489  1.0000
  C   C561      1.0  0.99632  0.38877  0.79250  1.0000
  H   H984      1.0  0.01773  0.43274  0.55841  1.0000
  H   H985      1.0  0.19430  0.37413  0.96565  1.0000
  C   C562      1.0  0.15535  0.28631  0.96630  1.0000
  C   C563      1.0  0.46495  0.41020  0.75499  1.0000
  H   H986      1.0  0.30649  0.30948  0.66220  1.0000
  H   H987      1.0  0.25108  0.29143  0.66324  1.0000
  H   H988      1.0  0.04034  0.31325  0.51295  1.0000
  H   H989      1.0  0.30180  0.25886  0.84503  1.0000
  C   C564      1.0  0.00770  0.27649  0.74576  1.0000
  N   N32       1.0  0.27959  0.31419  0.66056  1.0000
  H   H990      1.0  0.25088  0.31429  0.65552  1.0000
  H   H991      1.0  0.30864  0.34849  0.67621  1.0000
  C   C565      1.0  0.29168  0.30270  0.65476  1.0000
  C   C566      1.0  0.25932  0.30546  0.65052  1.0000
  H   H992      1.0  0.42157  0.45120  0.69036  1.0000
  C   C567      1.0  0.19480  0.37114  0.94219  1.0000
  H   H993      1.0  0.32049  0.33978  0.64919  1.0000
  C   C568      1.0  0.03200  0.31904  0.99159  1.0000
  C   C569      1.0  0.28941  0.33344  0.64277  1.0000
  C   C570      1.0  0.30950  0.34613  0.65248  1.0000
  H   H994      1.0  0.27969  0.34150  0.64357  1.0000
  H   H995      1.0  0.29412  0.30243  0.63044  1.0000
  C   C571      1.0  0.01043  0.46975  0.64612  1.0000
  H   H996      1.0  0.22816  0.30173  0.61552  1.0000
  H   H997      1.0  0.42883  0.48413  0.66995  1.0000
  H   H998      1.0  0.37422  0.27799  0.81103  1.0000
  C   C572      1.0  0.00310  0.42723  0.60307  1.0000
  H   H999      1.0  0.39346  0.27917  0.52909  1.0000
  H   H1000     1.0  0.28461  0.28233  0.69490  1.0000
  C   C573      1.0  0.23667  0.29306  0.61020  1.0000
  H   H1001     1.0  0.99214  0.27316  0.52262  1.0000
  H   H1002     1.0  0.26577  0.29382  0.61053  1.0000
  H   H1003     1.0  0.26378  0.31653  0.60275  1.0000
  C   C574      1.0  0.31717  0.36553  0.63399  1.0000
  H   H1004     1.0  0.29196  0.33214  0.61887  1.0000
  H   H1005     1.0  0.33158  0.37419  0.64105  1.0000
  H   H1006     1.0  0.30713  0.37297  0.63748  1.0000
  C   C575      1.0  0.01047  0.41216  0.82647  1.0000
  H   H1007     1.0  0.25155  0.37570  0.97307  1.0000
  H   H1008     1.0  0.26888  0.27413  0.66537  1.0000
  H   H1009     1.0  0.04406  0.40956  0.80151  1.0000
  H   H1010     1.0  0.31884  0.36420  0.60992  1.0000
  N   N33       1.0  0.37380  0.28619  0.85534  1.0000
  H   H1011     1.0  0.06528  0.28882  0.67476  1.0000
  H   H1012     1.0  0.19270  0.38256  0.92747  1.0000
  C   C576      1.0  0.38831  0.26475  0.52201  1.0000
  C   C577      1.0  0.99293  0.37263  0.87658  1.0000
  H   H1013     1.0  0.39419  0.26610  0.63245  1.0000
  H   H1014     1.0  0.04449  0.49407  0.66749  1.0000
  H   H1015     1.0  0.03124  0.42708  0.58765  1.0000
  H   H1016     1.0  0.05544  0.34750  0.98919  1.0000
  H   H1017     1.0  0.00789  0.41230  0.87474  1.0000
  C   C578      1.0  0.01160  0.44785  0.61080  1.0000
  H   H1018     1.0  0.43172  0.26164  0.53840  1.0000
  H   H1019     1.0  0.99246  0.29548  0.73838  1.0000
  H   H1020     1.0  0.03315  0.39139  0.77802  1.0000
  H   H1021     1.0  0.40566  0.34937  0.80899  1.0000
  C   C579      1.0  0.39935  0.26309  0.58611  1.0000
  H   H1022     1.0  0.06075  0.29524  0.52816  1.0000
  C   C580      1.0  0.06770  0.26523  0.60248  1.0000
  H   H1023     1.0  0.21363  0.36643  0.90977  1.0000
  H   H1024     1.0  0.45104  0.30131  0.49995  1.0000
  H   H1025     1.0  0.99169  0.26232  0.98391  1.0000
  H   H1026     1.0  0.36811  0.25788  0.87657  1.0000
  H   H1027     1.0  0.30652  0.30599  0.50610  1.0000
  H   H1028     1.0  0.03396  0.31921  0.92868  1.0000
  C   C581      1.0  0.13752  0.27386  0.98708  1.0000
  H   H1029     1.0  0.09369  0.28779  0.69986  1.0000
  C   C582      1.0  0.07116  0.26409  0.98148  1.0000
  H   H1030     1.0  0.03399  0.36548  0.98652  1.0000
  H   H1031     1.0  0.99835  0.47461  0.59072  1.0000
  C   C583      1.0  0.36626  0.25493  0.53197  1.0000
  H   H1032     1.0  0.99383  0.37419  0.78737  1.0000
  H   H1033     1.0  0.01057  0.40877  0.57585  1.0000
  H   H1034     1.0  0.01785  0.31386  0.98155  1.0000
  C   C584      1.0  0.35481  0.26610  0.51806  1.0000
  H   H1035     1.0  0.03881  0.48069  0.61926  1.0000
  H   H1036     1.0  0.40546  0.25461  0.89312  1.0000
  C   C585      1.0  0.42979  0.27362  0.49360  1.0000
  H   H1037     1.0  0.27707  0.25722  0.85018  1.0000
  H   H1038     1.0  0.05326  0.27091  0.52150  1.0000
  H   H1039     1.0  0.09178  0.34598  0.50788  1.0000
  C   C586      1.0  0.02089  0.33704  0.50796  1.0000
  C   C587      1.0  0.39693  0.25884  0.90969  1.0000
  H   H1040     1.0  0.35170  0.31019  0.50698  1.0000
  H   H1041     1.0  0.99806  0.34162  0.53413  1.0000
  C   C588      1.0  0.34726  0.32144  0.49629  1.0000
  H   H1042     1.0  0.99701  0.31066  0.51922  1.0000
  H   H1043     1.0  0.29108  0.25720  0.67265  1.0000
  H   H1044     1.0  0.40547  0.26245  0.92935  1.0000
  C   C589      1.0  0.09251  0.27809  0.72037  1.0000
  H   H1045     1.0  0.05409  0.26529  0.61153  1.0000
  C   C590      1.0  0.21041  0.27566  0.50334  1.0000
  C   C591      1.0  0.28916  0.25504  0.86163  1.0000
  H   H1046     1.0  0.47132  0.48773  0.67500  1.0000
  C   C592      1.0  0.46062  0.49375  0.66691  1.0000
  H   H1047     1.0  0.35561  0.26627  0.49350  1.0000
  N   N34       1.0  0.40099  0.25431  0.53262  1.0000
  C   C593      1.0  0.39175  0.25457  0.61822  1.0000
  S   S137      1.0  0.02035  0.52336  0.15044  1.0000
  Fe  Fe69      1.0  0.08608  0.66504  0.04243  1.0000
  Fe  Fe70      1.0  0.07540  0.62558  0.07583  1.0000
  S   S138      1.0  0.05550  0.61182  0.04210  1.0000
  S   S139      1.0  0.07895  0.60850  0.11747  1.0000
  Fe  Fe71      1.0  0.04506  0.63541  0.04308  1.0000
  S   S140      1.0  0.01279  0.62749  0.04492  1.0000
  S   S141      1.0  0.09989  0.64350  0.04140  1.0000
  S   S142      1.0  0.06325  0.64808  0.07937  1.0000
  S   S143      1.0  0.01933  0.71831  0.42037  1.0000
  C   C594      1.0  0.00465  0.63364  0.07758  1.0000
  C   C595      1.0  0.00516  0.65731  0.10955  1.0000
  C   C596      1.0  0.01262  0.65224  0.08427  1.0000
  H   H1048     1.0  0.01099  0.67175  0.11435  1.0000
  H   H1049     1.0  0.02414  0.66279  0.06948  1.0000
  C   C597      1.0  0.03579  0.54745  0.14389  1.0000
  C   C598      1.0  0.03250  0.55885  0.12025  1.0000
  C   C599      1.0  0.04525  0.57773  0.11269  1.0000
  C   C600      1.0  0.06191  0.58521  0.12790  1.0000
  C   C601      1.0  0.06524  0.57382  0.15159  1.0000
  C   C602      1.0  0.05213  0.55505  0.15977  1.0000
  H   H1050     1.0  0.02005  0.55300  0.10760  1.0000
  H   H1051     1.0  0.04224  0.58639  0.09489  1.0000
  H   H1052     1.0  0.07812  0.57948  0.16348  1.0000
  H   H1053     1.0  0.05500  0.54628  0.17771  1.0000
  H   H1054     1.0  0.00984  0.67518  0.40436  1.0000
  S   S144      1.0  0.00174  0.70307  0.17221  1.0000
  C   C603      1.0  0.01950  0.67716  0.38391  1.0000
  H   H1055     1.0  0.02272  0.60525  0.14037  1.0000
  C   C604      1.0  0.02523  0.60884  0.16341  1.0000
  C   C605      1.0  0.04398  0.57201  0.22769  1.0000
  H   H1056     1.0  0.02261  0.71565  0.27515  1.0000
  H   H1057     1.0  0.02725  0.57434  0.17699  1.0000
  C   C606      1.0  0.05995  0.69825  0.08307  1.0000
  H   H1058     1.0  0.03784  0.60558  0.17061  1.0000
  S   S145      1.0  0.01779  0.72507  0.33370  1.0000
  H   H1059     1.0  0.04027  0.55670  0.22674  1.0000
  C   C607      1.0  0.00941  0.66266  0.36308  1.0000
  Fe  Fe72      1.0  0.00651  0.72038  0.12755  1.0000
  H   H1060     1.0  0.04356  0.63756  0.14559  1.0000
  H   H1061     1.0  0.05544  0.58026  0.20971  1.0000
  Fe  Fe73      1.0  0.01082  0.73991  0.44077  1.0000
  Fe  Fe74      1.0  0.00500  0.72504  0.38010  1.0000
  H   H1062     1.0  0.11364  0.73700  0.03697  1.0000
  H   H1063     1.0  0.03721  0.54363  0.03859  1.0000
  H   H1064     1.0  0.00480  0.65528  0.29915  1.0000
  H   H1065     1.0  0.06562  0.68782  0.07577  1.0000
  H   H1066     1.0  0.02345  0.69174  0.37259  1.0000
  H   H1067     1.0  0.01955  0.66512  0.34307  1.0000
  C   C608      1.0  0.04795  0.55832  0.03700  1.0000
  H   H1068     1.0  0.06449  0.71431  0.15986  1.0000
  H   H1069     1.0  0.03417  0.69165  0.19678  1.0000
  C   C609      1.0  0.06596  0.70083  0.15605  1.0000
  N   N35       1.0  0.08039  0.70389  0.12977  1.0000
  H   H1070     1.0  0.07155  0.69657  0.17684  1.0000
  H   H1071     1.0  0.04110  0.67134  0.19858  1.0000
  C   C610      1.0  0.07451  0.71212  0.10174  1.0000
  H   H1072     1.0  0.01889  0.67026  0.18287  1.0000
  H   H1073     1.0  0.03682  0.69399  0.14119  1.0000
  C   C611      1.0  0.04492  0.68669  0.15417  1.0000
  H   H1074     1.0  0.04569  0.69052  0.09557  1.0000
  C   C612      1.0  0.03418  0.67961  0.18509  1.0000
  C   C613      1.0  0.00258  0.72174  0.30409  1.0000
  H   H1075     1.0  0.06945  0.67483  0.12031  1.0000
  H   H1076     1.0  0.04413  0.67408  0.14370  1.0000
  C   C614      1.0  0.08324  0.68596  0.12460  1.0000
  H   H1077     1.0  0.08255  0.67380  0.17109  1.0000
  C   C615      1.0  0.01599  0.57021  0.19601  1.0000
  S   S146      1.0  0.01862  0.51429  0.24148  1.0000
  C   C616      1.0  0.03105  0.63018  0.16240  1.0000
  C   C617      1.0  0.05656  0.70876  0.05472  1.0000
  H   H1078     1.0  0.10060  0.65336  0.15999  1.0000
  H   H1079     1.0  0.03536  0.63476  0.18444  1.0000
  H   H1080     1.0  0.04997  0.71895  0.06019  1.0000
  H   H1081     1.0  0.07048  0.71647  0.04084  1.0000
  C   C618      1.0  0.00888  0.71747  0.27710  1.0000
  H   H1082     1.0  0.03893  0.53171  0.08653  1.0000
  C   C619      1.0  0.05155  0.52856  0.07839  1.0000
  H   H1083     1.0  0.08761  0.71991  0.08605  1.0000
  H   H1084     1.0  0.06839  0.72273  0.10701  1.0000
  C   C620      1.0  0.09187  0.67717  0.14993  1.0000
  H   H1085     1.0  0.10326  0.71385  0.15957  1.0000
  C   C621      1.0  0.09977  0.71792  0.13686  1.0000
  H   H1086     1.0  0.07896  0.64793  0.14045  1.0000
  C   C622      1.0  0.09355  0.65889  0.14222  1.0000
  H   H1087     1.0  0.09302  0.68858  0.10399  1.0000
  H   H1088     1.0  0.10253  0.66142  0.12083  1.0000
  H   H1089     1.0  0.10677  0.68690  0.15347  1.0000
  H   H1090     1.0  0.11172  0.71781  0.12132  1.0000
  C   C623      1.0  0.12260  0.73205  0.05109  1.0000
  S   S147      1.0  0.10024  0.69713  0.03690  1.0000
  C   C624      1.0  0.02600  0.57694  0.22454  1.0000
  C   C625      1.0  0.11935  0.71274  0.05509  1.0000
  H   H1091     1.0  0.03079  0.59242  0.22439  1.0000
  C   C626      1.0  0.06920  0.54728  0.06855  1.0000
  H   H1092     1.0  0.04653  0.69846  0.04153  1.0000
  H   H1093     1.0  0.04336  0.56435  0.05593  1.0000
  H   H1094     1.0  0.08255  0.54394  0.06729  1.0000
  H   H1095     1.0  0.04988  0.57552  0.24945  1.0000
  H   H1096     1.0  0.12884  0.69176  0.07655  1.0000
  C   C627      1.0  0.13110  0.70657  0.07339  1.0000
  H   H1097     1.0  0.15513  0.71489  0.10134  1.0000
  C   C628      1.0  0.14907  0.73905  0.08365  1.0000
  C   C629      1.0  0.14598  0.71971  0.08743  1.0000
  H   H1098     1.0  0.04688  0.51977  0.06015  1.0000
  C   C630      1.0  0.00666  0.59800  0.18481  1.0000
  H   H1099     1.0  0.06064  0.52491  0.12308  1.0000
  S   S148      1.0  0.06643  0.65391  0.00611  1.0000
  H   H1100     1.0  0.07048  0.55555  0.08787  1.0000
  H   H1101     1.0  0.03302  0.67545  0.39056  1.0000
  H   H1102     1.0  0.07914  0.73336  0.27479  1.0000
  C   C631      1.0  0.10176  0.73881  0.13523  1.0000
  H   H1103     1.0  0.07488  0.58492  0.06015  1.0000
  H   H1104     1.0  0.11455  0.61229  0.02928  1.0000
  Fe  Fe75      1.0  0.07859  0.63125  0.00769  1.0000
  H   H1105     1.0  0.11032  0.57860  0.03197  1.0000
  C   C632      1.0  0.08126  0.57932  0.04244  1.0000
  N   N36       1.0  0.06838  0.55902  0.04009  1.0000
  C   C633      1.0  0.01716  0.67465  0.99561  1.0000
  H   H1106     1.0  0.10313  0.57525  0.07127  1.0000
  C   C634      1.0  0.10260  0.58295  0.04945  1.0000
  H   H1107     1.0  0.10754  0.60898  0.06890  1.0000
  H   H1108     1.0  0.08222  0.58854  0.02142  1.0000
  C   C635      1.0  0.13720  0.74507  0.06549  1.0000
  H   H1109     1.0  0.08889  0.74031  0.14605  1.0000
  C   C636      1.0  0.11414  0.60389  0.05091  1.0000
  H   H1110     1.0  0.12932  0.60613  0.05580  1.0000
  H   H1111     1.0  0.09094  0.55306  0.01650  1.0000
  H   H1112     1.0  0.05510  0.74737  0.28521  1.0000
  H   H1113     1.0  0.01585  0.56987  0.24462  1.0000
  H   H1114     1.0  0.00915  0.60344  0.20678  1.0000
  H   H1115     1.0  0.06634  0.52231  0.02105  1.0000
  H   H1116     1.0  0.02093  0.57520  0.02676  1.0000
  C   C637      1.0  0.08232  0.74831  0.26606  1.0000
  H   H1117     1.0  0.05478  0.74134  0.24776  1.0000
  C   C638      1.0  0.07620  0.55305  0.01327  1.0000
  H   H1118     1.0  0.00671  0.65708  0.24385  1.0000
  H   H1119     1.0  0.99241  0.63163  0.33914  1.0000
  S   S149      1.0  0.03642  0.73729  0.10332  1.0000
  H   H1120     1.0  0.01886  0.63438  0.15597  1.0000
  C   C639      1.0  0.04458  0.56844  0.00755  1.0000
  C   C640      1.0  0.99877  0.66677  0.24438  1.0000
  H   H1121     1.0  0.05452  0.58341  0.00361  1.0000
  C   C641      1.0  0.02381  0.56795  0.00814  1.0000
  H   H1122     1.0  0.11790  0.74561  0.17452  1.0000
  H   H1123     1.0  0.10364  0.74510  0.11159  1.0000
  H   H1124     1.0  0.01937  0.66274  0.00876  1.0000
  S   S150      1.0  0.99836  0.74822  0.39916  1.0000
  H   H1125     1.0  0.99303  0.67944  0.34896  1.0000
  H   H1126     1.0  0.09084  0.75154  0.24410  1.0000
  C   C642      1.0  0.06323  0.75130  0.26290  1.0000
  C   C643      1.0  0.11955  0.75049  0.15030  1.0000
  C   C644      1.0  0.99371  0.66174  0.30098  1.0000
  H   H1127     1.0  0.00667  0.64849  0.37510  1.0000
  H   H1128     1.0  0.00270  0.71257  0.23185  1.0000
  H   H1129     1.0  0.00601  0.74465  0.19710  1.0000
  H   H1130     1.0  0.05920  0.74759  0.45382  1.0000
  Fe  Fe76      1.0  0.00925  0.50680  0.19626  1.0000
  H   H1131     1.0  0.00487  0.57469  0.14173  1.0000
  H   H1132     1.0  0.00232  0.67708  0.30156  1.0000
  H   H1133     1.0  0.02234  0.68725  0.00770  1.0000
  C   C645      1.0  0.99761  0.71571  0.25253  1.0000
  N   N37       1.0  0.99975  0.57673  0.18836  1.0000
  H   H1134     1.0  0.01309  0.55315  0.01068  1.0000
  H   H1135     1.0  0.06799  0.51218  0.09647  1.0000
  H   H1136     1.0  0.00933  0.68141  0.24506  1.0000
  H   H1137     1.0  0.01050  0.55450  0.19960  1.0000
  C   C646      1.0  0.05618  0.51672  0.10389  1.0000
  H   H1138     1.0  0.03154  0.75058  0.23446  1.0000
  C   C647      1.0  0.99016  0.64366  0.12855  1.0000
  H   H1139     1.0  0.99293  0.54133  0.16388  1.0000
  C   C648      1.0  0.99255  0.56996  0.15926  1.0000
  H   H1140     1.0  0.13292  0.74955  0.14011  1.0000
  H   H1141     1.0  0.99126  0.66643  0.22356  1.0000
  H   H1142     1.0  0.04845  0.53041  0.00523  1.0000
  C   C649      1.0  0.06418  0.53316  0.00511  1.0000
  H   H1143     1.0  0.99510  0.60258  0.17610  1.0000
  H   H1144     1.0  0.04614  0.75379  0.15910  1.0000
  C   C650      1.0  0.48896  0.55109  0.34418  1.0000
  H   H1145     1.0  0.48672  0.54675  0.32147  1.0000
  H   H1146     1.0  0.13000  0.69580  0.99293  1.0000
  H   H1147     1.0  0.07831  0.56362  0.99339  1.0000
  C   C651      1.0  0.98967  0.62000  0.09661  1.0000
  C   C652      1.0  0.98996  0.66410  0.35452  1.0000
  H   H1148     1.0  0.99046  0.67324  0.03652  1.0000
  Fe  Fe77      1.0  0.98926  0.69786  0.43691  1.0000
  H   H1149     1.0  0.48889  0.57843  0.32946  1.0000
  H   H1150     1.0  0.48629  0.57868  0.38207  1.0000
  H   H1151     1.0  0.47461  0.54579  0.35728  1.0000
  S   S151      1.0  0.48569  0.52791  0.23006  1.0000
  C   C653      1.0  0.19523  0.74209  0.28226  1.0000
  H   H1152     1.0  0.18845  0.73880  0.30549  1.0000
  H   H1153     1.0  0.18558  0.73180  0.26856  1.0000
  H   H1154     1.0  0.20951  0.74053  0.28242  1.0000
  Fe  Fe78      1.0  0.07127  0.62611  0.75267  1.0000
  S   S152      1.0  0.05941  0.62995  0.79691  1.0000
  S   S153      1.0  0.06585  0.59911  0.73151  1.0000
  Fe  Fe79      1.0  0.09016  0.66914  0.73209  1.0000
  S   S154      1.0  0.07966  0.67639  0.77471  1.0000
  S   S155      1.0  0.10765  0.68807  0.69040  1.0000
  Fe  Fe80      1.0  0.08836  0.65372  0.79782  1.0000
  S   S156      1.0  0.10667  0.66065  0.83721  1.0000
  Fe  Fe81      1.0  0.05162  0.65217  0.77067  1.0000
  S   S157      1.0  0.02195  0.65268  0.78087  1.0000
  S   S158      1.0  0.10108  0.64818  0.75541  1.0000
  S   S159      1.0  0.06123  0.64662  0.72635  1.0000
  C   C654      1.0  0.13523  0.69369  0.97076  1.0000
  H   H1155     1.0  0.47552  0.54703  0.69725  1.0000
  H   H1156     1.0  0.06624  0.68423  0.95830  1.0000
  C   C655      1.0  0.11332  0.71266  0.68174  1.0000
  C   C656      1.0  0.12251  0.72166  0.65354  1.0000
  C   C657      1.0  0.12727  0.74115  0.64572  1.0000
  C   C658      1.0  0.10357  0.69046  0.94837  1.0000
  C   C659      1.0  0.11374  0.74287  0.69421  1.0000
  C   C660      1.0  0.10881  0.72334  0.70198  1.0000
  H   H1157     1.0  0.12601  0.71352  0.63770  1.0000
  H   H1158     1.0  0.99458  0.68168  0.97654  1.0000
  H   H1159     1.0  0.99505  0.55635  0.78400  1.0000
  H   H1160     1.0  0.10169  0.71658  0.72371  1.0000
  C   C661      1.0  0.09912  0.64859  0.87355  1.0000
  C   C662      1.0  0.08124  0.63345  0.88031  1.0000
  C   C663      1.0  0.07608  0.62401  0.90954  1.0000
  C   C664      1.0  0.08854  0.62994  0.93224  1.0000
  C   C665      1.0  0.10631  0.64515  0.92546  1.0000
  C   C666      1.0  0.11160  0.65437  0.89623  1.0000
  H   H1161     1.0  0.07155  0.62884  0.86298  1.0000
  H   H1162     1.0  0.06245  0.61204  0.91453  1.0000
  H   H1163     1.0  0.11624  0.64946  0.94260  1.0000
  H   H1164     1.0  0.12552  0.66594  0.89111  1.0000
  H   H1165     1.0  0.08599  0.71244  0.56478  1.0000
  H   H1166     1.0  0.10400  0.53333  0.79287  1.0000
  C   C667      1.0  0.12138  0.71175  0.84916  1.0000
  C   C668      1.0  0.00674  0.64447  0.75249  1.0000
  C   C669      1.0  0.01382  0.64942  0.72251  1.0000
  C   C670      1.0  0.11656  0.72867  0.56061  1.0000
  C   C671      1.0  0.09793  0.69806  0.89553  1.0000
  C   C672      1.0  0.45454  0.52354  0.65759  1.0000
  H   H1167     1.0  0.02875  0.65886  0.71656  1.0000
  H   H1168     1.0  0.00714  0.64590  0.67710  1.0000
  C   C673      1.0  0.04654  0.53757  0.77399  1.0000
  C   C674      1.0  0.04707  0.54201  0.74319  1.0000
  C   C675      1.0  0.05280  0.56095  0.73067  1.0000
  C   C676      1.0  0.05760  0.57557  0.74882  1.0000
  C   C677      1.0  0.05646  0.57113  0.77972  1.0000
  C   C678      1.0  0.05126  0.55220  0.79220  1.0000
  H   H1169     1.0  0.04358  0.53089  0.72896  1.0000
  H   H1170     1.0  0.05365  0.56429  0.70675  1.0000
  H   H1171     1.0  0.05993  0.58227  0.79390  1.0000
  H   H1172     1.0  0.05085  0.54885  0.81606  1.0000
  H   H1173     1.0  0.99800  0.67890  0.82108  1.0000
  C   C679      1.0  0.05903  0.69244  0.66638  1.0000
  H   H1174     1.0  0.05847  0.72658  0.64600  1.0000
  H   H1175     1.0  0.12012  0.71643  0.55552  1.0000
  C   C680      1.0  0.47985  0.53685  0.71135  1.0000
  C   C681      1.0  0.01302  0.58426  0.71286  1.0000
  H   H1176     1.0  0.06870  0.69557  0.62011  1.0000
  H   H1177     1.0  0.10898  0.70664  0.83508  1.0000
  N   N38       1.0  0.07125  0.73368  0.60023  1.0000
  H   H1178     1.0  0.03908  0.63996  0.92558  1.0000
  H   H1179     1.0  0.99912  0.54727  0.71940  1.0000
  H   H1180     1.0  0.07201  0.65738  0.93889  1.0000
  C   C682      1.0  0.05572  0.72262  0.58126  1.0000
  C   C683      1.0  0.08990  0.72065  0.96634  1.0000
  H   H1181     1.0  0.04927  0.69648  0.68104  1.0000
  H   H1182     1.0  0.13233  0.69978  0.92453  1.0000
  H   H1183     1.0  0.10942  0.72749  0.87486  1.0000
  H   H1184     1.0  0.13183  0.67839  0.97011  1.0000
  H   H1185     1.0  0.05332  0.67680  0.66772  1.0000
  C   C684      1.0  0.06479  0.66540  0.92568  1.0000
  H   H1186     1.0  0.02290  0.58597  0.73113  1.0000
  H   H1187     1.0  0.07505  0.71110  0.97541  1.0000
  H   H1188     1.0  0.13440  0.74791  0.62406  1.0000
  H   H1189     1.0  0.07369  0.69724  0.67472  1.0000
  H   H1190     1.0  0.12789  0.70089  0.85246  1.0000
  H   H1191     1.0  0.10941  0.72834  0.92722  1.0000
  C   C685      1.0  0.99802  0.62581  0.58983  1.0000
  H   H1192     1.0  0.45535  0.51010  0.71660  1.0000
  H   H1193     1.0  0.99714  0.58502  0.76534  1.0000
  H   H1194     1.0  0.00786  0.64546  0.62274  1.0000
  H   H1195     1.0  0.05142  0.51211  0.63603  1.0000
  C   C686      1.0  0.43713  0.52320  0.67820  1.0000
  H   H1196     1.0  0.48621  0.50818  0.61611  1.0000
  H   H1197     1.0  0.08083  0.74432  0.95554  1.0000
  C   C687      1.0  0.03413  0.61328  0.67710  1.0000
  H   H1198     1.0  0.04052  0.72561  0.50938  1.0000
  C   C688      1.0  0.09674  0.72169  0.57839  1.0000
  C   C689      1.0  0.04008  0.71878  0.53232  1.0000
  C   C690      1.0  0.07085  0.68583  0.93421  1.0000
  H   H1199     1.0  0.02557  0.71591  0.54368  1.0000
  H   H1200     1.0  0.04107  0.71967  0.59244  1.0000
  H   H1201     1.0  0.06852  0.66532  0.90173  1.0000
  N   N39       1.0  0.09217  0.69835  0.92792  1.0000
  H   H1202     1.0  0.03629  0.62811  0.66913  1.0000
  H   H1203     1.0  0.06172  0.69246  0.92230  1.0000
  C   C691      1.0  0.12583  0.70145  0.94603  1.0000
  H   H1204     1.0  0.09777  0.71333  0.59921  1.0000
  H   H1205     1.0  0.03835  0.65325  0.95585  1.0000
  H   H1206     1.0  0.99465  0.70095  0.81419  1.0000
  H   H1207     1.0  0.06855  0.54078  0.95690  1.0000
  C   C692      1.0  0.05619  0.73186  0.54904  1.0000
  H   H1208     1.0  0.04729  0.61339  0.68786  1.0000
  H   H1209     1.0  0.48312  0.55294  0.74898  1.0000
  H   H1210     1.0  0.12813  0.73756  0.57358  1.0000
  C   C693      1.0  0.01611  0.60460  0.69912  1.0000
  C   C694      1.0  0.00152  0.64222  0.70018  1.0000
  H   H1211     1.0  0.10153  0.67594  0.94409  1.0000
  C   C695      1.0  0.46970  0.51639  0.70364  1.0000
  H   H1212     1.0  0.46299  0.53873  0.64948  1.0000
  C   C696      1.0  0.04287  0.65445  0.93181  1.0000
  N   N40       1.0  0.11797  0.59041  0.75963  1.0000
  C   C697      1.0  0.10727  0.56982  0.77134  1.0000
  C   C698      1.0  0.11084  0.60266  0.77732  1.0000
  C   C699      1.0  0.11328  0.59304  0.72766  1.0000
  C   C700      1.0  0.13974  0.59634  0.75961  1.0000
  C   C701      1.0  0.14782  0.59369  0.78997  1.0000
  C   C702      1.0  0.11249  0.55538  0.75483  1.0000
  C   C703      1.0  0.11990  0.61375  0.71261  1.0000
  C   C704      1.0  0.10505  0.59615  0.81116  1.0000
  C   C705      1.0  0.10171  0.61154  0.82682  1.0000
  C   C706      1.0  0.16949  0.59729  0.78601  1.0000
  C   C707      1.0  0.10084  0.53520  0.76924  1.0000
  C   C708      1.0  0.11386  0.61442  0.68075  1.0000
  H   H1213     1.0  0.09133  0.56611  0.77062  1.0000
  H   H1214     1.0  0.10937  0.56688  0.79514  1.0000
  H   H1215     1.0  0.12177  0.61744  0.77459  1.0000
  H   H1216     1.0  0.09744  0.60364  0.76840  1.0000
  H   H1217     1.0  0.09731  0.58621  0.72598  1.0000
  H   H1218     1.0  0.12004  0.58589  0.71318  1.0000
  H   H1219     1.0  0.14514  0.58898  0.74353  1.0000
  H   H1220     1.0  0.14712  0.61160  0.75134  1.0000
  H   H1221     1.0  0.14030  0.57921  0.80162  1.0000
  H   H1222     1.0  0.14637  0.60410  0.80424  1.0000
  H   H1223     1.0  0.10895  0.55608  0.73128  1.0000
  H   H1224     1.0  0.12816  0.55790  0.75554  1.0000
  H   H1225     1.0  0.13593  0.62106  0.71151  1.0000
  H   H1226     1.0  0.11320  0.62193  0.72477  1.0000
  H   H1227     1.0  0.09125  0.58352  0.81440  1.0000
  H   H1228     1.0  0.11613  0.59233  0.82265  1.0000
  H   H1229     1.0  0.09010  0.61537  0.81678  1.0000
  H   H1230     1.0  0.09713  0.60640  0.85077  1.0000
  H   H1231     1.0  0.11528  0.62438  0.82519  1.0000
  H   H1232     1.0  0.17505  0.59580  0.80816  1.0000
  H   H1233     1.0  0.17192  0.58691  0.77256  1.0000
  H   H1234     1.0  0.17787  0.61181  0.77488  1.0000
  H   H1235     1.0  0.41665  0.51968  0.64391  1.0000
  H   H1236     1.0  0.15127  0.70127  0.96785  1.0000
  C   C709      1.0  0.06871  0.75206  0.60326  1.0000
  H   H1237     1.0  0.09778  0.60771  0.68064  1.0000
  H   H1238     1.0  0.11854  0.62935  0.67067  1.0000
  H   H1239     1.0  0.12075  0.60707  0.66692  1.0000
  H   H1240     1.0  0.99869  0.57597  0.65995  1.0000
  C   C710      1.0  0.11466  0.71576  0.87920  1.0000
  C   C711      1.0  0.09437  0.71806  0.93362  1.0000
  H   H1241     1.0  0.10645  0.75107  0.96128  1.0000
  H   H1242     1.0  0.08538  0.69628  0.88176  1.0000
  H   H1243     1.0  0.04202  0.70526  0.53070  1.0000
  C   C712      1.0  0.06001  0.70106  0.63416  1.0000
  H   H1244     1.0  0.11640  0.73709  0.53924  1.0000
  H   H1245     1.0  0.10257  0.74615  0.60070  1.0000
  H   H1246     1.0  0.03472  0.66149  0.91844  1.0000
  H   H1247     1.0  0.10476  0.52508  0.75709  1.0000
  H   H1248     1.0  0.01792  0.61368  0.71731  1.0000
  H   H1249     1.0  0.12750  0.72074  0.89224  1.0000
  H   H1250     1.0  0.09786  0.68889  0.97199  1.0000
  H   H1251     1.0  0.10171  0.68553  0.89312  1.0000
  C   C713      1.0  0.12302  0.75188  0.66609  1.0000
  H   H1252     1.0  0.45937  0.53462  0.74878  1.0000
  H   H1253     1.0  0.10059  0.71799  0.98066  1.0000
  H   H1254     1.0  0.08666  0.53294  0.97276  1.0000
  C   C714      1.0  0.06862  0.72301  0.63119  1.0000
  H   H1255     1.0  0.08267  0.72752  0.64181  1.0000
  S   S160      1.0  0.04127  0.51411  0.79015  1.0000
  H   H1256     1.0  0.01721  0.55996  0.76262  1.0000
  H   H1257     1.0  0.42872  0.50906  0.69026  1.0000
  H   H1258     1.0  0.00366  0.60519  0.68707  1.0000
  H   H1259     1.0  0.00591  0.63669  0.57090  1.0000
  H   H1260     1.0  0.99935  0.61234  0.58550  1.0000
  H   H1261     1.0  0.04485  0.69581  0.62752  1.0000
  H   H1262     1.0  0.00438  0.52484  0.75863  1.0000
  C   C715      1.0  0.00812  0.63165  0.61801  1.0000
  H   H1263     1.0  0.13257  0.72485  0.83718  1.0000
  H   H1264     1.0  0.01881  0.57726  0.69665  1.0000
  H   H1265     1.0  0.02353  0.63305  0.61502  1.0000
  H   H1266     1.0  0.12963  0.71665  0.94788  1.0000
  C   C716      1.0  0.00145  0.55137  0.76569  1.0000
  H   H1267     1.0  0.06255  0.51611  0.96908  1.0000
  H   H1268     1.0  0.03238  0.60525  0.65763  1.0000
  C   C717      1.0  0.42312  0.52954  0.66043  1.0000
  H   H1269     1.0  0.08498  0.53179  0.76827  1.0000
  H   H1270     1.0  0.05630  0.70861  0.57908  1.0000
  H   H1271     1.0  0.41113  0.52965  0.67579  1.0000
  H   H1272     1.0  0.00668  0.53055  0.79636  1.0000
  C   C718      1.0  0.09147  0.73847  0.58593  1.0000
  S   S161      1.0  0.08284  0.61695  0.96805  1.0000
  H   H1273     1.0  0.08497  0.72303  0.91925  1.0000
  H   H1274     1.0  0.07030  0.73475  0.53639  1.0000
  H   H1275     1.0  0.47979  0.52857  0.75889  1.0000
  H   H1276     1.0  0.16351  0.74883  0.59477  1.0000
  N   N41       1.0  0.46773  0.51445  0.67096  1.0000
  H   H1277     1.0  0.02904  0.50700  0.65843  1.0000
  H   H1278     1.0  0.18708  0.74797  0.59979  1.0000
  C   C719      1.0  0.99871  0.53101  0.77623  1.0000
  H   H1279     1.0  0.99758  0.67892  0.52240  1.0000
  H   H1280     1.0  0.09420  0.74857  0.56529  1.0000
  H   H1281     1.0  0.44865  0.51699  0.63737  1.0000
  H   H1282     1.0  0.02185  0.57539  0.98694  1.0000
  H   H1283     1.0  0.99090  0.69014  0.55175  1.0000
  H   H1284     1.0  0.00078  0.62084  0.63731  1.0000
  H   H1285     1.0  0.43079  0.54403  0.64867  1.0000
  C   C720      1.0  0.07097  0.53067  0.97405  1.0000
  H   H1286     1.0  0.05375  0.74522  0.54898  1.0000
  H   H1287     1.0  0.05327  0.74926  0.61053  1.0000
  N   N42       1.0  0.99241  0.57198  0.72447  1.0000
  H   H1288     1.0  0.44238  0.53298  0.69522  1.0000
  H   H1289     1.0  0.11037  0.75105  0.71013  1.0000
  C   C721      1.0  0.99183  0.55267  0.73617  1.0000
  H   H1290     1.0  0.02601  0.67800  0.97396  1.0000
  C   C722      1.0  0.09152  0.74084  0.96892  1.0000
  H   H1291     1.0  0.47810  0.50809  0.71307  1.0000
  H   H1292     1.0  0.04684  0.56146  0.98821  1.0000
  H   H1293     1.0  0.99130  0.65738  0.97690  1.0000
  H   H1294     1.0  0.99505  0.66100  0.57211  1.0000
  C   C723      1.0  0.48787  0.52387  0.65497  1.0000
  C   C724      1.0  0.47523  0.53829  0.74401  1.0000
  H   H1295     1.0  0.47905  0.52815  0.60960  1.0000
  C   C725      1.0  0.99572  0.66947  0.99025  1.0000
  H   H1296     1.0  0.18654  0.75113  0.73651  1.0000
  H   H1297     1.0  0.08849  0.74229  0.99260  1.0000
  Fe  Fe82      1.0  0.14434  0.80673  0.11956  1.0000
  S   S162      1.0  0.15183  0.79813  0.07611  1.0000
  S   S163      1.0  0.11365  0.80006  0.14101  1.0000
  Fe  Fe83      1.0  0.18721  0.82088  0.13643  1.0000
  S   S164      1.0  0.19719  0.81192  0.09517  1.0000
  S   S165      1.0  0.20494  0.83563  0.17364  1.0000
  Fe  Fe84      1.0  0.17854  0.82531  0.07138  1.0000
  H   H1298     1.0  0.47894  0.89365  0.24305  1.0000
  Fe  Fe85      1.0  0.16975  0.78556  0.10289  1.0000
  H   H1299     1.0  0.17298  0.77533  0.23020  1.0000
  S   S166      1.0  0.16944  0.83523  0.11254  1.0000
  S   S167      1.0  0.16152  0.79330  0.14657  1.0000
  C   C726      1.0  0.47123  0.95744  0.16601  1.0000
  C   C727      1.0  0.24878  0.85984  0.04388  1.0000
  C   C728      1.0  0.24078  0.94256  0.03143  1.0000
  H   H1300     1.0  0.20116  0.79697  0.26055  1.0000
  H   H1301     1.0  0.25382  0.89748  0.04692  1.0000
  H   H1302     1.0  0.37075  0.94965  0.30961  1.0000
  S   S168      1.0  0.45900  0.94852  0.30299  1.0000
  Fe  Fe86      1.0  0.31002  0.87916  0.23857  1.0000
  S   S169      1.0  0.29770  0.89444  0.26822  1.0000
  S   S170      1.0  0.29323  0.85858  0.20647  1.0000
  Fe  Fe87      1.0  0.35270  0.90371  0.25041  1.0000
  S   S171      1.0  0.34304  0.92067  0.28032  1.0000
  S   S172      1.0  0.38429  0.91348  0.23150  1.0000
  Fe  Fe88      1.0  0.32009  0.89289  0.29995  1.0000
  S   S173      1.0  0.30940  0.88707  0.34936  1.0000
  Fe  Fe89      1.0  0.32174  0.92065  0.24664  1.0000
  S   S174      1.0  0.31835  0.94680  0.22586  1.0000
  S   S175      1.0  0.33088  0.87540  0.27172  1.0000
  S   S176      1.0  0.33287  0.90578  0.21529  1.0000
  H   H1303     1.0  0.29350  0.90471  0.99503  1.0000
  C   C729      1.0  0.32274  0.89013  0.38152  1.0000
  C   C730      1.0  0.31260  0.88758  0.40952  1.0000
  C   C731      1.0  0.32234  0.88944  0.43584  1.0000
  C   C732      1.0  0.34237  0.89359  0.43454  1.0000
  C   C733      1.0  0.35257  0.89619  0.40653  1.0000
  C   C734      1.0  0.34286  0.89466  0.38011  1.0000
  H   H1304     1.0  0.29703  0.88395  0.41088  1.0000
  H   H1305     1.0  0.31425  0.88722  0.45718  1.0000
  H   H1306     1.0  0.36804  0.89927  0.40528  1.0000
  H   H1307     1.0  0.35083  0.89652  0.35876  1.0000
  H   H1308     1.0  0.41141  0.87228  0.21840  1.0000
  H   H1309     1.0  0.07379  0.75825  0.07220  1.0000
  C   C735      1.0  0.33852  0.98311  0.23586  1.0000
  C   C736      1.0  0.32889  0.96440  0.24860  1.0000
  C   C737      1.0  0.32879  0.95963  0.27925  1.0000
  C   C738      1.0  0.33874  0.97352  0.29702  1.0000
  C   C739      1.0  0.00891  0.75998  0.19345  1.0000
  H   H1310     1.0  0.33851  0.98687  0.21226  1.0000
  H   H1311     1.0  0.32103  0.94522  0.28926  1.0000
  H   H1312     1.0  0.33864  0.96978  0.32064  1.0000
  C   C740      1.0  0.43810  0.93984  0.28291  1.0000
  C   C741      1.0  0.43913  0.94357  0.25192  1.0000
  C   C742      1.0  0.42249  0.93558  0.23649  1.0000
  C   C743      1.0  0.40445  0.92440  0.25199  1.0000
  C   C744      1.0  0.40317  0.92147  0.28313  1.0000
  C   C745      1.0  0.41999  0.92900  0.29848  1.0000
  H   H1313     1.0  0.45274  0.95269  0.23992  1.0000
  H   H1314     1.0  0.42358  0.93810  0.21244  1.0000
  H   H1315     1.0  0.38937  0.91287  0.29531  1.0000
  H   H1316     1.0  0.41899  0.92618  0.32251  1.0000
  C   C746      1.0  0.19589  0.86539  0.01155  1.0000
  H   H1317     1.0  0.27676  0.88222  0.04201  1.0000
  H   H1318     1.0  0.30895  0.91220  0.03608  1.0000
  H   H1319     1.0  0.23617  0.89292  0.47081  1.0000
  H   H1320     1.0  0.41124  0.89496  0.20366  1.0000
  H   H1321     1.0  0.42846  0.99594  0.18038  1.0000
  H   H1322     1.0  0.23634  0.85448  0.02994  1.0000
  H   H1323     1.0  0.40573  0.99580  0.22928  1.0000
  C   C747      1.0  0.18821  0.87647  0.02652  1.0000
  H   H1324     1.0  0.42334  0.96852  0.37925  1.0000
  H   H1325     1.0  0.18036  0.87098  0.04819  1.0000
  H   H1326     1.0  0.39180  0.95651  0.33058  1.0000
  C   C748      1.0  0.22985  0.84266  0.18116  1.0000
  C   C749      1.0  0.23579  0.85140  0.20691  1.0000
  C   C750      1.0  0.25514  0.85659  0.21470  1.0000
  C   C751      1.0  0.26888  0.85308  0.19682  1.0000
  C   C752      1.0  0.26297  0.84432  0.17102  1.0000
  C   C753      1.0  0.24361  0.83923  0.16310  1.0000
  H   H1327     1.0  0.22528  0.85404  0.22115  1.0000
  H   H1328     1.0  0.25938  0.86311  0.23479  1.0000
  H   H1329     1.0  0.27343  0.84138  0.15714  1.0000
  H   H1330     1.0  0.23929  0.83245  0.14327  1.0000
  C   C754      1.0  0.09251  0.78213  0.13054  1.0000
  C   C755      1.0  0.09163  0.77622  0.10221  1.0000
  C   C756      1.0  0.07433  0.76253  0.09432  1.0000
  H   H1331     1.0  0.09116  0.75747  0.28191  1.0000
  H   H1332     1.0  0.32356  0.94609  0.01666  1.0000
  H   H1333     1.0  0.07668  0.77820  0.17299  1.0000
  H   H1334     1.0  0.10418  0.78241  0.08619  1.0000
  C   C757      1.0  0.29908  0.92002  0.03308  1.0000
  C   C758      1.0  0.06447  0.75714  0.47035  1.0000
  C   C759      1.0  0.43851  0.94993  0.37916  1.0000
  H   H1335     1.0  0.41763  0.98845  0.34283  1.0000
  H   H1336     1.0  0.36875  0.96255  0.25521  1.0000
  H   H1337     1.0  0.24116  0.88791  0.01652  1.0000
  H   H1338     1.0  0.31263  0.99347  0.00774  1.0000
  H   H1339     1.0  0.38340  0.98222  0.27346  1.0000
  H   H1340     1.0  0.39566  0.97689  0.43441  1.0000
  H   H1341     1.0  0.42540  0.96042  0.34385  1.0000
  C   C760      1.0  0.02721  0.78462  0.28778  1.0000
  S   S177      1.0  0.35508  0.89547  0.46729  1.0000
  H   H1342     1.0  0.48181  0.93216  0.26012  1.0000
  H   H1343     1.0  0.20708  0.77186  0.28495  1.0000
  H   H1344     1.0  0.46829  0.93597  0.21905  1.0000
  H   H1345     1.0  0.28805  0.91460  0.05240  1.0000
  H   H1346     1.0  0.38772  0.92090  0.14215  1.0000
  C   C761      1.0  0.31134  0.94091  0.03436  1.0000
  H   H1347     1.0  0.46629  0.96324  0.18486  1.0000
  C   C762      1.0  0.22487  0.78070  0.17256  1.0000
  H   H1348     1.0  0.38813  0.93957  0.11435  1.0000
  H   H1349     1.0  0.16704  0.79333  0.27037  1.0000
  C   C763      1.0  0.47581  0.91651  0.26352  1.0000
  H   H1350     1.0  0.48060  0.91712  0.31039  1.0000
  H   H1351     1.0  0.30254  0.94976  0.03140  1.0000
  H   H1352     1.0  0.40715  0.87662  0.17992  1.0000
  H   H1353     1.0  0.33219  0.96989  0.15524  1.0000
  H   H1354     1.0  0.23715  0.92304  0.45343  1.0000
  C   C764      1.0  0.36891  0.95104  0.43982  1.0000
  H   H1355     1.0  0.38210  0.00016  0.17101  1.0000
  H   H1356     1.0  0.37619  0.94295  0.16490  1.0000
  H   H1357     1.0  0.00772  0.78578  0.32395  1.0000
  H   H1358     1.0  0.44896  0.93010  0.17675  1.0000
  H   H1359     1.0  0.41057  0.93970  0.12895  1.0000
  C   C765      1.0  0.17999  0.79096  0.22759  1.0000
  H   H1360     1.0  0.22578  0.94219  0.02941  1.0000
  N   N43       1.0  0.27017  0.90951  0.15785  1.0000
  C   C766      1.0  0.25797  0.89396  0.14073  1.0000
  C   C767      1.0  0.28972  0.90797  0.16112  1.0000
  C   C768      1.0  0.26006  0.90612  0.18875  1.0000
  C   C769      1.0  0.27264  0.92905  0.14381  1.0000
  C   C770      1.0  0.27284  0.93222  0.10933  1.0000
  C   C771      1.0  0.23608  0.89085  0.14090  1.0000
  C   C772      1.0  0.27164  0.91865  0.21171  1.0000
  C   C773      1.0  0.30218  0.90966  0.13196  1.0000
  C   C774      1.0  0.32068  0.90620  0.13848  1.0000
  C   C775      1.0  0.27953  0.95321  0.09791  1.0000
  C   C776      1.0  0.22621  0.87884  0.11681  1.0000
  C   C777      1.0  0.25890  0.91642  0.24025  1.0000
  H   H1361     1.0  0.25861  0.88024  0.15001  1.0000
  H   H1362     1.0  0.26388  0.89612  0.11724  1.0000
  H   H1363     1.0  0.29911  0.91924  0.17371  1.0000
  H   H1364     1.0  0.28774  0.89431  0.17459  1.0000
  H   H1365     1.0  0.25617  0.89123  0.19846  1.0000
  H   H1366     1.0  0.24605  0.90822  0.18783  1.0000
  H   H1367     1.0  0.26076  0.93319  0.15254  1.0000
  H   H1368     1.0  0.28622  0.93974  0.15061  1.0000
  H   H1369     1.0  0.25800  0.92506  0.10226  1.0000
  H   H1370     1.0  0.28252  0.92659  0.09797  1.0000
  H   H1371     1.0  0.22840  0.88323  0.16273  1.0000
  H   H1372     1.0  0.23404  0.90447  0.13747  1.0000
  H   H1373     1.0  0.27770  0.93379  0.20248  1.0000
  H   H1374     1.0  0.28373  0.91431  0.21823  1.0000
  H   H1375     1.0  0.29420  0.89925  0.11714  1.0000
  H   H1376     1.0  0.30695  0.92416  0.12013  1.0000
  H   H1377     1.0  0.32903  0.90684  0.11724  1.0000
  H   H1378     1.0  0.33006  0.91720  0.15139  1.0000
  H   H1379     1.0  0.31705  0.89203  0.15125  1.0000
  H   H1380     1.0  0.27910  0.95509  0.07334  1.0000
  H   H1381     1.0  0.26984  0.95946  0.10805  1.0000
  H   H1382     1.0  0.29472  0.96093  0.10328  1.0000
  H   H1383     1.0  0.21033  0.87577  0.11895  1.0000
  H   H1384     1.0  0.23220  0.88641  0.09429  1.0000
  H   H1385     1.0  0.22819  0.86515  0.11930  1.0000
  H   H1386     1.0  0.26787  0.92516  0.25645  1.0000
  H   H1387     1.0  0.24680  0.92120  0.23558  1.0000
  H   H1388     1.0  0.25285  0.90145  0.25050  1.0000
  N   N44       1.0  0.21339  0.78756  0.22369  1.0000
  C   C778      1.0  0.20136  0.79771  0.23598  1.0000
  C   C779      1.0  0.23451  0.79834  0.22829  1.0000
  C   C780      1.0  0.21155  0.78811  0.19046  1.0000
  H   H1389     1.0  0.46743  0.87360  0.20097  1.0000
  H   H1390     1.0  0.09240  0.75447  0.47047  1.0000
  H   H1391     1.0  0.44712  0.88619  0.23262  1.0000
  H   H1392     1.0  0.24020  0.79091  0.17081  1.0000
  C   C781      1.0  0.23987  0.80003  0.26088  1.0000
  C   C782      1.0  0.26099  0.81337  0.26210  1.0000
  C   C783      1.0  0.19036  0.89458  0.01311  1.0000
  H   H1393     1.0  0.19541  0.75782  0.22423  1.0000
  C   C784      1.0  0.21898  0.77846  0.14076  1.0000
  H   H1394     1.0  0.20817  0.81309  0.22806  1.0000
  H   H1395     1.0  0.45980  0.91147  0.26818  1.0000
  H   H1396     1.0  0.24394  0.79166  0.21862  1.0000
  H   H1397     1.0  0.23945  0.81287  0.21621  1.0000
  H   H1398     1.0  0.21449  0.80274  0.18022  1.0000
  H   H1399     1.0  0.22016  0.79225  0.12893  1.0000
  C   C785      1.0  0.43730  0.89020  0.18958  1.0000
  C   C786      1.0  0.19794  0.76225  0.27007  1.0000
  H   H1400     1.0  0.46219  0.97991  0.34032  1.0000
  H   H1401     1.0  0.39003  0.96382  0.48855  1.0000
  H   H1402     1.0  0.28334  0.98234  0.48409  1.0000
  H   H1403     1.0  0.42146  0.98749  0.29431  1.0000
  C   C787      1.0  0.26165  0.94939  0.44616  1.0000
  C   C788      1.0  0.05872  0.76006  0.14323  1.0000
  H   H1404     1.0  0.23066  0.80562  0.27369  1.0000
  H   H1405     1.0  0.23848  0.78603  0.27205  1.0000
  H   H1406     1.0  0.26484  0.81350  0.28557  1.0000
  H   H1407     1.0  0.27111  0.80883  0.24911  1.0000
  H   H1408     1.0  0.26304  0.82800  0.25310  1.0000
  C   C789      1.0  0.48123  0.88426  0.18981  1.0000
  C   C790      1.0  0.38251  0.98801  0.15983  1.0000
  C   C791      1.0  0.20677  0.76716  0.23719  1.0000
  H   H1409     1.0  0.24330  0.86211  0.06577  1.0000
  H   H1410     1.0  0.45872  0.98729  0.37523  1.0000
  C   C792      1.0  0.48146  0.90867  0.23575  1.0000
  H   H1411     1.0  0.42826  0.00126  0.12307  1.0000
  H   H1412     1.0  0.48731  0.96442  0.16184  1.0000
  H   H1413     1.0  0.45516  0.98916  0.25081  1.0000
  N   N45       1.0  0.36050  0.95572  0.41158  1.0000
  C   C793      1.0  0.33951  0.94237  0.41309  1.0000
  H   H1414     1.0  0.39324  0.96521  0.26327  1.0000
  C   C794      1.0  0.36284  0.97625  0.40912  1.0000
  C   C795      1.0  0.34752  0.98179  0.39238  1.0000
  C   C796      1.0  0.32704  0.94147  0.44189  1.0000
  C   C797      1.0  0.07599  0.77388  0.15101  1.0000
  C   C798      1.0  0.30530  0.93176  0.43853  1.0000
  H   H1415     1.0  0.39821  0.94288  0.17930  1.0000
  H   H1416     1.0  0.33212  0.94564  0.39374  1.0000
  H   H1417     1.0  0.36188  0.95431  0.45958  1.0000
  H   H1418     1.0  0.36238  0.98080  0.43169  1.0000
  H   H1419     1.0  0.37749  0.98542  0.39833  1.0000
  H   H1420     1.0  0.33304  0.97538  0.40505  1.0000
  H   H1421     1.0  0.34587  0.97705  0.37007  1.0000
  C   C799      1.0  0.42961  0.00130  0.34805  1.0000
  H   H1422     1.0  0.32987  0.95573  0.44841  1.0000
  H   H1423     1.0  0.07485  0.77419  0.22776  1.0000
  H   H1424     1.0  0.47788  0.89503  0.29704  1.0000
  H   H1425     1.0  0.04541  0.76756  0.20502  1.0000
  H   H1426     1.0  0.01715  0.78555  0.27086  1.0000
  H   H1427     1.0  0.29702  0.93058  0.46007  1.0000
  H   H1428     1.0  0.30060  0.94006  0.42121  1.0000
  C   C800      1.0  0.34913  0.99207  0.28403  1.0000
  C   C801      1.0  0.47986  0.90388  0.18326  1.0000
  C   C802      1.0  0.43336  0.96575  0.36326  1.0000
  S   S178      1.0  0.19336  0.84235  0.02680  1.0000
  H   H1429     1.0  0.17962  0.79625  0.20400  1.0000
  H   H1430     1.0  0.24752  0.85838  0.48032  1.0000
  H   H1431     1.0  0.25388  0.95767  0.45573  1.0000
  H   H1432     1.0  0.19635  0.77966  0.18582  1.0000
  C   C803      1.0  0.37598  0.94788  0.33182  1.0000
  H   H1433     1.0  0.44510  0.95409  0.40024  1.0000
  H   H1434     1.0  0.34907  0.94554  0.35368  1.0000
  C   C804      1.0  0.39751  0.95846  0.47206  1.0000
  H   H1435     1.0  0.15288  0.79414  0.23913  1.0000
  H   H1436     1.0  0.30195  0.91733  0.43235  1.0000
  C   C805      1.0  0.08331  0.76107  0.47986  1.0000
  C   C806      1.0  0.01522  0.77644  0.31765  1.0000
  H   H1437     1.0  0.01856  0.76632  0.17263  1.0000
  C   C807      1.0  0.23229  0.85701  0.48566  1.0000
  H   H1438     1.0  0.22565  0.85918  0.46475  1.0000
  H   H1439     1.0  0.42512  0.93699  0.38451  1.0000
  C   C808      1.0  0.24354  0.92748  0.01426  1.0000
  C   C809      1.0  0.26421  0.87813  0.02814  1.0000
  H   H1440     1.0  0.17434  0.81439  0.24356  1.0000
  H   H1441     1.0  0.33074  0.93316  0.46038  1.0000
  N   N46       1.0  0.47079  0.91020  0.20842  1.0000
  C   C810      1.0  0.44934  0.89852  0.21570  1.0000
  H   H1442     1.0  0.39346  0.00307  0.34087  1.0000
  H   H1443     1.0  0.46947  0.93101  0.15262  1.0000
  H   H1444     1.0  0.37160  0.93744  0.39023  1.0000
  H   H1445     1.0  0.43528  0.97258  0.29844  1.0000
  H   H1446     1.0  0.39926  0.95590  0.42571  1.0000
  C   C811      1.0  0.35298  0.00316  0.38858  1.0000
  N   N47       1.0  0.26821  0.91176  0.00359  1.0000
  H   H1447     1.0  0.47219  0.90392  0.16276  1.0000
  H   H1448     1.0  0.46582  0.00056  0.29833  1.0000
  C   C812      1.0  0.36471  0.95421  0.35456  1.0000
  H   H1449     1.0  0.00402  0.76226  0.31611  1.0000
  H   H1450     1.0  0.36093  0.96073  0.15129  1.0000
  S   S179      1.0  0.02849  0.76088  0.47144  1.0000
  H   H1451     1.0  0.27723  0.95546  0.45066  1.0000
  H   H1452     1.0  0.04938  0.77402  0.29676  1.0000
  H   H1453     1.0  0.35679  0.96763  0.18725  1.0000
  C   C813      1.0  0.39119  0.96148  0.44090  1.0000
  H   H1454     1.0  0.37351  0.93272  0.33747  1.0000
  C   C814      1.0  0.25612  0.89408  0.02408  1.0000
  H   H1455     1.0  0.36569  0.93557  0.44379  1.0000
  H   H1456     1.0  0.38119  0.99165  0.21992  1.0000
  H   H1457     1.0  0.44218  0.90694  0.22663  1.0000
  H   H1458     1.0  0.39409  0.94319  0.47871  1.0000
  N   N48       1.0  0.04949  0.77729  0.24841  1.0000
  C   C815      1.0  0.05667  0.79828  0.23855  1.0000
  C   C816      1.0  0.03891  0.77256  0.27925  1.0000
  H   H1459     1.0  0.03736  0.79918  0.29016  1.0000
  C   C817      1.0  0.03680  0.76590  0.22646  1.0000
  C   C818      1.0  0.01825  0.76972  0.21996  1.0000
  C   C819      1.0  0.06810  0.80531  0.20742  1.0000
  C   C820      1.0  0.46505  0.93604  0.17272  1.0000
  C   C821      1.0  0.05252  0.76555  0.48227  1.0000
  H   H1460     1.0  0.99484  0.76165  0.19056  1.0000
  H   H1461     1.0  0.25124  0.95684  0.02212  1.0000
  C   C822      1.0  0.07366  0.82655  0.19954  1.0000
  H   H1462     1.0  0.26901  0.93020  0.03712  1.0000
  H   H1463     1.0  0.06622  0.80611  0.25515  1.0000
  H   H1464     1.0  0.04449  0.80329  0.23809  1.0000
  H   H1465     1.0  0.26919  0.87500  0.00669  1.0000
  H   H1466     1.0  0.25509  0.84887  0.04765  1.0000
  S   S180      1.0  0.35326  0.00256  0.01424  1.0000
  H   H1467     1.0  0.38558  0.99350  0.13574  1.0000
  C   C823      1.0  0.24275  0.89174  0.49209  1.0000
  H   H1468     1.0  0.38714  0.96181  0.38398  1.0000
  H   H1469     1.0  0.02131  0.78496  0.21454  1.0000
  H   H1470     1.0  0.20379  0.76814  0.14075  1.0000
  H   H1471     1.0  0.08187  0.80281  0.20679  1.0000
  H   H1472     1.0  0.05921  0.79827  0.18974  1.0000
  H   H1473     1.0  0.36755  0.96926  0.34730  1.0000
  C   C824      1.0  0.47425  0.93077  0.20059  1.0000
  C   C825      1.0  0.45184  0.98391  0.35397  1.0000
  C   C826      1.0  0.34722  0.98060  0.15025  1.0000
  C   C827      1.0  0.06715  0.77205  0.25018  1.0000
  C   C828      1.0  0.41547  0.88308  0.19853  1.0000
  H   H1474     1.0  0.42827  0.00093  0.37274  1.0000
  H   H1475     1.0  0.42959  0.97797  0.24637  1.0000
  H   H1476     1.0  0.35031  0.98400  0.12570  1.0000
  H   H1477     1.0  0.31759  0.94275  0.05625  1.0000
  H   H1478     1.0  0.06045  0.83003  0.19850  1.0000
  H   H1479     1.0  0.08297  0.83445  0.21620  1.0000
  H   H1480     1.0  0.08200  0.83118  0.17734  1.0000
  C   C829      1.0  0.28983  0.91626  0.00289  1.0000
  H   H1481     1.0  0.24275  0.93985  0.05540  1.0000
  H   H1482     1.0  0.18341  0.76322  0.27171  1.0000
  N   N49       1.0  0.39848  0.98195  0.17070  1.0000
  C   C830      1.0  0.39384  0.97249  0.20245  1.0000
  C   C831      1.0  0.40250  0.96900  0.15042  1.0000
  H   H1483     1.0  0.02885  0.75750  0.28280  1.0000
  C   C832      1.0  0.26477  0.92842  0.01404  1.0000
  C   C833      1.0  0.36168  0.97273  0.16341  1.0000
  C   C834      1.0  0.39145  0.98478  0.22623  1.0000
  H   H1484     1.0  0.33866  0.92776  0.41131  1.0000
  C   C835      1.0  0.39200  0.94733  0.15939  1.0000
  C   C836      1.0  0.39484  0.93627  0.13457  1.0000
  H   H1485     1.0  0.44890  0.94651  0.36485  1.0000
  C   C837      1.0  0.38377  0.97291  0.25637  1.0000
  C   C838      1.0  0.37165  0.95202  0.38593  1.0000
  H   H1486     1.0  0.40555  0.96750  0.20914  1.0000
  H   H1487     1.0  0.38034  0.95956  0.20472  1.0000
  H   H1488     1.0  0.39940  0.97246  0.12716  1.0000
  H   H1489     1.0  0.41827  0.97131  0.14906  1.0000
  H   H1490     1.0  0.07782  0.78150  0.26397  1.0000
  H   H1491     1.0  0.46457  0.96084  0.14582  1.0000
  N   N50       1.0  0.44915  0.00108  0.33823  1.0000
  C   C839      1.0  0.44059  0.98951  0.25637  1.0000
  H   H1492     1.0  0.33881  0.00123  0.07921  1.0000
  H   H1493     1.0  0.25799  0.89339  0.48558  1.0000
  H   H1494     1.0  0.44060  0.87807  0.18320  1.0000
  H   H1495     1.0  0.44043  0.90053  0.16943  1.0000
  H   H1496     1.0  0.22876  0.77326  0.12835  1.0000
  H   H1497     1.0  0.26074  0.95058  0.42165  1.0000
  H   H1498     1.0  0.02471  0.77524  0.33548  1.0000
  H   H1499     1.0  0.22414  0.76681  0.18325  1.0000
  C   C840      1.0  0.43595  0.98678  0.29011  1.0000
  C   C841      1.0  0.25237  0.92865  0.45936  1.0000
  H   H1500     1.0  0.47441  0.87535  0.14590  1.0000
  H   H1501     1.0  0.23294  0.91353  0.02449  1.0000
  H   H1502     1.0  0.26025  0.92097  0.44827  1.0000
  H   H1503     1.0  0.12115  0.76548  0.14738  1.0000
  H   H1504     1.0  0.18415  0.90297  0.02465  1.0000
  C   C842      1.0  0.48419  0.91061  0.29131  1.0000
  C   C843      1.0  0.41676  0.99951  0.16979  1.0000
  C   C844      1.0  0.34891  0.99688  0.25347  1.0000
  H   H1505     1.0  0.41345  0.96614  0.47219  1.0000
  C   C845      1.0  0.16787  0.79869  0.24645  1.0000
  H   H1506     1.0  0.21906  0.76223  0.23543  1.0000
  H   H1507     1.0  0.00739  0.76385  0.23954  1.0000
  H   H1508     1.0  0.21265  0.91913  0.48514  1.0000
  H   H1509     1.0  0.44032  0.00320  0.24647  1.0000
  S   S181      1.0  0.16777  0.75523  0.10190  1.0000
  H   H1510     1.0  0.27411  0.94174  0.99993  1.0000
  C   C846      1.0  0.45186  0.00189  0.30486  1.0000
  H   H1511     1.0  0.20809  0.89466  0.48119  1.0000
  H   H1512     1.0  0.13939  0.75984  0.06219  1.0000
  H   H1513     1.0  0.34810  0.99358  0.15997  1.0000
  C   C847      1.0  0.48617  0.87738  0.16118  1.0000
  C   C848      1.0  0.05775  0.75447  0.11466  1.0000
  H   H1514     1.0  0.48782  0.86368  0.16659  1.0000
  Fe  Fe90      1.0  0.24420  0.95830  0.86881  1.0000
  S   S182      1.0  0.22199  0.96391  0.89757  1.0000
  S   S183      1.0  0.24712  0.95233  0.82110  1.0000
  Fe  Fe91      1.0  0.22665  0.94398  0.93393  1.0000
  C   C849      1.0  0.48106  0.91768  0.87456  1.0000
  S   S184      1.0  0.24634  0.93628  0.90364  1.0000
  Fe  Fe92      1.0  0.13278  0.79610  0.54555  1.0000
  S   S185      1.0  0.12267  0.80647  0.58533  1.0000
  C   C850      1.0  0.46738  0.92842  0.87262  1.0000
  Fe  Fe93      1.0  0.17494  0.80911  0.56446  1.0000
  S   S186      1.0  0.16729  0.81948  0.60572  1.0000
  S   S187      1.0  0.20563  0.81072  0.55296  1.0000
  Fe  Fe94      1.0  0.14029  0.79295  0.61144  1.0000
  Fe  Fe95      1.0  0.15080  0.83207  0.57603  1.0000
  S   S188      1.0  0.15330  0.86232  0.57836  1.0000
  S   S189      1.0  0.14916  0.78147  0.57234  1.0000
  S   S190      1.0  0.15962  0.82283  0.53397  1.0000
  Fe  Fe96      1.0  0.34319  0.90053  0.51149  1.0000
  S   S191      1.0  0.33583  0.88331  0.55722  1.0000
  Fe  Fe97      1.0  0.33668  0.93315  0.53368  1.0000
  S   S192      1.0  0.32825  0.91918  0.58054  1.0000
  S   S193      1.0  0.34026  0.96288  0.51773  1.0000
  Fe  Fe98      1.0  0.35375  0.91042  0.57540  1.0000
  S   S194      1.0  0.37085  0.91093  0.61703  1.0000
  Fe  Fe99      1.0  0.31076  0.89306  0.56027  1.0000
  S   S195      1.0  0.28060  0.87811  0.58470  1.0000
  S   S196      1.0  0.36336  0.92643  0.52963  1.0000
  S   S197      1.0  0.31689  0.90826  0.51369  1.0000
  H   H1515     1.0  0.22303  0.91663  0.53438  1.0000
  H   H1516     1.0  0.26972  0.93508  0.54448  1.0000
  Fe  Fe100     1.0  0.23943  0.95533  0.61839  1.0000
  S   S198      1.0  0.25683  0.96556  0.65701  1.0000
  S   S199      1.0  0.22905  0.92337  0.62143  1.0000
  Fe  Fe101     1.0  0.24214  0.98617  0.65748  1.0000
  C   C851      1.0  0.45399  0.92313  0.65328  1.0000
  Fe  Fe102     1.0  0.27860  0.98711  0.62362  1.0000
  H   H1517     1.0  0.22387  0.84242  0.49649  1.0000
  S   S200      1.0  0.22347  0.97501  0.62014  1.0000
  S   S201      1.0  0.26283  0.97530  0.58471  1.0000
  Fe  Fe103     1.0  0.46738  0.94946  0.76256  1.0000
  H   H1518     1.0  0.26865  0.83216  0.61981  1.0000
  S   S202      1.0  0.46224  0.92014  0.78409  1.0000
  Fe  Fe104     1.0  0.46203  0.98653  0.76670  1.0000
  C   C852      1.0  0.30926  0.98300  0.70419  1.0000
  N   N51       1.0  0.20500  0.79000  0.65717  1.0000
  Fe  Fe105     1.0  0.46094  0.97105  0.70649  1.0000
  S   S203      1.0  0.44932  0.96940  0.66016  1.0000
  H   H1519     1.0  0.32945  0.92135  0.66084  1.0000
  S   S204      1.0  0.44324  0.95929  0.75032  1.0000
  H   H1520     1.0  0.42039  0.88510  0.69732  1.0000
  C   C853      1.0  0.41917  0.90580  0.74098  1.0000
  H   H1521     1.0  0.42420  0.88605  0.58255  1.0000
  C   C854      1.0  0.42034  0.89744  0.62357  1.0000
  H   H1522     1.0  0.45617  0.88129  0.79041  1.0000
  H   H1523     1.0  0.06154  0.77752  0.63839  1.0000
  C   C855      1.0  0.39194  0.92849  0.62876  1.0000
  C   C856      1.0  0.39564  0.92729  0.65903  1.0000
  C   C857      1.0  0.41262  0.94021  0.66925  1.0000
  C   C858      1.0  0.42646  0.95429  0.64917  1.0000
  C   C859      1.0  0.42272  0.95557  0.61893  1.0000
  C   C860      1.0  0.40555  0.94284  0.60879  1.0000
  H   H1524     1.0  0.38534  0.91614  0.67465  1.0000
  H   H1525     1.0  0.41523  0.93902  0.69256  1.0000
  H   H1526     1.0  0.43333  0.96631  0.60310  1.0000
  H   H1527     1.0  0.40310  0.94385  0.58539  1.0000
  C   C861      1.0  0.33208  0.97174  0.54727  1.0000
  C   C862      1.0  0.31373  0.96164  0.56212  1.0000
  C   C863      1.0  0.30716  0.96888  0.58568  1.0000
  C   C864      1.0  0.31918  0.98593  0.59486  1.0000
  H   H1528     1.0  0.23256  0.78688  0.66114  1.0000
  C   C865      1.0  0.34422  0.98863  0.55674  1.0000
  H   H1529     1.0  0.30457  0.94837  0.55518  1.0000
  H   H1530     1.0  0.29297  0.96110  0.59716  1.0000
  C   C866      1.0  0.20844  0.90474  0.49721  1.0000
  H   H1531     1.0  0.44633  0.98374  0.89625  1.0000
  C   C867      1.0  0.17482  0.87949  0.58893  1.0000
  C   C868      1.0  0.17597  0.89810  0.58996  1.0000
  C   C869      1.0  0.19277  0.91198  0.59880  1.0000
  C   C870      1.0  0.20841  0.90722  0.60719  1.0000
  C   C871      1.0  0.20733  0.88868  0.60593  1.0000
  C   C872      1.0  0.19071  0.87493  0.59660  1.0000
  H   H1532     1.0  0.16375  0.90175  0.58399  1.0000
  H   H1533     1.0  0.19339  0.92618  0.59983  1.0000
  H   H1534     1.0  0.21936  0.88488  0.61244  1.0000
  H   H1535     1.0  0.19011  0.86075  0.59568  1.0000
  C   C873      1.0  0.22629  0.83003  0.56083  1.0000
  C   C874      1.0  0.22471  0.84266  0.58001  1.0000
  C   C875      1.0  0.24153  0.85725  0.58711  1.0000
  C   C876      1.0  0.26001  0.85983  0.57421  1.0000
  C   C877      1.0  0.26158  0.84748  0.55449  1.0000
  C   C878      1.0  0.24480  0.83247  0.54821  1.0000
  H   H1536     1.0  0.21058  0.84104  0.58971  1.0000
  H   H1537     1.0  0.24020  0.86668  0.60251  1.0000
  H   H1538     1.0  0.27574  0.84923  0.54461  1.0000
  H   H1539     1.0  0.07816  0.79031  0.60623  1.0000
  H   H1540     1.0  0.40441  0.87012  0.60862  1.0000
  C   C879      1.0  0.24268  0.96453  0.78891  1.0000
  C   C880      1.0  0.22730  0.97086  0.78851  1.0000
  H   H1541     1.0  0.17310  0.75663  0.64449  1.0000
  C   C881      1.0  0.23459  0.98081  0.73492  1.0000
  C   C882      1.0  0.25035  0.97508  0.73569  1.0000
  C   C883      1.0  0.25417  0.96671  0.76244  1.0000
  C   C884      1.0  0.48303  0.87924  0.77519  1.0000
  H   H1542     1.0  0.45481  0.92153  0.88951  1.0000
  H   H1543     1.0  0.25954  0.97696  0.71562  1.0000
  H   H1544     1.0  0.26608  0.96184  0.76261  1.0000
  H   H1545     1.0  0.08029  0.75701  0.64764  1.0000
  C   C885      1.0  0.22321  0.97889  0.76150  1.0000
  C   C886      1.0  0.20813  0.89082  0.96999  1.0000
  C   C887      1.0  0.20161  0.77974  0.62982  1.0000
  H   H1546     1.0  0.21541  0.89607  0.94793  1.0000
  H   H1547     1.0  0.08391  0.79153  0.52967  1.0000
  H   H1548     1.0  0.31574  0.00044  0.52419  1.0000
  H   H1549     1.0  0.47758  0.86407  0.78089  1.0000
  H   H1550     1.0  0.35989  0.98189  0.96836  1.0000
  H   H1551     1.0  0.37123  0.98002  0.59960  1.0000
  H   H1552     1.0  0.25805  0.90439  0.59836  1.0000
  H   H1553     1.0  0.30155  0.97356  0.72473  1.0000
  C   C888      1.0  0.09052  0.77350  0.50129  1.0000
  H   H1554     1.0  0.33551  0.97819  0.70969  1.0000
  H   H1555     1.0  0.18498  0.76788  0.57738  1.0000
  C   C889      1.0  0.25966  0.89542  0.92413  1.0000
  H   H1556     1.0  0.46935  0.89515  0.65822  1.0000
  C   C890      1.0  0.44431  0.99388  0.87972  1.0000
  C   C891      1.0  0.43473  0.89085  0.64115  1.0000
  H   H1557     1.0  0.31165  0.96832  0.81915  1.0000
  H   H1558     1.0  0.24666  0.90832  0.97149  1.0000
  H   H1559     1.0  0.23851  0.86832  0.52694  1.0000
  H   H1560     1.0  0.27038  0.92374  0.95775  1.0000
  H   H1561     1.0  0.24616  0.82276  0.53333  1.0000
  C   C892      1.0  0.25900  0.92191  0.55696  1.0000
  H   H1562     1.0  0.21735  0.77729  0.71473  1.0000
  H   H1563     1.0  0.24477  0.89227  0.55318  1.0000
  C   C893      1.0  0.31174  0.97276  0.84177  1.0000
  C   C894      1.0  0.18011  0.76763  0.62533  1.0000
  C   C895      1.0  0.08179  0.76467  0.62503  1.0000
  H   H1564     1.0  0.27888  0.89374  0.95704  1.0000
  C   C896      1.0  0.26215  0.91027  0.97218  1.0000
  N   N52       1.0  0.24291  0.90705  0.51070  1.0000
  C   C897      1.0  0.36567  0.99752  0.88365  1.0000
  C   C898      1.0  0.33788  0.99558  0.58089  1.0000
  H   H1565     1.0  0.24460  0.89487  0.92229  1.0000
  H   H1566     1.0  0.26102  0.88347  0.91363  1.0000
  C   C899      1.0  0.47765  0.90860  0.77359  1.0000
  S   S205      1.0  0.48371  0.95929  0.71783  1.0000
  H   H1567     1.0  0.42428  0.91409  0.75984  1.0000
  C   C900      1.0  0.26803  0.91769  0.58513  1.0000
  C   C901      1.0  0.20341  0.77954  0.71447  1.0000
  C   C902      1.0  0.18765  0.89901  0.51107  1.0000
  C   C903      1.0  0.42878  0.90031  0.68947  1.0000
  H   H1568     1.0  0.23037  0.80503  0.68018  1.0000
  C   C904      1.0  0.47739  0.94905  0.61556  1.0000
  H   H1569     1.0  0.33114  0.95768  0.62564  1.0000
  H   H1570     1.0  0.28772  0.89460  0.67259  1.0000
  H   H1571     1.0  0.29093  0.92804  0.66031  1.0000
  C   C905      1.0  0.29251  0.90223  0.64978  1.0000
  H   H1572     1.0  0.28359  0.97466  0.52316  1.0000
  H   H1573     1.0  0.30661  0.93047  0.62756  1.0000
  H   H1574     1.0  0.29854  0.98231  0.68745  1.0000
  H   H1575     1.0  0.35984  0.93239  0.67866  1.0000
  N   N53       1.0  0.44428  0.90254  0.66526  1.0000
  H   H1576     1.0  0.30666  0.94773  0.70076  1.0000
  C   C906      1.0  0.34549  0.95059  0.69620  1.0000
  H   H1577     1.0  0.30266  0.89684  0.63875  1.0000
  H   H1578     1.0  0.31417  0.92038  0.69258  1.0000
  H   H1579     1.0  0.44587  0.88999  0.62482  1.0000
  H   H1580     1.0  0.45245  0.98201  0.84235  1.0000
  Fe  Fe106     1.0  0.24787  0.98630  0.91379  1.0000
  C   C907      1.0  0.43589  0.91083  0.71686  1.0000
  C   C908      1.0  0.23882  0.81356  0.63361  1.0000
  H   H1581     1.0  0.22860  0.00246  0.82661  1.0000
  H   H1582     1.0  0.26338  0.98004  0.51022  1.0000
  C   C909      1.0  0.45962  0.89584  0.67702  1.0000
  C   C910      1.0  0.19488  0.77568  0.68394  1.0000
  S   S206      1.0  0.12937  0.77655  0.65759  1.0000
  C   C911      1.0  0.30579  0.97669  0.97124  1.0000
  C   C912      1.0  0.45207  0.87624  0.69609  1.0000
  H   H1583     1.0  0.17558  0.76823  0.74132  1.0000
  H   H1584     1.0  0.21180  0.86420  0.97146  1.0000
  H   H1585     1.0  0.09728  0.76988  0.61654  1.0000
  S   S207      1.0  0.25119  0.96680  0.95170  1.0000
  H   H1586     1.0  0.46938  0.90620  0.69068  1.0000
  C   C913      1.0  0.32548  0.97730  0.69190  1.0000
  H   H1587     1.0  0.46202  0.92068  0.60673  1.0000
  H   H1588     1.0  0.29086  0.97558  0.97172  1.0000
  C   C914      1.0  0.34161  0.95931  0.64297  1.0000
  C   C915      1.0  0.46881  0.86974  0.70228  1.0000
  H   H1589     1.0  0.29778  0.92856  0.98574  1.0000
  H   H1590     1.0  0.44514  0.87689  0.71792  1.0000
  H   H1591     1.0  0.44765  0.90723  0.72673  1.0000
  C   C916      1.0  0.20595  0.87272  0.98331  1.0000
  H   H1592     1.0  0.21568  0.89197  0.53764  1.0000
  H   H1593     1.0  0.48116  0.92353  0.63131  1.0000
  H   H1594     1.0  0.27949  0.89915  0.63693  1.0000
  C   C917      1.0  0.34479  0.98036  0.96929  1.0000
  H   H1595     1.0  0.20637  0.79412  0.71926  1.0000
  H   H1596     1.0  0.17799  0.82984  0.66581  1.0000
  S   S208      1.0  0.20259  0.92464  0.96859  1.0000
  S   S209      1.0  0.11429  0.77752  0.51266  1.0000
  C   C918      1.0  0.47085  0.88899  0.78045  1.0000
  C   C919      1.0  0.07666  0.78191  0.62827  1.0000
  C   C920      1.0  0.19643  0.80497  0.65320  1.0000
  C   C921      1.0  0.20032  0.81879  0.67705  1.0000
  H   H1597     1.0  0.17147  0.77662  0.62240  1.0000
  C   C922      1.0  0.22260  0.90495  0.52144  1.0000
  H   H1598     1.0  0.32719  0.98794  0.89003  1.0000
  C   C923      1.0  0.32750  0.99947  0.87290  1.0000
  H   H1599     1.0  0.25333  0.88016  0.96784  1.0000
  H   H1600     1.0  0.20722  0.78987  0.60919  1.0000
  C   C924      1.0  0.41229  0.88508  0.59902  1.0000
  S   S210      1.0  0.47874  0.99907  0.72182  1.0000
  H   H1601     1.0  0.17915  0.77351  0.68648  1.0000
  H   H1602     1.0  0.20146  0.81341  0.63090  1.0000
  H   H1603     1.0  0.21594  0.82506  0.68086  1.0000
  S   S211      1.0  0.22869  0.99016  0.70107  1.0000
  H   H1604     1.0  0.23409  0.82566  0.63191  1.0000
  H   H1605     1.0  0.42742  0.91219  0.61273  1.0000
  H   H1606     1.0  0.19736  0.84505  0.68495  1.0000
  C   C925      1.0  0.26046  0.82132  0.63869  1.0000
  H   H1607     1.0  0.35535  0.98479  0.87526  1.0000
  H   H1608     1.0  0.08675  0.79105  0.64294  1.0000
  C   C926      1.0  0.25359  0.90519  0.53790  1.0000
  H   H1609     1.0  0.46196  0.93143  0.67075  1.0000
  N   N54       1.0  0.20044  0.91421  0.71545  1.0000
  C   C927      1.0  0.21961  0.91201  0.70996  1.0000
  C   C928      1.0  0.18425  0.89590  0.71116  1.0000
  C   C929      1.0  0.20014  0.93037  0.69382  1.0000
  C   C930      1.0  0.19782  0.91863  0.74670  1.0000
  C   C931      1.0  0.19883  0.90401  0.77215  1.0000
  C   C932      1.0  0.23772  0.92767  0.71978  1.0000
  C   C933      1.0  0.18051  0.93321  0.69358  1.0000
  C   C934      1.0  0.18323  0.89045  0.67896  1.0000
  C   C935      1.0  0.16650  0.87161  0.67733  1.0000
  C   C936      1.0  0.19814  0.91102  0.80245  1.0000
  C   C937      1.0  0.25652  0.92562  0.70907  1.0000
  C   C938      1.0  0.18151  0.94894  0.66943  1.0000
  H   H1610     1.0  0.22256  0.91159  0.68580  1.0000
  H   H1611     1.0  0.21908  0.89823  0.72104  1.0000
  H   H1612     1.0  0.18571  0.88394  0.72545  1.0000
  H   H1613     1.0  0.16986  0.89594  0.71886  1.0000
  H   H1614     1.0  0.20455  0.92890  0.67068  1.0000
  H   H1615     1.0  0.21120  0.94400  0.69864  1.0000
  H   H1616     1.0  0.20860  0.93287  0.74977  1.0000
  H   H1617     1.0  0.18338  0.91957  0.75070  1.0000
  H   H1618     1.0  0.21235  0.90120  0.76959  1.0000
  H   H1619     1.0  0.18623  0.89044  0.77263  1.0000
  H   H1620     1.0  0.23849  0.94177  0.71055  1.0000
  H   H1621     1.0  0.23726  0.92711  0.74439  1.0000
  H   H1622     1.0  0.17686  0.93728  0.71517  1.0000
  H   H1623     1.0  0.16838  0.92027  0.68915  1.0000
  H   H1624     1.0  0.18084  0.90120  0.66315  1.0000
  H   H1625     1.0  0.19687  0.88897  0.67117  1.0000
  H   H1626     1.0  0.16615  0.86804  0.65411  1.0000
  H   H1627     1.0  0.16844  0.86009  0.69201  1.0000
  H   H1628     1.0  0.15234  0.87250  0.68393  1.0000
  H   H1629     1.0  0.18442  0.91333  0.80673  1.0000
  H   H1630     1.0  0.19889  0.90040  0.82035  1.0000
  H   H1631     1.0  0.21069  0.92444  0.80341  1.0000
  H   H1632     1.0  0.25673  0.91186  0.71878  1.0000
  H   H1633     1.0  0.25792  0.92660  0.68436  1.0000
  H   H1634     1.0  0.26917  0.93717  0.71617  1.0000
  H   H1635     1.0  0.19302  0.96251  0.67331  1.0000
  H   H1636     1.0  0.18453  0.94534  0.64708  1.0000
  H   H1637     1.0  0.16737  0.95077  0.66987  1.0000
  H   H1638     1.0  0.44293  0.92911  0.64757  1.0000
  H   H1639     1.0  0.36775  0.94472  0.74108  1.0000
  C   C939      1.0  0.27941  0.98415  0.50717  1.0000
  H   H1640     1.0  0.46173  0.92835  0.85023  1.0000
  H   H1641     1.0  0.26621  0.80987  0.63993  1.0000
  H   H1642     1.0  0.18234  0.88442  0.52291  1.0000
  C   C940      1.0  0.37212  0.94167  0.71904  1.0000
  C   C941      1.0  0.36664  0.96452  0.59971  1.0000
  H   H1643     1.0  0.35741  0.96485  0.69244  1.0000
  H   H1644     1.0  0.34802  0.97473  0.64439  1.0000
  H   H1645     1.0  0.37074  0.95851  0.64536  1.0000
  H   H1646     1.0  0.29701  0.97229  0.84825  1.0000
  H   H1647     1.0  0.47222  0.90279  0.87188  1.0000
  H   H1648     1.0  0.19718  0.99113  0.85551  1.0000
  H   H1649     1.0  0.40768  0.89647  0.63840  1.0000
  H   H1650     1.0  0.37783  0.93024  0.72270  1.0000
  H   H1651     1.0  0.35556  0.95954  0.58357  1.0000
  H   H1652     1.0  0.32350  0.00226  0.82504  1.0000
  H   H1653     1.0  0.37945  0.96145  0.59238  1.0000
  H   H1654     1.0  0.27066  0.92928  0.59920  1.0000
  C   C942      1.0  0.26404  0.89386  0.95678  1.0000
  C   C943      1.0  0.35854  0.95421  0.63080  1.0000
  C   C944      1.0  0.22673  0.79834  0.65948  1.0000
  H   H1655     1.0  0.30781  0.95836  0.66340  1.0000
  H   H1656     1.0  0.46572  0.95394  0.60855  1.0000
  H   H1657     1.0  0.42628  0.87599  0.65080  1.0000
  H   H1658     1.0  0.35865  0.99613  0.54577  1.0000
  C   C945      1.0  0.33229  0.96964  0.94978  1.0000
  C   C946      1.0  0.31688  0.95720  0.68198  1.0000
  H   H1659     1.0  0.20987  0.77024  0.62999  1.0000
  H   H1660     1.0  0.27010  0.90884  0.91175  1.0000
  H   H1661     1.0  0.26989  0.93058  0.49574  1.0000
  H   H1662     1.0  0.26294  0.82811  0.65951  1.0000
  N   N55       1.0  0.33126  0.94872  0.67250  1.0000
  S   S212      1.0  0.26956  0.98211  0.88252  1.0000
  H   H1663     1.0  0.47488  0.86680  0.68138  1.0000
  H   H1664     1.0  0.18032  0.79834  0.65315  1.0000
  H   H1665     1.0  0.35376  0.93891  0.62917  1.0000
  H   H1666     1.0  0.21819  0.96897  0.80874  1.0000
  C   C947      1.0  0.31293  0.96811  0.95037  1.0000
  C   C948      1.0  0.31993  0.92810  0.66994  1.0000
  H   H1667     1.0  0.41789  0.90569  0.68060  1.0000
  H   H1668     1.0  0.21619  0.86838  0.51288  1.0000
  C   C949      1.0  0.32704  0.99265  0.84164  1.0000
  C   C950      1.0  0.30222  0.92351  0.65076  1.0000
  H   H1669     1.0  0.34388  0.92197  0.71151  1.0000
  H   H1670     1.0  0.24604  0.92476  0.56383  1.0000
  H   H1671     1.0  0.23743  0.80777  0.61197  1.0000
  H   H1672     1.0  0.44127  0.86533  0.68475  1.0000
  Fe  Fe107     1.0  0.24863  0.99618  0.58958  1.0000
  H   H1673     1.0  0.44144  0.92634  0.71050  1.0000
  H   H1674     1.0  0.48061  0.88071  0.71210  1.0000
  H   H1675     1.0  0.20171  0.84312  0.64624  1.0000
  H   H1676     1.0  0.28214  0.91649  0.57935  1.0000
  S   S213      1.0  0.29809  0.95552  0.92456  1.0000
  H   H1677     1.0  0.38401  0.95446  0.70749  1.0000
  Fe  Fe108     1.0  0.27044  0.96044  0.91870  1.0000
  C   C951      1.0  0.35477  0.93547  0.70006  1.0000
  H   H1678     1.0  0.40186  0.88997  0.58723  1.0000
  C   C952      1.0  0.19394  0.83516  0.66782  1.0000
  C   C953      1.0  0.38609  0.99796  0.87659  1.0000
  H   H1679     1.0  0.41388  0.89056  0.74961  1.0000
  H   H1680     1.0  0.33359  0.98794  0.67284  1.0000
  C   C954      1.0  0.44778  0.99285  0.84920  1.0000
  C   C955      1.0  0.46888  0.92784  0.62582  1.0000
  S   S214      1.0  0.31090  0.99536  0.62356  1.0000
  C   C956      1.0  0.07858  0.78192  0.51324  1.0000
  H   H1681     1.0  0.33778  0.96289  0.93375  1.0000
  H   H1682     1.0  0.33816  0.94963  0.71862  1.0000
  H   H1683     1.0  0.40696  0.90916  0.73209  1.0000
  H   H1684     1.0  0.31502  0.96253  0.85758  1.0000
  H   H1685     1.0  0.25824  0.99754  0.82382  1.0000
  H   H1686     1.0  0.21100  0.98333  0.76109  1.0000
  H   H1687     1.0  0.26738  0.90337  0.53146  1.0000
  H   H1688     1.0  0.19174  0.81130  0.69826  1.0000
  H   H1689     1.0  0.05065  0.78464  0.51300  1.0000
  H   H1690     1.0  0.24981  0.93721  0.50331  1.0000
  C   C957      1.0  0.23171  0.87117  0.50676  1.0000
  H   H1691     1.0  0.38725  0.98477  0.88709  1.0000
  H   H1692     1.0  0.28762  0.99382  0.80531  1.0000
  H   H1693     1.0  0.19621  0.76871  0.76138  1.0000
  H   H1694     1.0  0.47502  0.94322  0.87705  1.0000
  H   H1695     1.0  0.46351  0.85661  0.71825  1.0000
  H   H1696     1.0  0.31341  0.00104  0.87744  1.0000
  H   H1697     1.0  0.18694  0.90888  0.52698  1.0000
  H   H1698     1.0  0.34119  0.99231  0.83380  1.0000
  H   H1699     1.0  0.36293  0.99574  0.90815  1.0000
  H   H1700     1.0  0.38951  0.99924  0.85217  1.0000
  H   H1701     1.0  0.31556  0.99772  0.70969  1.0000
  C   C958      1.0  0.33768  0.98892  0.99019  1.0000
  C   C959      1.0  0.05973  0.77798  0.50372  1.0000
  C   C960      1.0  0.20038  0.90187  0.98483  1.0000
  S   S215      1.0  0.48429  0.97537  0.78342  1.0000
  H   H1702     1.0  0.07198  0.76107  0.58137  1.0000
  H   H1703     1.0  0.48831  0.95221  0.59630  1.0000
  H   H1704     1.0  0.23996  0.93015  0.99115  1.0000
  C   C961      1.0  0.18955  0.76604  0.73991  1.0000
  H   H1705     1.0  0.21014  0.99604  0.88876  1.0000
  C   C962      1.0  0.20361  0.00193  0.87070  1.0000
  H   H1706     1.0  0.19509  0.76158  0.68051  1.0000
  C   C963      1.0  0.17892  0.75748  0.59762  1.0000
  H   H1707     1.0  0.48846  0.00346  0.85512  1.0000
  H   H1708     1.0  0.48638  0.91831  0.89713  1.0000
  H   H1709     1.0  0.48460  0.95694  0.63385  1.0000
  C   C964      1.0  0.31809  0.98678  0.99159  1.0000
  C   C965      1.0  0.25397  0.92635  0.49353  1.0000
  H   H1710     1.0  0.17782  0.89933  0.49337  1.0000
  H   H1711     1.0  0.93457  0.18420  0.48714  1.0000
  S   S216      1.0  0.74412  0.03465  0.05753  1.0000
  Fe  Fe109     1.0  0.84566  0.16905  0.39478  1.0000
  S   S217      1.0  0.83609  0.18335  0.42950  1.0000
  S   S218      1.0  0.86245  0.18509  0.35080  1.0000
  Fe  Fe110     1.0  0.83238  0.13128  0.43525  1.0000
  S   S219      1.0  0.82258  0.14368  0.47279  1.0000
  S   S220      1.0  0.82812  0.10057  0.44899  1.0000
  Fe  Fe111     1.0  0.80925  0.15645  0.43775  1.0000
  S   S221      1.0  0.77866  0.15621  0.44568  1.0000
  Fe  Fe112     1.0  0.85044  0.16913  0.46136  1.0000
  H   H1712     1.0  0.85777  0.21644  0.26782  1.0000
  S   S222      1.0  0.81774  0.14302  0.40046  1.0000
  S   S223      1.0  0.86121  0.15589  0.42636  1.0000
  Fe  Fe113     1.0  0.67187  0.06721  0.45878  1.0000
  H   H1713     1.0  0.57898  0.03607  0.19457  1.0000
  S   S224      1.0  0.70522  0.07845  0.45589  1.0000
  Fe  Fe114     1.0  0.63064  0.05623  0.43574  1.0000
  Fe  Fe115     1.0  0.64258  0.02623  0.46673  1.0000
  S   S225      1.0  0.61293  0.06098  0.39749  1.0000
  H   H1714     1.0  0.87567  0.24148  0.45821  1.0000
  H   H1715     1.0  0.90126  0.17778  0.47110  1.0000
  H   H1716     1.0  0.90163  0.17720  0.39317  1.0000
  S   S226      1.0  0.64782  0.07824  0.46505  1.0000
  S   S227      1.0  0.65577  0.04740  0.42662  1.0000
  H   H1717     1.0  0.75144  0.06022  0.48100  1.0000
  C   C966      1.0  0.89170  0.11922  0.44815  1.0000
  S   S228      1.0  0.80131  0.03170  0.37119  1.0000
  H   H1718     1.0  0.69068  0.03919  0.23339  1.0000
  H   H1719     1.0  0.80896  0.05852  0.00132  1.0000
  H   H1720     1.0  0.86706  0.12228  0.46975  1.0000
  H   H1721     1.0  0.49351  0.15998  0.34259  1.0000
  C   C967      1.0  0.90865  0.22471  0.39479  1.0000
  H   H1722     1.0  0.50743  0.03944  0.26800  1.0000
  H   H1723     1.0  0.90501  0.19500  0.36220  1.0000
  H   H1724     1.0  0.58419  0.01024  0.13245  1.0000
  H   H1725     1.0  0.50669  0.15181  0.31628  1.0000
  C   C968      1.0  0.68518  0.02347  0.23726  1.0000
  H   H1726     1.0  0.82457  0.24122  0.25296  1.0000
  C   C969      1.0  0.75812  0.13473  0.44847  1.0000
  C   C970      1.0  0.73923  0.13492  0.44855  1.0000
  C   C971      1.0  0.72267  0.11790  0.45099  1.0000
  C   C972      1.0  0.72495  0.10058  0.45346  1.0000
  C   C973      1.0  0.74381  0.10051  0.45383  1.0000
  C   C974      1.0  0.76030  0.11740  0.45124  1.0000
  H   H1727     1.0  0.84844  0.24309  0.34846  1.0000
  H   H1728     1.0  0.70824  0.11821  0.45064  1.0000
  H   H1729     1.0  0.74567  0.08725  0.45608  1.0000
  H   H1730     1.0  0.77471  0.11702  0.45138  1.0000
  C   C975      1.0  0.80740  0.05077  0.39304  1.0000
  C   C976      1.0  0.81494  0.06947  0.37893  1.0000
  C   C977      1.0  0.82059  0.08490  0.39571  1.0000
  C   C978      1.0  0.81951  0.08176  0.42683  1.0000
  C   C979      1.0  0.81224  0.06306  0.44092  1.0000
  C   C980      1.0  0.80589  0.04766  0.42418  1.0000
  H   H1731     1.0  0.81662  0.07204  0.35488  1.0000
  H   H1732     1.0  0.82643  0.09920  0.38454  1.0000
  H   H1733     1.0  0.81148  0.06045  0.46494  1.0000
  H   H1734     1.0  0.80035  0.03336  0.43535  1.0000
  H   H1735     1.0  0.71426  0.00970  0.00110  1.0000
  C   C981      1.0  0.70810  0.02964  0.19311  1.0000
  C   C982      1.0  0.59126  0.02347  0.38969  1.0000
  C   C983      1.0  0.59583  0.04259  0.37993  1.0000
  C   C984      1.0  0.58647  0.04728  0.35565  1.0000
  C   C985      1.0  0.57276  0.03312  0.34135  1.0000
  H   H1736     1.0  0.81766  0.18504  0.26536  1.0000
  H   H1737     1.0  0.64792  0.03806  0.10221  1.0000
  H   H1738     1.0  0.58984  0.06199  0.34786  1.0000
  H   H1739     1.0  0.56572  0.03700  0.32281  1.0000
  C   C986      1.0  0.79480  0.07835  0.99485  1.0000
  H   H1740     1.0  0.89091  0.13857  0.40999  1.0000
  H   H1741     1.0  0.69096  0.01416  0.38383  1.0000
  H   H1742     1.0  0.69479  0.04754  0.12686  1.0000
  H   H1743     1.0  0.90783  0.12535  0.44660  1.0000
  H   H1744     1.0  0.70906  0.00572  0.26064  1.0000
  H   H1745     1.0  0.84224  0.20955  0.36601  1.0000
  H   H1746     1.0  0.71783  0.04598  0.13401  1.0000
  H   H1747     1.0  0.86569  0.11782  0.00475  1.0000
  C   C987      1.0  0.76415  0.05123  0.03394  1.0000
  C   C988      1.0  0.78087  0.04781  0.02639  1.0000
  C   C989      1.0  0.82558  0.24158  0.14584  1.0000
  C   C990      1.0  0.72979  0.03418  0.24633  1.0000
  C   C991      1.0  0.68840  0.02742  0.38507  1.0000
  H   H1748     1.0  0.78206  0.03477  0.03549  1.0000
  H   H1749     1.0  0.71973  0.02584  0.18258  1.0000
  C   C992      1.0  0.57750  0.00933  0.37553  1.0000
  C   C993      1.0  0.85440  0.21761  0.34996  1.0000
  C   C994      1.0  0.86651  0.20906  0.33907  1.0000
  C   C995      1.0  0.86284  0.14425  0.00721  1.0000
  H   H1750     1.0  0.91065  0.24837  0.13543  1.0000
  H   H1751     1.0  0.77658  0.06265  0.47763  1.0000
  C   C996      1.0  0.91018  0.23341  0.44555  1.0000
  C   C997      1.0  0.88297  0.12782  0.47181  1.0000
  C   C998      1.0  0.50010  0.03714  0.35478  1.0000
  H   H1752     1.0  0.88661  0.10367  0.45352  1.0000
  C   C999      1.0  0.90548  0.18422  0.49119  1.0000
  C   C1000     1.0  0.69439  0.03087  0.16866  1.0000
  H   H1753     1.0  0.66876  0.03896  0.27885  1.0000
  H   H1754     1.0  0.82813  0.24470  0.20298  1.0000
  C   C1001     1.0  0.68167  0.01827  0.27169  1.0000
  H   H1755     1.0  0.84987  0.24162  0.40677  1.0000
  H   H1756     1.0  0.90313  0.22603  0.37254  1.0000
  H   H1757     1.0  0.86938  0.11703  0.41712  1.0000
  C   C1002     1.0  0.85793  0.23662  0.33994  1.0000
  C   C1003     1.0  0.88207  0.23198  0.41651  1.0000
  H   H1758     1.0  0.67483  0.02397  0.39956  1.0000
  C   C1004     1.0  0.77812  0.08179  0.00248  1.0000
  C   C1005     1.0  0.90017  0.20322  0.40568  1.0000
  C   C1006     1.0  0.64304  0.02412  0.11607  1.0000
  H   H1759     1.0  0.89847  0.22118  0.45894  1.0000
  H   H1760     1.0  0.90208  0.22777  0.18682  1.0000
  S   S229      1.0  0.50547  0.02380  0.21227  1.0000
  C   C1007     1.0  0.88210  0.21971  0.31794  1.0000
  H   H1761     1.0  0.84851  0.13781  0.02039  1.0000
  H   H1762     1.0  0.98179  0.24901  0.48740  1.0000
  C   C1008     1.0  0.71483  0.01500  0.23931  1.0000
  H   H1763     1.0  0.71557  0.04426  0.19871  1.0000
  H   H1764     1.0  0.83924  0.25126  0.28151  1.0000
  C   C1009     1.0  0.90835  0.19258  0.38561  1.0000
  H   H1765     1.0  0.91244  0.25141  0.19727  1.0000
  H   H1766     1.0  0.75093  0.02324  0.26353  1.0000
  H   H1767     1.0  0.82379  0.23456  0.12525  1.0000
  N   N56       1.0  0.69866  0.01623  0.22107  1.0000
  H   H1768     1.0  0.65132  0.01554  0.27523  1.0000
  H   H1769     1.0  0.65159  0.02562  0.13591  1.0000
  C   C1010     1.0  0.74237  0.03141  0.27083  1.0000
  C   C1011     1.0  0.62127  0.01732  0.12544  1.0000
  H   H1770     1.0  0.59826  0.01955  0.40826  1.0000
  N   N57       1.0  0.90378  0.23716  0.41497  1.0000
  H   H1771     1.0  0.66342  0.02015  0.30894  1.0000
  H   H1772     1.0  0.70918  0.06105  0.15394  1.0000
  H   H1773     1.0  0.92435  0.19724  0.38652  1.0000
  C   C1012     1.0  0.85242  0.23911  0.43056  1.0000
  H   H1774     1.0  0.87435  0.21721  0.42718  1.0000
  N   N58       1.0  0.85289  0.23863  0.21737  1.0000
  H   H1775     1.0  0.84098  0.18365  0.25569  1.0000
  H   H1776     1.0  0.68632  0.03308  0.36248  1.0000
  H   H1777     1.0  0.50545  0.17476  0.30854  1.0000
  H   H1778     1.0  0.83462  0.18631  0.29329  1.0000
  C   C1013     1.0  0.70475  0.04742  0.14449  1.0000
  H   H1779     1.0  0.88864  0.24074  0.24271  1.0000
  H   H1780     1.0  0.61888  0.02836  0.13723  1.0000
  C   C1014     1.0  0.83814  0.25288  0.25703  1.0000
  C   C1015     1.0  0.79610  0.06131  0.00697  1.0000
  H   H1781     1.0  0.83497  0.21777  0.27780  1.0000
  C   C1016     1.0  0.85662  0.25189  0.24088  1.0000
  H   H1782     1.0  0.87706  0.23208  0.39376  1.0000
  C   C1017     1.0  0.88575  0.23880  0.30813  1.0000
  H   H1783     1.0  0.87441  0.14883  0.02283  1.0000
  H   H1784     1.0  0.92475  0.22930  0.39083  1.0000
  C   C1018     1.0  0.87410  0.24418  0.43410  1.0000
  H   H1785     1.0  0.92290  0.22908  0.44375  1.0000
  H   H1786     1.0  0.61353  0.01634  0.10495  1.0000
  H   H1787     1.0  0.72253  0.04354  0.25328  1.0000
  C   C1019     1.0  0.87215  0.24000  0.20297  1.0000
  H   H1788     1.0  0.86987  0.23134  0.18422  1.0000
  C   C1020     1.0  0.84248  0.21185  0.26233  1.0000
  H   H1789     1.0  0.84398  0.22407  0.43916  1.0000
  C   C1021     1.0  0.84046  0.21840  0.22936  1.0000
  C   C1022     1.0  0.88524  0.23313  0.22290  1.0000
  S   S230      1.0  0.61662  0.03375  0.47433  1.0000
  C   C1023     1.0  0.76288  0.06828  0.02178  1.0000
  H   H1790     1.0  0.89165  0.11656  0.40084  1.0000
  N   N59       1.0  0.74277  0.06074  0.38965  1.0000
  C   C1024     1.0  0.76040  0.06067  0.37206  1.0000
  C   C1025     1.0  0.74372  0.05512  0.42241  1.0000
  C   C1026     1.0  0.72492  0.04580  0.37982  1.0000
  C   C1027     1.0  0.74041  0.07950  0.38433  1.0000
  C   C1028     1.0  0.75912  0.09774  0.38083  1.0000
  C   C1029     1.0  0.75994  0.06301  0.33773  1.0000
  C   C1030     1.0  0.70541  0.04198  0.39816  1.0000
  C   C1031     1.0  0.76380  0.06301  0.43541  1.0000
  C   C1032     1.0  0.76220  0.05621  0.46865  1.0000
  C   C1033     1.0  0.75424  0.11533  0.37437  1.0000
  C   C1034     1.0  0.78001  0.06733  0.32214  1.0000
  H   H1791     1.0  0.87808  0.21775  0.23010  1.0000
  H   H1792     1.0  0.76256  0.04728  0.37841  1.0000
  H   H1793     1.0  0.77391  0.07179  0.37793  1.0000
  H   H1794     1.0  0.73316  0.05862  0.43632  1.0000
  H   H1795     1.0  0.73905  0.03947  0.42695  1.0000
  C   C1035     1.0  0.83332  0.19038  0.26944  1.0000
  H   H1796     1.0  0.72274  0.04953  0.35622  1.0000
  H   H1797     1.0  0.73283  0.08024  0.36376  1.0000
  H   H1798     1.0  0.73058  0.08077  0.40242  1.0000
  H   H1799     1.0  0.76926  0.09803  0.36199  1.0000
  H   H1800     1.0  0.76691  0.09917  0.40121  1.0000
  H   H1801     1.0  0.74979  0.04968  0.33055  1.0000
  H   H1802     1.0  0.75503  0.07455  0.33006  1.0000
  H   H1803     1.0  0.70246  0.05510  0.39833  1.0000
  H   H1804     1.0  0.70563  0.03624  0.42158  1.0000
  H   H1805     1.0  0.77412  0.05790  0.42445  1.0000
  H   H1806     1.0  0.77013  0.07856  0.43262  1.0000
  H   H1807     1.0  0.68971  0.01793  0.15733  1.0000
  C   C1036     1.0  0.56813  0.01399  0.35127  1.0000
  H   H1808     1.0  0.69494  0.02600  0.28263  1.0000
  H   H1809     1.0  0.74830  0.11564  0.35228  1.0000
  H   H1810     1.0  0.74340  0.11565  0.39165  1.0000
  H   H1811     1.0  0.76763  0.12821  0.37428  1.0000
  H   H1812     1.0  0.79074  0.08070  0.32833  1.0000
  H   H1813     1.0  0.78503  0.05563  0.32839  1.0000
  H   H1814     1.0  0.51526  0.03819  0.34971  1.0000
  H   H1815     1.0  0.88794  0.14329  0.46479  1.0000
  H   H1816     1.0  0.64601  0.01399  0.10266  1.0000
  H   H1817     1.0  0.75004  0.07110  0.02751  1.0000
  H   H1818     1.0  0.73741  0.14830  0.44645  1.0000
  C   C1037     1.0  0.83919  0.23564  0.16523  1.0000
  H   H1819     1.0  0.77935  0.06894  0.29763  1.0000
  H   H1820     1.0  0.73976  0.04160  0.22617  1.0000
  H   H1821     1.0  0.88413  0.19744  0.40507  1.0000
  C   C1038     1.0  0.49067  0.03373  0.22995  1.0000
  H   H1822     1.0  0.75272  0.04537  0.27545  1.0000
  H   H1823     1.0  0.90362  0.20011  0.42868  1.0000
  H   H1824     1.0  0.84335  0.20859  0.21505  1.0000
  H   H1825     1.0  0.75768  0.04061  0.47228  1.0000
  C   C1039     1.0  0.88549  0.12314  0.41720  1.0000
  H   H1826     1.0  0.72685  0.03211  0.38066  1.0000
  S   S231      1.0  0.72734  0.00671  0.13446  1.0000
  H   H1827     1.0  0.89153  0.21321  0.30933  1.0000
  C   C1040     1.0  0.90458  0.23626  0.20581  1.0000
  C   C1041     1.0  0.91669  0.25002  0.46476  1.0000
  H   H1828     1.0  0.83274  0.22007  0.17091  1.0000
  C   C1042     1.0  0.66529  0.02359  0.28430  1.0000
  H   H1829     1.0  0.81102  0.23744  0.15793  1.0000
  C   C1043     1.0  0.84263  0.24575  0.19372  1.0000
  H   H1830     1.0  0.91393  0.23181  0.22090  1.0000
  H   H1831     1.0  0.82472  0.21563  0.22789  1.0000
  H   H1832     1.0  0.49890  0.05044  0.34494  1.0000
  H   H1833     1.0  0.89275  0.24652  0.10886  1.0000
  H   H1834     1.0  0.56084  0.02185  0.17244  1.0000
  H   H1835     1.0  0.85312  0.23961  0.15135  1.0000
  C   C1044     1.0  0.49720  0.15996  0.31857  1.0000
  H   H1836     1.0  0.68129  0.03264  0.17825  1.0000
  H   H1837     1.0  0.60066  0.01926  0.18284  1.0000
  H   H1838     1.0  0.74039  0.01839  0.00013  1.0000
  S   S232      1.0  0.74734  0.00795  0.37862  1.0000
  H   H1839     1.0  0.49009  0.02239  0.31742  1.0000
  H   H1840     1.0  0.73327  0.02388  0.29171  1.0000
  H   H1841     1.0  0.67074  0.01865  0.22781  1.0000
  H   H1842     1.0  0.87477  0.07975  0.01258  1.0000
  H   H1843     1.0  0.58420  0.03815  0.15485  1.0000
  Fe  Fe116     1.0  0.73752  0.00649  0.08695  1.0000
  H   H1844     1.0  0.85541  0.09292  0.48963  1.0000
  C   C1045     1.0  0.57673  0.02811  0.17495  1.0000
  C   C1046     1.0  0.49500  0.04047  0.25742  1.0000
  H   H1845     1.0  0.86492  0.24815  0.25844  1.0000
  H   H1846     1.0  0.72332  0.00818  0.22736  1.0000
  H   H1847     1.0  0.79336  0.09576  0.49216  1.0000
  C   C1047     1.0  0.87360  0.24733  0.31900  1.0000
  C   C1048     1.0  0.58493  0.01262  0.17971  1.0000
  C   C1049     1.0  0.69655  0.00942  0.48374  1.0000
  H   H1848     1.0  0.89805  0.24697  0.29241  1.0000
  H   H1849     1.0  0.84701  0.24802  0.44339  1.0000
  C   C1050     1.0  0.67725  0.00798  0.48457  1.0000
  H   H1850     1.0  0.49716  0.03545  0.37936  1.0000
  H   H1851     1.0  0.91464  0.14860  0.49278  1.0000
  H   H1852     1.0  0.91711  0.12653  0.49190  1.0000
  Fe  Fe117     1.0  0.77541  0.00436  0.38591  1.0000
  H   H1853     1.0  0.77702  0.09493  0.99370  1.0000
  Fe  Fe118     1.0  0.81415  0.16051  0.92777  1.0000
  S   S233      1.0  0.82041  0.16173  0.87849  1.0000
  S   S234      1.0  0.81101  0.18646  0.94368  1.0000
  Fe  Fe119     1.0  0.81440  0.12093  0.94112  1.0000
  S   S235      1.0  0.82137  0.12028  0.89268  1.0000
  H   H1854     1.0  0.91322  0.12864  0.91637  1.0000
  Fe  Fe120     1.0  0.84276  0.15005  0.89185  1.0000
  S   S236      1.0  0.87216  0.16112  0.86488  1.0000
  Fe  Fe121     1.0  0.79826  0.13191  0.88352  1.0000
  S   S237      1.0  0.77880  0.11714  0.84811  1.0000
  S   S238      1.0  0.83761  0.15013  0.94090  1.0000
  S   S239      1.0  0.79022  0.13127  0.93224  1.0000
  H   H1855     1.0  0.92788  0.23477  0.49771  1.0000
  Fe  Fe122     1.0  0.63549  0.05457  0.50292  1.0000
  H   H1856     1.0  0.74519  0.15283  0.91992  1.0000
  H   H1857     1.0  0.61753  0.10162  0.56941  1.0000
  S   S240      1.0  0.95345  0.20392  0.91587  1.0000
  H   H1858     1.0  0.75681  0.08973  0.50523  1.0000
  S   S241      1.0  0.95409  0.19990  0.53741  1.0000
  C   C1051     1.0  0.73046  0.12098  0.54863  1.0000
  Fe  Fe123     1.0  0.66515  0.04633  0.75040  1.0000
  S   S242      1.0  0.65444  0.06094  0.78328  1.0000
  C   C1052     1.0  0.71282  0.13417  0.62983  1.0000
  Fe  Fe124     1.0  0.67207  0.07692  0.69935  1.0000
  S   S243      1.0  0.66258  0.09471  0.72831  1.0000
  S   S244      1.0  0.68213  0.08382  0.64992  1.0000
  Fe  Fe125     1.0  0.68008  0.08684  0.76349  1.0000
  S   S245      1.0  0.69710  0.10720  0.79558  1.0000
  Fe  Fe126     1.0  0.63784  0.06743  0.74607  1.0000
  S   S246      1.0  0.60681  0.06641  0.75303  1.0000
  S   S247      1.0  0.69172  0.07153  0.73276  1.0000
  S   S248      1.0  0.64645  0.05050  0.71480  1.0000
  S   S249      1.0  0.62390  0.05506  0.55005  1.0000
  C   C1053     1.0  0.66588  0.07440  0.62274  1.0000
  C   C1054     1.0  0.67304  0.07753  0.59272  1.0000
  C   C1055     1.0  0.66040  0.07120  0.57030  1.0000
  C   C1056     1.0  0.64039  0.06196  0.57772  1.0000
  C   C1057     1.0  0.63320  0.05878  0.60774  1.0000
  C   C1058     1.0  0.64590  0.06484  0.63018  1.0000
  H   H1859     1.0  0.68836  0.08516  0.58667  1.0000
  H   H1860     1.0  0.66607  0.07389  0.54720  1.0000
  H   H1861     1.0  0.61771  0.05183  0.61357  1.0000
  H   H1862     1.0  0.64017  0.06249  0.65312  1.0000
  H   H1863     1.0  0.75712  0.09956  0.90855  1.0000
  H   H1864     1.0  0.73693  0.03737  0.90104  1.0000
  S   S250      1.0  0.86833  0.18535  0.49715  1.0000
  H   H1865     1.0  0.63847  0.00903  0.55919  1.0000
  H   H1866     1.0  0.54327  0.03493  0.81320  1.0000
  C   C1059     1.0  0.58776  0.02976  0.74071  1.0000
  C   C1060     1.0  0.58607  0.04645  0.74741  1.0000
  C   C1061     1.0  0.56745  0.04726  0.74982  1.0000
  C   C1062     1.0  0.50221  0.03146  0.80954  1.0000
  S   S251      1.0  0.96254  0.23212  0.60655  1.0000
  H   H1867     1.0  0.60197  0.02898  0.73870  1.0000
  H   H1868     1.0  0.56605  0.06023  0.75456  1.0000
  H   H1869     1.0  0.90389  0.23426  0.50797  1.0000
  C   C1063     1.0  0.93023  0.19621  0.52655  1.0000
  N   N60       1.0  0.75006  0.06066  0.92693  1.0000
  C   C1064     1.0  0.87440  0.12276  0.92471  1.0000
  H   H1870     1.0  0.63331  0.01972  0.60721  1.0000
  C   C1065     1.0  0.89802  0.19731  0.53417  1.0000
  C   C1066     1.0  0.91691  0.20095  0.54336  1.0000
  H   H1871     1.0  0.55228  0.03600  0.62612  1.0000
  H   H1872     1.0  0.88788  0.20106  0.54742  1.0000
  H   H1873     1.0  0.92112  0.20732  0.56356  1.0000
  H   H1874     1.0  0.53219  0.01047  0.84830  1.0000
  C   C1067     1.0  0.62226  0.01512  0.66899  1.0000
  H   H1875     1.0  0.75473  0.18701  0.90232  1.0000
  C   C1068     1.0  0.75566  0.11414  0.83488  1.0000
  C   C1069     1.0  0.74330  0.12204  0.84708  1.0000
  C   C1070     1.0  0.72540  0.11966  0.83495  1.0000
  C   C1071     1.0  0.71940  0.10902  0.81097  1.0000
  C   C1072     1.0  0.73153  0.10071  0.79937  1.0000
  C   C1073     1.0  0.74957  0.10338  0.81111  1.0000
  H   H1876     1.0  0.74762  0.13016  0.86556  1.0000
  H   H1877     1.0  0.71611  0.12612  0.84417  1.0000
  H   H1878     1.0  0.72720  0.09252  0.78093  1.0000
  H   H1879     1.0  0.75895  0.09713  0.80155  1.0000
  C   C1074     1.0  0.89442  0.17495  0.87843  1.0000
  C   C1075     1.0  0.91173  0.18090  0.85976  1.0000
  C   C1076     1.0  0.92988  0.19073  0.87043  1.0000
  C   C1077     1.0  0.93089  0.19435  0.90011  1.0000
  C   C1078     1.0  0.91353  0.18893  0.91851  1.0000
  C   C1079     1.0  0.89534  0.17960  0.90757  1.0000
  H   H1880     1.0  0.91114  0.17752  0.83708  1.0000
  H   H1881     1.0  0.94312  0.19477  0.85605  1.0000
  H   H1882     1.0  0.91417  0.19183  0.94144  1.0000
  H   H1883     1.0  0.88209  0.17561  0.92187  1.0000
  C   C1080     1.0  0.83258  0.20671  0.94439  1.0000
  C   C1081     1.0  0.83159  0.22444  0.94696  1.0000
  C   C1082     1.0  0.84875  0.24074  0.94663  1.0000
  C   C1083     1.0  0.86699  0.23932  0.94416  1.0000
  C   C1084     1.0  0.86781  0.22147  0.94256  1.0000
  C   C1085     1.0  0.85079  0.20535  0.94227  1.0000
  C   C1086     1.0  0.62859  0.00553  0.75499  1.0000
  C   C1087     1.0  0.74265  0.09130  0.92035  1.0000
  H   H1884     1.0  0.88171  0.21998  0.94173  1.0000
  H   H1885     1.0  0.85181  0.19182  0.94068  1.0000
  H   H1886     1.0  0.96285  0.21203  0.74906  1.0000
  H   H1887     1.0  0.65453  0.17278  0.67405  1.0000
  H   H1888     1.0  0.81140  0.07942  0.90463  1.0000
  H   H1889     1.0  0.89552  0.11090  0.98580  1.0000
  C   C1088     1.0  0.76083  0.22988  0.85384  1.0000
  H   H1890     1.0  0.91351  0.12086  0.54805  1.0000
  C   C1089     1.0  0.74274  0.07405  0.94101  1.0000
  C   C1090     1.0  0.72899  0.03461  0.96916  1.0000
  C   C1091     1.0  0.86578  0.12975  0.98875  1.0000
  H   H1891     1.0  0.65184  0.18063  0.63598  1.0000
  H   H1892     1.0  0.51246  0.06239  0.79778  1.0000
  C   C1092     1.0  0.90845  0.23613  0.87846  1.0000
  H   H1893     1.0  0.75983  0.12495  0.53704  1.0000
  C   C1093     1.0  0.54343  0.04858  0.81917  1.0000
  H   H1894     1.0  0.53967  0.01206  0.67400  1.0000
  C   C1094     1.0  0.77124  0.07106  0.91602  1.0000
  H   H1895     1.0  0.72210  0.05003  0.90854  1.0000
  H   H1896     1.0  0.62939  0.01934  0.75933  1.0000
  S   S252      1.0  0.98546  0.24085  0.84596  1.0000
  H   H1897     1.0  0.82897  0.21442  0.83551  1.0000
  C   C1095     1.0  0.80521  0.20533  0.87092  1.0000
  H   H1898     1.0  0.79029  0.23346  0.86050  1.0000
  C   C1096     1.0  0.78477  0.16773  0.78609  1.0000
  H   H1899     1.0  0.67006  0.04942  0.85827  1.0000
  H   H1900     1.0  0.78052  0.21210  0.82268  1.0000
  C   C1097     1.0  0.66674  0.03537  0.85053  1.0000
  C   C1098     1.0  0.94863  0.24351  0.79750  1.0000
  H   H1901     1.0  0.71982  0.14504  0.61046  1.0000
  H   H1902     1.0  0.81220  0.19590  0.88101  1.0000
  C   C1099     1.0  0.87810  0.13334  0.52423  1.0000
  H   H1903     1.0  0.60734  0.01326  0.84905  1.0000
  S   S253      1.0  0.66017  0.04499  0.49825  1.0000
  H   H1904     1.0  0.66878  0.16016  0.62056  1.0000
  H   H1905     1.0  0.78488  0.05052  0.92649  1.0000
  H   H1906     1.0  0.67230  0.03760  0.82673  1.0000
  H   H1907     1.0  0.72111  0.14462  0.54289  1.0000
  H   H1908     1.0  0.75293  0.03414  0.94133  1.0000
  H   H1909     1.0  0.53283  0.04217  0.86600  1.0000
  H   H1910     1.0  0.72218  0.08274  0.51622  1.0000
  C   C1100     1.0  0.70179  0.04579  0.54601  1.0000
  C   C1101     1.0  0.88962  0.10824  0.96371  1.0000
  H   H1911     1.0  0.51488  0.01287  0.64999  1.0000
  H   H1912     1.0  0.71684  0.03141  0.95450  1.0000
  H   H1913     1.0  0.94475  0.14601  0.55592  1.0000
  H   H1914     1.0  0.86469  0.09888  0.86131  1.0000
  H   H1915     1.0  0.51279  0.02792  0.79590  1.0000
  H   H1916     1.0  0.60321  0.08200  0.68107  1.0000
  S   S254      1.0  0.66731  0.01820  0.76208  1.0000
  C   C1102     1.0  0.93309  0.24612  0.81772  1.0000
  C   C1103     1.0  0.89217  0.18897  0.50803  1.0000
  H   H1917     1.0  0.62779  0.01573  0.69142  1.0000
  H   H1918     1.0  0.57555  0.01378  0.83157  1.0000
  N   N61       1.0  0.74436  0.09457  0.54622  1.0000
  H   H1919     1.0  0.78345  0.16845  0.88562  1.0000
  H   H1920     1.0  0.88325  0.20409  0.85268  1.0000
  H   H1921     1.0  0.59246  0.00893  0.68530  1.0000
  C   C1104     1.0  0.74803  0.09354  0.57887  1.0000
  C   C1105     1.0  0.73008  0.08761  0.60191  1.0000
  H   H1922     1.0  0.56669  0.02135  0.58891  1.0000
  C   C1106     1.0  0.56166  0.03221  0.64186  1.0000
  H   H1923     1.0  0.75990  0.05073  0.96739  1.0000
  H   H1924     1.0  0.74693  0.07772  0.86960  1.0000
  C   C1107     1.0  0.73633  0.08986  0.63354  1.0000
  H   H1925     1.0  0.95355  0.24170  0.90371  1.0000
  C   C1108     1.0  0.74345  0.06241  0.87049  1.0000
  H   H1926     1.0  0.86150  0.06680  0.54074  1.0000
  H   H1927     1.0  0.92533  0.15818  0.96007  1.0000
  H   H1928     1.0  0.69267  0.04831  0.56384  1.0000
  H   H1929     1.0  0.78307  0.11870  0.51480  1.0000
  C   C1109     1.0  0.82122  0.22094  0.84956  1.0000
  H   H1930     1.0  0.72202  0.09728  0.94930  1.0000
  H   H1931     1.0  0.75509  0.08328  0.58453  1.0000
  H   H1932     1.0  0.75871  0.10739  0.58372  1.0000
  H   H1933     1.0  0.72057  0.07258  0.60162  1.0000
  H   H1934     1.0  0.72109  0.09606  0.59748  1.0000
  C   C1110     1.0  0.73692  0.10462  0.93811  1.0000
  H   H1935     1.0  0.70615  0.01731  0.49924  1.0000
  H   H1936     1.0  0.74587  0.21894  0.85807  1.0000
  H   H1937     1.0  0.76500  0.17634  0.81127  1.0000
  C   C1111     1.0  0.78204  0.05842  0.90647  1.0000
  H   H1938     1.0  0.73412  0.12407  0.57157  1.0000
  H   H1939     1.0  0.94823  0.14013  0.92415  1.0000
  Fe  Fe127     1.0  0.98226  0.22406  0.63706  1.0000
  H   H1940     1.0  0.92912  0.23040  0.92099  1.0000
  H   H1941     1.0  0.74508  0.08124  0.63951  1.0000
  H   H1942     1.0  0.74497  0.10491  0.63564  1.0000
  H   H1943     1.0  0.72324  0.08499  0.64961  1.0000
  H   H1944     1.0  0.86296  0.21144  0.85298  1.0000
  H   H1945     1.0  0.74732  0.10991  0.95517  1.0000
  H   H1946     1.0  0.80007  0.07887  0.86973  1.0000
  H   H1947     1.0  0.69107  0.02225  0.67253  1.0000
  H   H1948     1.0  0.72320  0.03914  0.84984  1.0000
  H   H1949     1.0  0.75137  0.07935  0.96006  1.0000
  H   H1950     1.0  0.85783  0.09433  0.97755  1.0000
  H   H1951     1.0  0.53646  0.03223  0.74758  1.0000
  H   H1952     1.0  0.63344  0.02619  0.65346  1.0000
  C   C1112     1.0  0.72502  0.08017  0.53996  1.0000
  C   C1113     1.0  0.52767  0.04617  0.84457  1.0000
  H   H1953     1.0  0.83461  0.14037  0.53667  1.0000
  H   H1954     1.0  0.80157  0.19808  0.81266  1.0000
  H   H1955     1.0  0.65704  0.01561  0.66252  1.0000
  C   C1114     1.0  0.89056  0.23335  0.86001  1.0000
  C   C1115     1.0  0.87651  0.21272  0.86366  1.0000
  C   C1116     1.0  0.63230  0.10757  0.55754  1.0000
  H   H1956     1.0  0.49072  0.06509  0.89677  1.0000
  H   H1957     1.0  0.81497  0.22911  0.83454  1.0000
  H   H1958     1.0  0.75042  0.16723  0.95004  1.0000
  H   H1959     1.0  0.72684  0.04347  0.98589  1.0000
  H   H1960     1.0  0.91235  0.22348  0.87812  1.0000
  C   C1117     1.0  0.74898  0.04511  0.95104  1.0000
  H   H1961     1.0  0.73172  0.08661  0.90384  1.0000
  H   H1962     1.0  0.73234  0.06158  0.82679  1.0000
  H   H1963     1.0  0.57699  0.04390  0.67992  1.0000
  H   H1964     1.0  0.65543  0.03250  0.56209  1.0000
  C   C1118     1.0  0.76006  0.09078  0.52889  1.0000
  H   H1965     1.0  0.52796  0.06065  0.84613  1.0000
  H   H1966     1.0  0.80397  0.17968  0.83692  1.0000
  H   H1967     1.0  0.78486  0.10854  0.55177  1.0000
  H   H1968     1.0  0.79018  0.18071  0.76981  1.0000
  N   N62       1.0  0.50719  0.03253  0.84152  1.0000
  H   H1969     1.0  0.55375  0.04621  0.67701  1.0000
  H   H1970     1.0  0.81084  0.10839  0.51656  1.0000
  H   H1971     1.0  0.87267  0.20701  0.88752  1.0000
  C   C1119     1.0  0.84846  0.13924  0.54300  1.0000
  H   H1972     1.0  0.65837  0.02442  0.61474  1.0000
  H   H1973     1.0  0.89993  0.10345  0.95157  1.0000
  H   H1974     1.0  0.64315  0.00832  0.81689  1.0000
  H   H1975     1.0  0.59937  0.02137  0.64784  1.0000
  C   C1120     1.0  0.77489  0.17723  0.87905  1.0000
  H   H1976     1.0  0.89121  0.09782  0.50156  1.0000
  N   N63       1.0  0.92632  0.25408  0.87033  1.0000
  C   C1121     1.0  0.72726  0.05457  0.84990  1.0000
  H   H1977     1.0  0.76196  0.16786  0.86897  1.0000
  H   H1978     1.0  0.84523  0.12855  0.56287  1.0000
  H   H1979     1.0  0.77943  0.07896  0.93377  1.0000
  H   H1980     1.0  0.74387  0.11473  0.50985  1.0000
  H   H1981     1.0  0.85749  0.06269  0.99277  1.0000
  H   H1982     1.0  0.76795  0.15812  0.93713  1.0000
  C   C1122     1.0  0.55249  0.01479  0.73923  1.0000
  H   H1983     1.0  0.57448  0.06109  0.65207  1.0000
  C   C1123     1.0  0.64788  0.11192  0.57978  1.0000
  H   H1984     1.0  0.92600  0.13501  0.96921  1.0000
  C   C1124     1.0  0.86113  0.10590  0.87971  1.0000
  H   H1985     1.0  0.85708  0.11756  0.86970  1.0000
  H   H1986     1.0  0.77314  0.08216  0.89720  1.0000
  C   C1125     1.0  0.80176  0.07013  0.88970  1.0000
  H   H1987     1.0  0.88388  0.10223  0.90437  1.0000
  H   H1988     1.0  0.77748  0.19210  0.91921  1.0000
  H   H1989     1.0  0.71534  0.11061  0.54921  1.0000
  H   H1990     1.0  0.71280  0.08160  0.55290  1.0000
  H   H1991     1.0  0.80171  0.21188  0.88995  1.0000
  C   C1126     1.0  0.87885  0.11378  0.89743  1.0000
  H   H1992     1.0  0.80876  0.06063  0.88235  1.0000
  H   H1993     1.0  0.89052  0.12468  0.88201  1.0000
  N   N64       1.0  0.78711  0.19392  0.85686  1.0000
  C   C1127     1.0  0.90900  0.13748  0.93113  1.0000
  C   C1128     1.0  0.75688  0.16380  0.92996  1.0000
  C   C1129     1.0  0.55135  0.01197  0.65804  1.0000
  H   H1994     1.0  0.87687  0.12670  0.54763  1.0000
  H   H1995     1.0  0.79669  0.16250  0.78971  1.0000
  H   H1996     1.0  0.88737  0.14853  0.52443  1.0000
  C   C1130     1.0  0.94032  0.25078  0.84867  1.0000
  H   H1997     1.0  0.77144  0.15791  0.83010  1.0000
  H   H1998     1.0  0.69713  0.14964  0.64717  1.0000
  C   C1131     1.0  0.86036  0.09084  0.51197  1.0000
  H   H1999     1.0  0.77274  0.21728  0.88819  1.0000
  Fe  Fe128     1.0  0.97196  0.21716  0.57250  1.0000
  H   H2000     1.0  0.94629  0.16257  0.91284  1.0000
  H   H2001     1.0  0.90846  0.14958  0.91597  1.0000
  C   C1132     1.0  0.73113  0.13933  0.53127  1.0000
  S   S255      1.0  0.97179  0.21515  0.68608  1.0000
  H   H2002     1.0  0.87317  0.13627  0.91584  1.0000
  H   H2003     1.0  0.67445  0.02783  0.86386  1.0000
  C   C1133     1.0  0.72791  0.01600  0.98618  1.0000
  C   C1134     1.0  0.78117  0.10536  0.52888  1.0000
  H   H2004     1.0  0.70076  0.03096  0.55008  1.0000
  N   N65       1.0  0.65856  0.12970  0.62571  1.0000
  C   C1135     1.0  0.64762  0.12789  0.59800  1.0000
  C   C1136     1.0  0.66030  0.14792  0.63745  1.0000
  C   C1137     1.0  0.67892  0.13111  0.61657  1.0000
  C   C1138     1.0  0.64929  0.11311  0.64966  1.0000
  C   C1139     1.0  0.62679  0.10285  0.65151  1.0000
  H   H2005     1.0  0.84324  0.22687  0.88166  1.0000
  C   C1140     1.0  0.69356  0.13520  0.64098  1.0000
  C   C1141     1.0  0.64105  0.15001  0.64709  1.0000
  C   C1142     1.0  0.64492  0.16980  0.65544  1.0000
  C   C1143     1.0  0.61919  0.08971  0.68065  1.0000
  C   C1144     1.0  0.76630  0.18163  0.90777  1.0000
  H   H2006     1.0  0.56206  0.00939  0.67237  1.0000
  C   C1145     1.0  0.98701  0.22181  0.71554  1.0000
  H   H2007     1.0  0.63221  0.12581  0.60321  1.0000
  H   H2008     1.0  0.66852  0.14977  0.65766  1.0000
  H   H2009     1.0  0.90273  0.23538  0.90179  1.0000
  H   H2010     1.0  0.67189  0.01441  0.50112  1.0000
  H   H2011     1.0  0.67847  0.11764  0.60888  1.0000
  H   H2012     1.0  0.65509  0.10194  0.64695  1.0000
  H   H2013     1.0  0.65353  0.11745  0.67195  1.0000
  H   H2014     1.0  0.62248  0.09409  0.63297  1.0000
  H   H2015     1.0  0.61915  0.11274  0.65010  1.0000
  H   H2016     1.0  0.68550  0.14224  0.59723  1.0000
  H   H2017     1.0  0.64547  0.09882  0.59464  1.0000
  H   H2018     1.0  0.68757  0.12485  0.66126  1.0000
  C   C1146     1.0  0.65108  0.01742  0.57099  1.0000
  H   H2019     1.0  0.88481  0.10150  0.53763  1.0000
  H   H2020     1.0  0.63378  0.13991  0.66719  1.0000
  H   H2021     1.0  0.94618  0.24078  0.69195  1.0000
  C   C1147     1.0  0.49300  0.03901  0.85757  1.0000
  H   H2022     1.0  0.50665  0.01294  0.87985  1.0000
  H   H2023     1.0  0.85981  0.14402  0.49731  1.0000
  H   H2024     1.0  0.95196  0.23125  0.80696  1.0000
  H   H2025     1.0  0.77329  0.04802  0.89216  1.0000
  H   H2026     1.0  0.76037  0.07686  0.53764  1.0000
  H   H2027     1.0  0.51429  0.04900  0.75019  1.0000
  C   C1148     1.0  0.60424  0.02002  0.67047  1.0000
  H   H2028     1.0  0.61017  0.00678  0.81301  1.0000
  H   H2029     1.0  0.58813  0.01512  0.55216  1.0000
  H   H2030     1.0  0.72743  0.06662  0.95055  1.0000
  H   H2031     1.0  0.50849  0.04347  0.89867  1.0000
  H   H2032     1.0  0.77282  0.15666  0.77662  1.0000
  H   H2033     1.0  0.72864  0.05625  0.56705  1.0000
  H   H2034     1.0  0.86577  0.06609  0.50122  1.0000
  C   C1149     1.0  0.79351  0.18634  0.83047  1.0000
  H   H2035     1.0  0.98344  0.21969  0.79155  1.0000
  H   H2036     1.0  0.63101  0.14769  0.62913  1.0000
  C   C1150     1.0  0.77714  0.17159  0.81557  1.0000
  Fe  Fe129     1.0  0.98201  0.22405  0.89071  1.0000
  C   C1151     1.0  0.73747  0.05192  0.90266  1.0000
  H   H2037     1.0  0.75997  0.19593  0.84502  1.0000
  C   C1152     1.0  0.72296  0.05924  0.54565  1.0000
  H   H2038     1.0  0.65375  0.14131  0.58255  1.0000
  C   C1153     1.0  0.77545  0.20540  0.84605  1.0000
  H   H2039     1.0  0.84862  0.09539  0.89416  1.0000
  C   C1154     1.0  0.77579  0.22176  0.86396  1.0000
  C   C1155     1.0  0.91733  0.13511  0.53569  1.0000
  H   H2040     1.0  0.75660  0.06069  0.86101  1.0000
  H   H2041     1.0  0.89460  0.23766  0.83588  1.0000
  C   C1156     1.0  0.56384  0.05978  0.82787  1.0000
  C   C1157     1.0  0.55068  0.03145  0.74589  1.0000
  H   H2042     1.0  0.76170  0.24180  0.86649  1.0000
  H   H2043     1.0  0.63398  0.12050  0.54253  1.0000
  H   H2044     1.0  0.57548  0.03359  0.62977  1.0000
  C   C1158     1.0  0.74539  0.11400  0.53426  1.0000
  C   C1159     1.0  0.85792  0.13352  0.51704  1.0000
  H   H2045     1.0  0.62218  0.09793  0.69998  1.0000
  H   H2046     1.0  0.85818  0.15322  0.54874  1.0000
  C   C1160     1.0  0.97852  0.21839  0.74490  1.0000
  H   H2047     1.0  0.56505  0.07402  0.83284  1.0000
  H   H2048     1.0  0.85954  0.11390  0.93480  1.0000
  H   H2049     1.0  0.81755  0.22562  0.94884  1.0000
  H   H2050     1.0  0.50304  0.01666  0.60009  1.0000
  H   H2051     1.0  0.56730  0.05220  0.84764  1.0000
  C   C1161     1.0  0.50399  0.01292  0.85586  1.0000
  H   H2052     1.0  0.91146  0.14339  0.54919  1.0000
  H   H2053     1.0  0.66221  0.11617  0.56688  1.0000
  H   H2054     1.0  0.57479  0.06157  0.80920  1.0000
  H   H2055     1.0  0.86306  0.15682  0.99258  1.0000
  H   H2056     1.0  0.94392  0.23863  0.85804  1.0000
  H   H2057     1.0  0.62613  0.07917  0.68313  1.0000
  H   H2058     1.0  0.85099  0.09368  0.52898  1.0000
  H   H2059     1.0  0.73711  0.11690  0.92279  1.0000
  H   H2060     1.0  0.54103  0.05642  0.79876  1.0000
  H   H2061     1.0  0.86582  0.08512  0.94732  1.0000
  C   C1162     1.0  0.56701  0.04668  0.66415  1.0000
  H   H2062     1.0  0.69617  0.04780  0.52410  1.0000
  C   C1163     1.0  0.85721  0.06997  0.51823  1.0000
  H   H2063     1.0  0.49797  0.06143  0.74898  1.0000
  H   H2064     1.0  0.63095  0.17085  0.66275  1.0000
  C   C1164     1.0  0.49337  0.03813  0.89195  1.0000
  N   N66       1.0  0.88925  0.12629  0.94754  1.0000
  C   C1165     1.0  0.93949  0.14490  0.53328  1.0000
  H   H2065     1.0  0.76372  0.23525  0.82973  1.0000
  H   H2066     1.0  0.71424  0.05741  0.85703  1.0000
  C   C1166     1.0  0.94576  0.15229  0.93226  1.0000
  C   C1167     1.0  0.68666  0.00700  0.68059  1.0000
  H   H2067     1.0  0.88628  0.15206  0.95720  1.0000
  H   H2068     1.0  0.73121  0.05594  0.52749  1.0000
  H   H2069     1.0  0.88260  0.24198  0.86784  1.0000
  S   S256      1.0  0.81432  0.09484  0.97033  1.0000
  H   H2070     1.0  0.63986  0.02198  0.87821  1.0000
  H   H2071     1.0  0.84770  0.11972  0.51186  1.0000
  C   C1168     1.0  0.92618  0.14566  0.95066  1.0000
  H   H2072     1.0  0.63790  0.03297  0.84200  1.0000
  C   C1169     1.0  0.64476  0.02413  0.85419  1.0000
  H   H2073     1.0  0.94326  0.24072  0.77521  1.0000
  N   N67       1.0  0.88764  0.12438  0.50353  1.0000
  C   C1170     1.0  0.83640  0.23461  0.86684  1.0000
  H   H2074     1.0  0.59669  0.01415  0.58864  1.0000
  C   C1171     1.0  0.88192  0.10363  0.51392  1.0000
  H   H2075     1.0  0.66347  0.01309  0.56632  1.0000
  C   C1172     1.0  0.91851  0.24316  0.49691  1.0000
  H   H2076     1.0  0.74608  0.15034  0.52939  1.0000
  H   H2077     1.0  0.82962  0.24208  0.88062  1.0000
  C   C1173     1.0  0.92436  0.18784  0.50041  1.0000
  C   C1174     1.0  0.57104  0.01407  0.73661  1.0000
  C   C1175     1.0  0.87000  0.09087  0.96866  1.0000
  H   H2078     1.0  0.71046  0.12003  0.62318  1.0000
  C   C1176     1.0  0.79583  0.09796  0.51580  1.0000
  H   H2079     1.0  0.72283  0.13671  0.64792  1.0000
  H   H2080     1.0  0.60770  0.03373  0.67944  1.0000
  H   H2081     1.0  0.63377  0.09696  0.54366  1.0000
  H   H2082     1.0  0.94414  0.15942  0.52141  1.0000
  H   H2083     1.0  0.79469  0.08447  0.52863  1.0000
  C   C1177     1.0  0.88533  0.13839  0.96930  1.0000
  C   C1178     1.0  0.64563  0.01501  0.60443  1.0000
  H   H2084     1.0  0.85325  0.12476  0.97509  1.0000
  H   H2085     1.0  0.53429  0.01197  0.60373  1.0000
  C   C1179     1.0  0.90946  0.13389  0.50430  1.0000
  H   H2086     1.0  0.95770  0.15941  0.94618  1.0000
  H   H2087     1.0  0.89660  0.14201  0.98554  1.0000
  H   H2088     1.0  0.72641  0.13685  0.50855  1.0000
  H   H2089     1.0  0.88314  0.07049  0.98181  1.0000
  H   H2090     1.0  0.84156  0.06118  0.51719  1.0000
  H   H2091     1.0  0.94640  0.13677  0.52125  1.0000
  H   H2092     1.0  0.92029  0.23261  0.82007  1.0000
  C   C1180     1.0  0.94171  0.24401  0.91629  1.0000
  H   H2093     1.0  0.95294  0.23877  0.95829  1.0000
  C   C1181     1.0  0.50037  0.04939  0.79335  1.0000
  C   C1182     1.0  0.94892  0.24995  0.94626  1.0000
  H   H2094     1.0  0.96201  0.24812  0.51237  1.0000
  H   H2095     1.0  0.49548  0.05386  0.84894  1.0000
  C   C1183     1.0  0.50023  0.04887  0.75970  1.0000
  H   H2096     1.0  0.84798  0.24528  0.85109  1.0000
  H   H2097     1.0  0.93734  0.25195  0.96014  1.0000
  H   H2098     1.0  0.72803  0.00581  0.97049  1.0000
  C   C1184     1.0  0.58470  0.00703  0.57479  1.0000
  C   C1185     1.0  0.87155  0.07502  0.99029  1.0000
  H   H2099     1.0  0.68210  0.00465  0.70483  1.0000
  C   C1186     1.0  0.56531  0.00659  0.58827  1.0000
  C   C1187     1.0  0.63950  0.00500  0.84140  1.0000
  Fe  Fe130     1.0  0.97428  0.47124  0.22264  1.0000
  S   S257      1.0  0.94922  0.44686  0.20803  1.0000
  H   H2100     1.0  0.95421  0.49619  0.31246  1.0000
  Fe  Fe131     1.0  0.91723  0.33396  0.24583  1.0000
  S   S258      1.0  0.93034  0.32849  0.20376  1.0000
  S   S259      1.0  0.92548  0.36175  0.26559  1.0000
  Fe  Fe132     1.0  0.89800  0.29137  0.26939  1.0000
  S   S260      1.0  0.91025  0.28318  0.22949  1.0000
  S   S261      1.0  0.87751  0.27132  0.30772  1.0000
  Fe  Fe133     1.0  0.93777  0.30765  0.23380  1.0000
  S   S262      1.0  0.96718  0.30654  0.22385  1.0000
  Fe  Fe134     1.0  0.90163  0.30453  0.20242  1.0000
  S   S263      1.0  0.88665  0.29188  0.16239  1.0000
  S   S264      1.0  0.92641  0.31427  0.27597  1.0000
  S   S265      1.0  0.88758  0.31148  0.24233  1.0000
  S   S266      1.0  0.89506  0.33266  0.03029  1.0000
  S   S267      1.0  0.53615  0.47788  0.20475  1.0000
  H   H2101     1.0  0.96236  0.35011  0.30530  1.0000
  H   H2102     1.0  0.91288  0.26747  0.41603  1.0000
  H   H2103     1.0  0.50832  0.49341  0.36689  1.0000
  H   H2104     1.0  0.63746  0.48945  0.06362  1.0000
  H   H2105     1.0  0.98080  0.29168  0.02364  1.0000
  C   C1188     1.0  0.95522  0.33382  0.06342  1.0000
  C   C1189     1.0  0.92856  0.45186  0.30290  1.0000
  H   H2106     1.0  0.93081  0.26044  0.40017  1.0000
  C   C1190     1.0  0.50755  0.48534  0.34762  1.0000
  C   C1191     1.0  0.55095  0.46200  0.32156  1.0000
  H   H2107     1.0  0.62466  0.48980  0.10769  1.0000
  H   H2108     1.0  0.91177  0.27805  0.08370  1.0000
  H   H2109     1.0  0.93118  0.26053  0.45555  1.0000
  H   H2110     1.0  0.52823  0.49755  0.11111  1.0000
  H   H2111     1.0  0.50795  0.42678  0.30809  1.0000
  C   C1192     1.0  0.88997  0.30370  0.12580  1.0000
  C   C1193     1.0  0.89763  0.32339  0.11990  1.0000
  C   C1194     1.0  0.89917  0.33213  0.09050  1.0000
  C   C1195     1.0  0.89385  0.32128  0.06669  1.0000
  C   C1196     1.0  0.88668  0.30161  0.07258  1.0000
  C   C1197     1.0  0.88430  0.29289  0.10207  1.0000
  H   H2112     1.0  0.90178  0.33188  0.13802  1.0000
  H   H2113     1.0  0.90448  0.34736  0.08617  1.0000
  H   H2114     1.0  0.88219  0.29312  0.05451  1.0000
  H   H2115     1.0  0.87786  0.27767  0.10645  1.0000
  H   H2116     1.0  0.96879  0.37202  0.24893  1.0000
  C   C1198     1.0  0.96516  0.28237  0.02731  1.0000
  H   H2117     1.0  0.86363  0.44275  0.35818  1.0000
  H   H2118     1.0  0.83588  0.27484  0.22433  1.0000
  H   H2119     1.0  0.96074  0.31006  0.28615  1.0000
  H   H2120     1.0  0.51919  0.45368  0.26767  1.0000
  C   C1199     1.0  0.94455  0.42328  0.22285  1.0000
  C   C1200     1.0  0.94826  0.41898  0.25210  1.0000
  C   C1201     1.0  0.94245  0.40005  0.26467  1.0000
  C   C1202     1.0  0.93339  0.38521  0.24786  1.0000
  C   C1203     1.0  0.93028  0.38947  0.21820  1.0000
  C   C1204     1.0  0.93561  0.40846  0.20588  1.0000
  H   H2121     1.0  0.95524  0.43027  0.26522  1.0000
  H   H2122     1.0  0.94495  0.39688  0.28761  1.0000
  H   H2123     1.0  0.92319  0.37816  0.20509  1.0000
  H   H2124     1.0  0.93256  0.41168  0.18327  1.0000
  H   H2125     1.0  0.58091  0.47425  0.07108  1.0000
  H   H2126     1.0  0.50188  0.45133  0.32590  1.0000
  H   H2127     1.0  0.87032  0.44451  0.29002  1.0000
  H   H2128     1.0  0.89059  0.43126  0.32739  1.0000
  H   H2129     1.0  0.95558  0.32107  0.13124  1.0000
  H   H2130     1.0  0.92616  0.29196  0.13109  1.0000
  H   H2131     1.0  0.86650  0.26641  0.23122  1.0000
  H   H2132     1.0  0.57499  0.49842  0.17840  1.0000
  H   H2133     1.0  0.91807  0.29314  0.37511  1.0000
  N   N68       1.0  0.90961  0.45181  0.29194  1.0000
  H   H2134     1.0  0.51480  0.40670  0.40253  1.0000
  H   H2135     1.0  0.51384  0.49556  0.32727  1.0000
  C   C1205     1.0  0.51882  0.47241  0.35290  1.0000
  H   H2136     1.0  0.96075  0.34427  0.07948  1.0000
  H   H2137     1.0  0.93977  0.45559  0.28390  1.0000
  H   H2138     1.0  0.87820  0.39183  0.25785  1.0000
  H   H2139     1.0  0.88160  0.25943  0.42632  1.0000
  H   H2140     1.0  0.94743  0.42213  0.34298  1.0000
  C   C1206     1.0  0.57468  0.50132  0.20120  1.0000
  H   H2141     1.0  0.93456  0.34650  0.05051  1.0000
  C   C1207     1.0  0.96137  0.29557  0.07566  1.0000
  C   C1208     1.0  0.94578  0.34233  0.03983  1.0000
  H   H2142     1.0  0.88288  0.41255  0.23152  1.0000
  H   H2143     1.0  0.97483  0.39102  0.18253  1.0000
  H   H2144     1.0  0.89544  0.41162  0.29543  1.0000
  C   C1209     1.0  0.92834  0.43308  0.31916  1.0000
  H   H2145     1.0  0.49591  0.43086  0.36750  1.0000
  H   H2146     1.0  0.91582  0.49848  0.23050  1.0000
  H   H2147     1.0  0.53632  0.42852  0.35779  1.0000
  H   H2148     1.0  0.89555  0.44489  0.25101  1.0000
  C   C1210     1.0  0.56954  0.47924  0.11218  1.0000
  H   H2149     1.0  0.55274  0.47242  0.30172  1.0000
  H   H2150     1.0  0.52126  0.47032  0.30595  1.0000
  H   H2151     1.0  0.89403  0.26102  0.37056  1.0000
  N   N69       1.0  0.94989  0.30262  0.09650  1.0000
  H   H2152     1.0  0.98297  0.35462  0.19819  1.0000
  C   C1211     1.0  0.97228  0.36503  0.30573  1.0000
  H   H2153     1.0  0.92849  0.47249  0.23656  1.0000
  H   H2154     1.0  0.56330  0.45148  0.13673  1.0000
  C   C1212     1.0  0.61889  0.50122  0.10708  1.0000
  H   H2155     1.0  0.90641  0.25735  0.46528  1.0000
  C   C1213     1.0  0.93427  0.28641  0.11569  1.0000
  H   H2156     1.0  0.97550  0.32654  0.10408  1.0000
  H   H2157     1.0  0.93719  0.28712  0.35813  1.0000
  H   H2158     1.0  0.83178  0.25712  0.13928  1.0000
  H   H2159     1.0  0.60307  0.49667  0.03716  1.0000
  C   C1214     1.0  0.98148  0.36778  0.25028  1.0000
  C   C1215     1.0  0.88840  0.40661  0.25088  1.0000
  C   C1216     1.0  0.58636  0.46776  0.30850  1.0000
  H   H2160     1.0  0.51255  0.46320  0.37419  1.0000
  H   H2161     1.0  0.97476  0.37545  0.13873  1.0000
  H   H2162     1.0  0.48984  0.40455  0.40701  1.0000
  H   H2163     1.0  0.59098  0.47717  0.32620  1.0000
  H   H2164     1.0  0.61709  0.47982  0.00623  1.0000
  H   H2165     1.0  0.93113  0.31843  0.09606  1.0000
  H   H2166     1.0  0.96794  0.33211  0.05236  1.0000
  H   H2167     1.0  0.96040  0.35259  0.15869  1.0000
  H   H2168     1.0  0.87780  0.46431  0.31105  1.0000
  H   H2169     1.0  0.55012  0.45120  0.10376  1.0000
  H   H2170     1.0  0.90277  0.40633  0.24401  1.0000
  H   H2171     1.0  0.57408  0.48648  0.13206  1.0000
  S   S268      1.0  0.97789  0.50125  0.20814  1.0000
  H   H2172     1.0  0.54319  0.45918  0.13694  1.0000
  H   H2173     1.0  0.56105  0.48628  0.09975  1.0000
  H   H2174     1.0  0.96431  0.25869  0.47424  1.0000
  H   H2175     1.0  0.92606  0.42253  0.30327  1.0000
  H   H2176     1.0  0.95585  0.30529  0.03065  1.0000
  H   H2177     1.0  0.95992  0.44127  0.31421  1.0000
  C   C1217     1.0  0.52754  0.44447  0.27169  1.0000
  C   C1218     1.0  0.94781  0.43586  0.33206  1.0000
  C   C1219     1.0  0.53229  0.50111  0.13373  1.0000
  H   H2178     1.0  0.94999  0.37029  0.15249  1.0000
  C   C1220     1.0  0.98778  0.37032  0.19615  1.0000
  H   H2179     1.0  0.89647  0.26299  0.13583  1.0000
  C   C1221     1.0  0.89452  0.44620  0.31809  1.0000
  H   H2180     1.0  0.97671  0.30582  0.07140  1.0000
  H   H2181     1.0  0.95073  0.44595  0.34890  1.0000
  H   H2182     1.0  0.97486  0.40085  0.22609  1.0000
  H   H2183     1.0  0.82200  0.27118  0.25957  1.0000
  C   C1222     1.0  0.94063  0.31480  0.08017  1.0000
  H   H2184     1.0  0.54316  0.45310  0.26555  1.0000
  H   H2185     1.0  0.93416  0.46292  0.31807  1.0000
  H   H2186     1.0  0.85090  0.26107  0.18629  1.0000
  H   H2187     1.0  0.92932  0.49146  0.35418  1.0000
  H   H2188     1.0  0.96241  0.28235  0.08645  1.0000
  C   C1223     1.0  0.51746  0.46039  0.32686  1.0000
  H   H2189     1.0  0.91698  0.42728  0.33798  1.0000
  C   C1224     1.0  0.95390  0.29185  0.04431  1.0000
  H   H2190     1.0  0.50156  0.41200  0.35436  1.0000
  Fe  Fe135     1.0  0.50571  0.47369  0.22347  1.0000
  H   H2191     1.0  0.85548  0.42280  0.33695  1.0000
  C   C1225     1.0  0.90349  0.43930  0.26738  1.0000
  C   C1226     1.0  0.56598  0.45271  0.31692  1.0000
  C   C1227     1.0  0.96344  0.31457  0.11717  1.0000
  H   H2192     1.0  0.91579  0.48110  0.29778  1.0000
  C   C1228     1.0  0.52745  0.43741  0.35782  1.0000
  H   H2193     1.0  0.95692  0.35514  0.02707  1.0000
  C   C1229     1.0  0.96351  0.36794  0.15738  1.0000
  H   H2194     1.0  0.94401  0.48446  0.26386  1.0000
  H   H2195     1.0  0.53410  0.48151  0.35552  1.0000
  H   H2196     1.0  0.98813  0.43528  0.23278  1.0000
  C   C1230     1.0  0.92954  0.50049  0.24119  1.0000
  H   H2197     1.0  0.95799  0.36955  0.20388  1.0000
  H   H2198     1.0  0.89960  0.47249  0.26994  1.0000
  C   C1231     1.0  0.89012  0.41828  0.27681  1.0000
  H   H2199     1.0  0.93826  0.28289  0.04529  1.0000
  H   H2200     1.0  0.91657  0.43963  0.25403  1.0000
  C   C1232     1.0  0.97044  0.37550  0.18666  1.0000
  H   H2201     1.0  0.58670  0.47644  0.28716  1.0000
  S   S269      1.0  0.98042  0.47674  0.26972  1.0000
  C   C1233     1.0  0.91928  0.27152  0.09923  1.0000
  C   C1234     1.0  0.92133  0.28411  0.35973  1.0000
  H   H2202     1.0  0.59696  0.46088  0.30562  1.0000
  H   H2203     1.0  0.87523  0.41710  0.28408  1.0000
  H   H2204     1.0  0.84589  0.44113  0.33144  1.0000
  H   H2205     1.0  0.91725  0.28778  0.33728  1.0000
  H   H2206     1.0  0.53081  0.42474  0.30709  1.0000
  C   C1235     1.0  0.91293  0.47188  0.27957  1.0000
  H   H2207     1.0  0.80559  0.50364  0.47804  1.0000
  H   H2208     1.0  0.49199  0.47693  0.34515  1.0000
  C   C1236     1.0  0.52383  0.43529  0.30458  1.0000
  C   C1237     1.0  0.50635  0.42366  0.36844  1.0000
  H   H2209     1.0  0.56245  0.44359  0.29878  1.0000
  C   C1238     1.0  0.90966  0.26322  0.37026  1.0000
  H   H2210     1.0  0.96353  0.26857  0.03963  1.0000
  N   N70       1.0  0.52993  0.44874  0.32772  1.0000
  H   H2211     1.0  0.56659  0.44402  0.33765  1.0000
  H   H2212     1.0  0.54335  0.49124  0.26284  1.0000
  H   H2213     1.0  0.93056  0.30701  0.06424  1.0000
  C   C1239     1.0  0.87538  0.44910  0.31174  1.0000
  H   H2214     1.0  0.55569  0.47062  0.34019  1.0000
  C   C1240     1.0  0.52109  0.42938  0.25053  1.0000
  C   C1241     1.0  0.92970  0.48150  0.25468  1.0000
  H   H2215     1.0  0.61424  0.47060  0.06125  1.0000
  H   H2216     1.0  0.52956  0.42015  0.25283  1.0000
  H   H2217     1.0  0.50890  0.42557  0.41597  1.0000
  H   H2218     1.0  0.52173  0.49004  0.15026  1.0000
  C   C1242     1.0  0.58713  0.47978  0.09182  1.0000
  C   C1243     1.0  0.55575  0.45900  0.12295  1.0000
  C   C1244     1.0  0.55681  0.49718  0.24882  1.0000
  C   C1245     1.0  0.97613  0.31475  0.28046  1.0000
  S   S270      1.0  0.50003  0.48597  0.26405  1.0000
  H   H2219     1.0  0.92658  0.26396  0.08670  1.0000
  H   H2220     1.0  0.52358  0.43625  0.22716  1.0000
  H   H2221     1.0  0.59250  0.46905  0.10213  1.0000
  H   H2222     1.0  0.93902  0.33211  0.02398  1.0000
  H   H2223     1.0  0.63836  0.49783  0.15548  1.0000
  C   C1246     1.0  0.61373  0.49926  0.05442  1.0000
  H   H2224     1.0  0.97861  0.29497  0.12707  1.0000
  H   H2225     1.0  0.96267  0.29580  0.15754  1.0000
  C   C1247     1.0  0.62394  0.48512  0.05180  1.0000
  H   H2226     1.0  0.97515  0.35221  0.24943  1.0000
  H   H2227     1.0  0.84796  0.28327  0.25698  1.0000
  C   C1248     1.0  0.63004  0.48479  0.01926  1.0000
  C   C1249     1.0  0.83590  0.27169  0.24878  1.0000
  H   H2228     1.0  0.54706  0.50112  0.13653  1.0000
  H   H2229     1.0  0.95939  0.27984  0.00517  1.0000
  C   C1250     1.0  0.85914  0.43824  0.33614  1.0000
  H   H2230     1.0  0.90064  0.45448  0.33675  1.0000
  N   N71       1.0  0.60388  0.49865  0.08460  1.0000
  C   C1251     1.0  0.50501  0.41463  0.40047  1.0000
  C   C1252     1.0  0.98312  0.31370  0.25185  1.0000
  H   H2231     1.0  0.53320  0.44689  0.37518  1.0000
  C   C1253     1.0  0.55716  0.49316  0.21941  1.0000
  C   C1254     1.0  0.90387  0.25647  0.12127  1.0000
  C   C1255     1.0  0.91489  0.25740  0.40161  1.0000
  H   H2232     1.0  0.63788  0.47506  0.01798  1.0000
  H   H2233     1.0  0.94080  0.27821  0.13015  1.0000
  H   H2234     1.0  0.50533  0.42060  0.25515  1.0000
  C   C1256     1.0  0.61204  0.50099  0.13989  1.0000
  H   H2235     1.0  0.96388  0.37427  0.30227  1.0000
  H   H2236     1.0  0.98860  0.40649  0.25764  1.0000
  H   H2237     1.0  0.62383  0.50309  0.18325  1.0000
  H   H2238     1.0  0.98567  0.32834  0.16355  1.0000
  C   C1257     1.0  0.97323  0.30438  0.13859  1.0000
  H   H2239     1.0  0.63992  0.49913  0.00908  1.0000
  H   H2240     1.0  0.97810  0.36647  0.32796  1.0000
  H   H2241     1.0  0.60178  0.48658  0.14889  1.0000
  H   H2242     1.0  0.98361  0.32256  0.32409  1.0000
  C   C1258     1.0  0.98911  0.32160  0.30207  1.0000
  C   C1259     1.0  0.98906  0.37068  0.28161  1.0000
  H   H2243     1.0  0.57390  0.50302  0.05400  1.0000
  H   H2244     1.0  0.91301  0.25515  0.35334  1.0000
  H   H2245     1.0  0.88076  0.25484  0.19316  1.0000
  H   H2246     1.0  0.92726  0.26392  0.91365  1.0000
  S   S271      1.0  0.88608  0.31249  0.94964  1.0000
  Fe  Fe136     1.0  0.93913  0.31799  0.96137  1.0000
  S   S272      1.0  0.92490  0.30861  0.92012  1.0000
  S   S273      1.0  0.96950  0.31984  0.96838  1.0000
  Fe  Fe137     1.0  0.91367  0.33187  0.92202  1.0000
  S   S274      1.0  0.91533  0.34981  0.87769  1.0000
  Fe  Fe138     1.0  0.89883  0.28990  0.95066  1.0000
  H   H2247     1.0  0.96778  0.37330  0.75321  1.0000
  S   S275      1.0  0.92991  0.34251  0.96140  1.0000
  H   H2248     1.0  0.98222  0.39764  0.73904  1.0000
  H   H2249     1.0  0.94567  0.43029  0.70321  1.0000
  H   H2250     1.0  0.94327  0.29497  0.87229  1.0000
  H   H2251     1.0  0.59760  0.45211  0.87390  1.0000
  S   S276      1.0  0.96433  0.48516  0.70880  1.0000
  H   H2252     1.0  0.51401  0.40906  0.81296  1.0000
  Fe  Fe139     1.0  0.50620  0.45904  0.75283  1.0000
  C   C1260     1.0  0.97260  0.45023  0.58899  1.0000
  S   S277      1.0  0.49226  0.47323  0.72066  1.0000
  C   C1261     1.0  0.56673  0.45720  0.73992  1.0000
  C   C1262     1.0  0.93716  0.28981  0.85149  1.0000
  S   S278      1.0  0.97738  0.44444  0.75199  1.0000
  H   H2253     1.0  0.57900  0.44648  0.82826  1.0000
  C   C1263     1.0  0.58535  0.45456  0.88515  1.0000
  Fe  Fe140     1.0  0.98267  0.47513  0.73971  1.0000
  H   H2254     1.0  0.95074  0.45079  0.55885  1.0000
  H   H2255     1.0  0.91210  0.46844  0.87583  1.0000
  C   C1264     1.0  0.52809  0.40839  0.80537  1.0000
  H   H2256     1.0  0.97473  0.29226  0.69567  1.0000
  H   H2257     1.0  0.57171  0.46514  0.83506  1.0000
  C   C1265     1.0  0.54470  0.41955  0.82413  1.0000
  C   C1266     1.0  0.53108  0.44183  0.84041  1.0000
  C   C1267     1.0  0.98775  0.46358  0.60734  1.0000
  H   H2258     1.0  0.97749  0.36682  0.83777  1.0000
  H   H2259     1.0  0.96302  0.41896  0.70262  1.0000
  S   S279      1.0  0.98804  0.48211  0.78626  1.0000
  S   S280      1.0  0.50509  0.42932  0.74925  1.0000
  S   S281      1.0  0.98835  0.28579  0.58049  1.0000
  C   C1268     1.0  0.95581  0.41222  0.85213  1.0000
  C   C1269     1.0  0.95316  0.40390  0.88187  1.0000
  C   C1270     1.0  0.94074  0.38488  0.89007  1.0000
  C   C1271     1.0  0.93074  0.37397  0.86860  1.0000
  C   C1272     1.0  0.93291  0.38248  0.83900  1.0000
  C   C1273     1.0  0.94536  0.40151  0.83078  1.0000
  H   H2260     1.0  0.96091  0.41214  0.89869  1.0000
  H   H2261     1.0  0.93892  0.37865  0.91303  1.0000
  H   H2262     1.0  0.92499  0.37424  0.82230  1.0000
  H   H2263     1.0  0.94689  0.40784  0.80793  1.0000
  C   C1274     1.0  0.51588  0.46162  0.86587  1.0000
  C   C1275     1.0  0.52529  0.38757  0.80781  1.0000
  H   H2264     1.0  0.98365  0.28710  0.66184  1.0000
  H   H2265     1.0  0.96215  0.25638  0.79468  1.0000
  H   H2266     1.0  0.98049  0.47132  0.61975  1.0000
  C   C1276     1.0  0.53315  0.46205  0.84590  1.0000
  C   C1277     1.0  0.98493  0.27591  0.50291  1.0000
  H   H2267     1.0  0.58832  0.46994  0.88211  1.0000
  H   H2268     1.0  0.95451  0.26301  0.84554  1.0000
  H   H2269     1.0  0.97493  0.38067  0.90714  1.0000
  C   C1278     1.0  0.95383  0.25594  0.68324  1.0000
  H   H2270     1.0  0.51565  0.45439  0.88845  1.0000
  S   S282      1.0  0.97195  0.43610  0.84307  1.0000
  C   C1279     1.0  0.98428  0.43876  0.64992  1.0000
  H   H2271     1.0  0.56427  0.43306  0.76998  1.0000
  H   H2272     1.0  0.96669  0.32859  0.90574  1.0000
  Fe  Fe141     1.0  0.90349  0.32160  0.98935  1.0000
  H   H2273     1.0  0.95041  0.27176  0.89317  1.0000
  C   C1280     1.0  0.97724  0.39208  0.78750  1.0000
  H   H2274     1.0  0.50194  0.45424  0.85621  1.0000
  H   H2275     1.0  0.95733  0.39103  0.75336  1.0000
  C   C1281     1.0  0.92976  0.30441  0.83694  1.0000
  C   C1282     1.0  0.97840  0.31336  0.93669  1.0000
  H   H2276     1.0  0.53135  0.41401  0.78143  1.0000
  H   H2277     1.0  0.91296  0.26727  0.83790  1.0000
  N   N72       1.0  0.92410  0.45818  0.84007  1.0000
  C   C1283     1.0  0.91943  0.45382  0.80881  1.0000
  C   C1284     1.0  0.91074  0.46713  0.85166  1.0000
  C   C1285     1.0  0.94516  0.47129  0.83900  1.0000
  C   C1286     1.0  0.92119  0.44049  0.86062  1.0000
  C   C1287     1.0  0.90070  0.42453  0.86248  1.0000
  C   C1288     1.0  0.92929  0.44151  0.79520  1.0000
  H   H2278     1.0  0.94388  0.48767  0.87603  1.0000
  C   C1289     1.0  0.91339  0.48672  0.83519  1.0000
  H   H2279     1.0  0.94620  0.41623  0.67389  1.0000
  C   C1290     1.0  0.90025  0.40671  0.88131  1.0000
  C   C1291     1.0  0.92446  0.43909  0.76300  1.0000
  C   C1292     1.0  0.95226  0.47945  0.86831  1.0000
  H   H2280     1.0  0.92384  0.46714  0.79329  1.0000
  H   H2281     1.0  0.90344  0.44685  0.80754  1.0000
  H   H2282     1.0  0.89529  0.45784  0.85011  1.0000
  H   H2283     1.0  0.88395  0.48484  0.84737  1.0000
  H   H2284     1.0  0.94855  0.48332  0.82110  1.0000
  H   H2285     1.0  0.95476  0.46387  0.83285  1.0000
  H   H2286     1.0  0.93222  0.43460  0.85455  1.0000
  H   H2287     1.0  0.92377  0.44380  0.88381  1.0000
  H   H2288     1.0  0.89627  0.42061  0.84021  1.0000
  H   H2289     1.0  0.88965  0.42897  0.87308  1.0000
  H   H2290     1.0  0.94534  0.44803  0.79513  1.0000
  H   H2291     1.0  0.92428  0.42721  0.80785  1.0000
  H   H2292     1.0  0.97877  0.31875  0.86106  1.0000
  H   H2293     1.0  0.95095  0.46801  0.88622  1.0000
  H   H2294     1.0  0.90180  0.49637  0.87257  1.0000
  H   H2295     1.0  0.91055  0.48572  0.81142  1.0000
  H   H2296     1.0  0.97851  0.49847  0.88498  1.0000
  H   H2297     1.0  0.97496  0.28282  0.50975  1.0000
  H   H2298     1.0  0.95294  0.46543  0.58828  1.0000
  H   H2299     1.0  0.90440  0.40969  0.90413  1.0000
  H   H2300     1.0  0.88536  0.39563  0.88307  1.0000
  H   H2301     1.0  0.91038  0.40112  0.87081  1.0000
  H   H2302     1.0  0.93035  0.45297  0.74883  1.0000
  H   H2303     1.0  0.93115  0.42974  0.75417  1.0000
  H   H2304     1.0  0.90848  0.43256  0.76167  1.0000
  H   H2305     1.0  0.54096  0.41222  0.84730  1.0000
  C   C1293     1.0  0.56611  0.44346  0.87270  1.0000
  H   H2306     1.0  0.83203  0.49658  0.52842  1.0000
  H   H2307     1.0  0.58458  0.44996  0.90937  1.0000
  H   H2308     1.0  0.91796  0.30548  0.85161  1.0000
  H   H2309     1.0  0.94184  0.31849  0.83328  1.0000
  H   H2310     1.0  0.95662  0.25696  0.65870  1.0000
  H   H2311     1.0  0.49796  0.39219  0.73302  1.0000
  H   H2312     1.0  0.95653  0.49327  0.76802  1.0000
  C   C1294     1.0  0.92048  0.27013  0.85852  1.0000
  H   H2313     1.0  0.98010  0.44531  0.57195  1.0000
  H   H2314     1.0  0.54647  0.46941  0.85692  1.0000
  H   H2315     1.0  0.51338  0.38005  0.79409  1.0000
  H   H2316     1.0  0.53681  0.44517  0.78231  1.0000
  H   H2317     1.0  0.56344  0.42822  0.87715  1.0000
  C   C1295     1.0  0.56687  0.44949  0.83880  1.0000
  H   H2318     1.0  0.57032  0.47257  0.73968  1.0000
  C   C1296     1.0  0.56668  0.44804  0.77147  1.0000
  H   H2319     1.0  0.97125  0.47287  0.55707  1.0000
  C   C1297     1.0  0.97371  0.49265  0.86386  1.0000
  H   H2320     1.0  0.94898  0.28936  0.83623  1.0000
  S   S283      1.0  0.53517  0.48369  0.74710  1.0000
  H   H2321     1.0  0.55468  0.46542  0.79306  1.0000
  Fe  Fe142     1.0  0.98555  0.45207  0.79742  1.0000
  H   H2322     1.0  0.57784  0.45521  0.72498  1.0000
  S   S284      1.0  0.49610  0.46831  0.79384  1.0000
  H   H2323     1.0  0.88035  0.49401  0.54367  1.0000
  H   H2324     1.0  0.97527  0.42681  0.63845  1.0000
  H   H2325     1.0  0.55228  0.45062  0.73108  1.0000
  C   C1298     1.0  0.55084  0.45002  0.79275  1.0000
  H   H2326     1.0  0.52716  0.43267  0.86217  1.0000
  H   H2327     1.0  0.97993  0.36047  0.92142  1.0000
  H   H2328     1.0  0.98862  0.42349  0.59438  1.0000
  H   H2329     1.0  0.92422  0.30056  0.81511  1.0000
  H   H2330     1.0  0.58135  0.45511  0.77916  1.0000
  H   H2331     1.0  0.52125  0.38090  0.83127  1.0000
  N   N73       1.0  0.54838  0.44023  0.82404  1.0000
  H   H2332     1.0  0.78348  0.49286  0.50223  1.0000
  H   H2333     1.0  0.96934  0.26196  0.72212  1.0000
  H   H2334     1.0  0.51797  0.43642  0.82774  1.0000
  H   H2335     1.0  0.57193  0.49629  0.80737  1.0000
  C   C1299     1.0  0.97489  0.31964  0.90825  1.0000
  H   H2336     1.0  0.97924  0.40689  0.78980  1.0000
  H   H2337     1.0  0.55450  0.44615  0.88530  1.0000
  H   H2338     1.0  0.96517  0.38247  0.80351  1.0000
  H   H2339     1.0  0.80107  0.48183  0.50180  1.0000
  H   H2340     1.0  0.98289  0.48484  0.85738  1.0000
  C   C1300     1.0  0.97300  0.26396  0.69771  1.0000
  H   H2341     1.0  0.97793  0.45368  0.68555  1.0000
  C   C1301     1.0  0.93640  0.25944  0.89836  1.0000
  H   H2342     1.0  0.55816  0.41761  0.81641  1.0000
  H   H2343     1.0  0.53362  0.47054  0.82442  1.0000
  H   H2344     1.0  0.98152  0.25543  0.69232  1.0000
  C   C1302     1.0  0.95535  0.42618  0.68851  1.0000
  H   H2345     1.0  0.96185  0.43792  0.60326  1.0000
  H   H2346     1.0  0.96154  0.45048  0.65646  1.0000
  H   H2347     1.0  0.92830  0.49720  0.83643  1.0000
  H   H2348     1.0  0.80213  0.49842  0.54670  1.0000
  H   H2349     1.0  0.96247  0.35810  0.89390  1.0000
  C   C1303     1.0  0.98171  0.31405  0.88300  1.0000
  C   C1304     1.0  0.96124  0.46053  0.57233  1.0000
  H   H2350     1.0  0.94424  0.26359  0.68831  1.0000
  C   C1305     1.0  0.95266  0.49950  0.72202  1.0000
  H   H2351     1.0  0.53880  0.38602  0.79941  1.0000
  H   H2352     1.0  0.90968  0.27156  0.87501  1.0000
  C   C1306     1.0  0.97083  0.38825  0.75633  1.0000
  S   S285      1.0  0.88930  0.25920  0.94108  1.0000
  Fe  Fe143     1.0  0.52398  0.49427  0.78545  1.0000
  H   H2353     1.0  0.51720  0.47631  0.86804  1.0000
  C   C1307     1.0  0.98734  0.37988  0.84632  1.0000
  C   C1308     1.0  0.96997  0.44384  0.66991  1.0000
  Fe  Fe144     1.0  0.52023  0.49878  0.71817  1.0000
  C   C1309     1.0  0.79927  0.49560  0.50024  1.0000
  C   C1310     1.0  0.89924  0.49448  0.84887  1.0000
  H   H2354     1.0  0.92930  0.25756  0.80629  1.0000
  C   C1311     1.0  0.97252  0.25681  0.49346  1.0000
  H   H2355     1.0  0.98706  0.32250  0.67734  1.0000
  H   H2356     1.0  0.97798  0.38791  0.85090  1.0000
  H   H2357     1.0  0.96196  0.26326  0.94294  1.0000
  H   H2358     1.0  0.92504  0.25541  0.50946  1.0000
  C   C1312     1.0  0.95067  0.50086  0.75242  1.0000
  C   C1313     1.0  0.98396  0.28519  0.68660  1.0000
  C   C1314     1.0  0.97650  0.36763  0.90114  1.0000
  S   S286      1.0  0.91422  0.29786  0.99217  1.0000
  C   C1315     1.0  0.98868  0.30145  0.93985  1.0000
  H   H2359     1.0  0.60268  0.49966  0.83075  1.0000
  H   H2360     1.0  0.84788  0.25437  0.94800  1.0000
  H   H2361     1.0  0.93254  0.64835  0.39194  1.0000
  C   C1316     1.0  0.49840  0.57259  0.34193  1.0000
  H   H2362     1.0  0.50417  0.56920  0.38831  1.0000
  C   C1317     1.0  0.89424  0.66379  0.03246  1.0000
  S   S287      1.0  0.95475  0.68543  0.16030  1.0000
  S   S288      1.0  0.94153  0.70631  0.08171  1.0000
  Fe  Fe145     1.0  0.83811  0.65839  0.37544  1.0000
  S   S289      1.0  0.82688  0.65359  0.42355  1.0000
  S   S290      1.0  0.86979  0.67003  0.35738  1.0000
  Fe  Fe146     1.0  0.79726  0.63816  0.35376  1.0000
  S   S291      1.0  0.78295  0.63186  0.40032  1.0000
  S   S292      1.0  0.78414  0.63080  0.30953  1.0000
  Fe  Fe147     1.0  0.80248  0.66144  0.40680  1.0000
  S   S293      1.0  0.79000  0.68099  0.42682  1.0000
  Fe  Fe148     1.0  0.80847  0.62455  0.41328  1.0000
  S   S294      1.0  0.80268  0.59823  0.44486  1.0000
  S   S295      1.0  0.81515  0.66850  0.35894  1.0000
  S   S296      1.0  0.82135  0.62864  0.36660  1.0000
  Fe  Fe149     1.0  0.96982  0.72502  0.41719  1.0000
  S   S297      1.0  0.97581  0.70280  0.39497  1.0000
  S   S298      1.0  0.93962  0.72632  0.41961  1.0000
  C   C1318     1.0  0.52290  0.63373  0.34959  1.0000
  S   S299      1.0  0.98813  0.69591  0.10436  1.0000
  C   C1319     1.0  0.66528  0.68359  0.00573  1.0000
  N   N74       1.0  0.51572  0.59937  0.37358  1.0000
  Fe  Fe150     1.0  0.91558  0.58053  0.40761  1.0000
  S   S300      1.0  0.89388  0.55727  0.38633  1.0000
  S   S301      1.0  0.92674  0.61017  0.38460  1.0000
  Fe  Fe151     1.0  0.91413  0.55580  0.46468  1.0000
  S   S302      1.0  0.89224  0.53047  0.44794  1.0000
  Fe  Fe152     1.0  0.91060  0.53994  0.40421  1.0000
  H   H2363     1.0  0.96009  0.72467  0.28352  1.0000
  Fe  Fe153     1.0  0.87756  0.54998  0.43145  1.0000
  S   S303      1.0  0.84488  0.54049  0.43988  1.0000
  S   S304      1.0  0.93371  0.56399  0.42209  1.0000
  S   S305      1.0  0.89802  0.57455  0.45153  1.0000
  Fe  Fe154     1.0  0.68508  0.56839  0.23740  1.0000
  S   S306      1.0  0.69243  0.58216  0.18978  1.0000
  S   S307      1.0  0.70359  0.57021  0.27740  1.0000
  Fe  Fe155     1.0  0.64114  0.54907  0.22861  1.0000
  S   S308      1.0  0.64476  0.56162  0.18088  1.0000
  Fe  Fe156     1.0  0.67150  0.55465  0.17709  1.0000
  S   S309      1.0  0.67883  0.54298  0.13587  1.0000
  Fe  Fe157     1.0  0.66536  0.58825  0.19600  1.0000
  S   S310      1.0  0.66372  0.61564  0.17701  1.0000
  S   S311      1.0  0.66648  0.53989  0.22423  1.0000
  S   S312      1.0  0.65933  0.57660  0.24413  1.0000
  Fe  Fe158     1.0  0.57749  0.65689  0.31388  1.0000
  S   S313      1.0  0.55635  0.64592  0.27921  1.0000
  S   S314      1.0  0.57051  0.66798  0.35583  1.0000
  Fe  Fe159     1.0  0.60975  0.65000  0.27979  1.0000
  S   S315      1.0  0.59123  0.63797  0.24324  1.0000
  S   S316      1.0  0.64067  0.65232  0.28284  1.0000
  Fe  Fe160     1.0  0.58198  0.66269  0.24563  1.0000
  S   S317      1.0  0.58178  0.68018  0.20179  1.0000
  Fe  Fe161     1.0  0.56748  0.62229  0.27946  1.0000
  C   C1320     1.0  0.51882  0.59383  0.43071  1.0000
  S   S318      1.0  0.60194  0.67537  0.28031  1.0000
  S   S319      1.0  0.58704  0.63263  0.31595  1.0000
  S   S320      1.0  0.63623  0.55088  0.01924  1.0000
  H   H2364     1.0  0.49975  0.60579  0.40907  1.0000
  C   C1321     1.0  0.96166  0.68239  0.02399  1.0000
  C   C1322     1.0  0.59884  0.70367  0.19204  1.0000
  C   C1323     1.0  0.60867  0.71462  0.21360  1.0000
  C   C1324     1.0  0.62229  0.73311  0.20517  1.0000
  H   H2365     1.0  0.98242  0.57660  0.15085  1.0000
  C   C1325     1.0  0.61669  0.72993  0.15344  1.0000
  C   C1326     1.0  0.60276  0.71153  0.16194  1.0000
  H   H2366     1.0  0.60567  0.70888  0.23684  1.0000
  H   H2367     1.0  0.98909  0.70265  0.00141  1.0000
  H   H2368     1.0  0.62017  0.73548  0.13016  1.0000
  H   H2369     1.0  0.59532  0.70313  0.14507  1.0000
  C   C1327     1.0  0.57073  0.65699  0.39214  1.0000
  C   C1328     1.0  0.56545  0.66419  0.41697  1.0000
  C   C1329     1.0  0.56404  0.65500  0.44599  1.0000
  C   C1330     1.0  0.56765  0.63837  0.45044  1.0000
  C   C1331     1.0  0.57330  0.63138  0.42567  1.0000
  C   C1332     1.0  0.57522  0.64085  0.39674  1.0000
  H   H2370     1.0  0.56202  0.67670  0.41370  1.0000
  H   H2371     1.0  0.58603  0.54471  0.06492  1.0000
  H   H2372     1.0  0.57599  0.61847  0.42894  1.0000
  H   H2373     1.0  0.69959  0.69796  0.03142  1.0000
  C   C1333     1.0  0.66813  0.54642  0.10265  1.0000
  C   C1334     1.0  0.67153  0.53851  0.07734  1.0000
  C   C1335     1.0  0.66274  0.54067  0.05091  1.0000
  C   C1336     1.0  0.65017  0.55047  0.04987  1.0000
  C   C1337     1.0  0.64692  0.55846  0.07508  1.0000
  C   C1338     1.0  0.65603  0.55665  0.10116  1.0000
  H   H2374     1.0  0.68081  0.53050  0.07828  1.0000
  H   H2375     1.0  0.66514  0.53424  0.03171  1.0000
  H   H2376     1.0  0.83484  0.71186  0.34903  1.0000
  H   H2377     1.0  0.65360  0.56318  0.12010  1.0000
  C   C1339     1.0  0.65926  0.62769  0.20542  1.0000
  C   C1340     1.0  0.64597  0.63650  0.20170  1.0000
  C   C1341     1.0  0.64053  0.64441  0.22536  1.0000
  C   C1342     1.0  0.64879  0.64402  0.25247  1.0000
  C   C1343     1.0  0.66302  0.63626  0.25562  1.0000
  C   C1344     1.0  0.66804  0.62780  0.23223  1.0000
  H   H2378     1.0  0.63922  0.63644  0.18095  1.0000
  H   H2379     1.0  0.63002  0.65090  0.22252  1.0000
  H   H2380     1.0  0.66959  0.63613  0.27651  1.0000
  H   H2381     1.0  0.67850  0.62116  0.23504  1.0000
  H   H2382     1.0  0.53450  0.55015  0.30276  1.0000
  H   H2383     1.0  0.94427  0.62153  0.09270  1.0000
  C   C1345     1.0  0.96635  0.65164  0.44157  1.0000
  H   H2384     1.0  0.90823  0.61840  0.45300  1.0000
  C   C1346     1.0  0.95362  0.62025  0.42605  1.0000
  C   C1347     1.0  0.94154  0.62569  0.40746  1.0000
  C   C1348     1.0  0.94159  0.64392  0.40651  1.0000
  H   H2385     1.0  0.80198  0.52651  0.40277  1.0000
  H   H2386     1.0  0.54099  0.53073  0.11903  1.0000
  S   S321      1.0  0.91553  0.51679  0.38126  1.0000
  H   H2387     1.0  0.66501  0.65076  0.03936  1.0000
  H   H2388     1.0  0.70449  0.72303  0.02662  1.0000
  C   C1349     1.0  0.76059  0.61540  0.30163  1.0000
  C   C1350     1.0  0.74707  0.60285  0.32383  1.0000
  C   C1351     1.0  0.72953  0.58938  0.31607  1.0000
  C   C1352     1.0  0.72492  0.58874  0.28618  1.0000
  C   C1353     1.0  0.73808  0.60183  0.26414  1.0000
  C   C1354     1.0  0.75590  0.61489  0.27181  1.0000
  H   H2389     1.0  0.75035  0.60322  0.34686  1.0000
  H   H2390     1.0  0.71946  0.57934  0.33331  1.0000
  H   H2391     1.0  0.73485  0.60146  0.24106  1.0000
  H   H2392     1.0  0.76622  0.62452  0.25443  1.0000
  H   H2393     1.0  0.91395  0.65723  0.43970  1.0000
  H   H2394     1.0  0.84182  0.62585  0.45991  1.0000
  H   H2395     1.0  0.90398  0.62463  0.28976  1.0000
  C   C1355     1.0  0.88886  0.68495  0.37609  1.0000
  C   C1356     1.0  0.88528  0.69373  0.39998  1.0000
  C   C1357     1.0  0.90098  0.70623  0.41335  1.0000
  C   C1358     1.0  0.92031  0.70982  0.40322  1.0000
  C   C1359     1.0  0.92381  0.70060  0.37982  1.0000
  C   C1360     1.0  0.90813  0.68835  0.36622  1.0000
  H   H2396     1.0  0.87045  0.69101  0.40781  1.0000
  H   H2397     1.0  0.89823  0.71305  0.43175  1.0000
  H   H2398     1.0  0.93860  0.70335  0.37162  1.0000
  H   H2399     1.0  0.91089  0.68159  0.34775  1.0000
  C   C1361     1.0  0.81436  0.58245  0.43948  1.0000
  C   C1362     1.0  0.83267  0.58811  0.42381  1.0000
  C   C1363     1.0  0.84242  0.57544  0.42352  1.0000
  C   C1364     1.0  0.83334  0.55687  0.43766  1.0000
  C   C1365     1.0  0.81447  0.55101  0.45129  1.0000
  C   C1366     1.0  0.80527  0.56383  0.45289  1.0000
  C   C1367     1.0  0.90378  0.68515  0.18484  1.0000
  H   H2400     1.0  0.52199  0.63956  0.37078  1.0000
  H   H2401     1.0  0.51637  0.63995  0.30396  1.0000
  H   H2402     1.0  0.72553  0.71179  0.48152  1.0000
  C   C1368     1.0  0.92284  0.68957  0.06395  1.0000
  C   C1369     1.0  0.90138  0.65743  0.05803  1.0000
  C   C1370     1.0  0.91560  0.67018  0.07361  1.0000
  H   H2403     1.0  0.89590  0.64248  0.06575  1.0000
  H   H2404     1.0  0.92092  0.66502  0.09312  1.0000
  H   H2405     1.0  0.54941  0.72084  0.20319  1.0000
  H   H2406     1.0  0.72043  0.54508  0.14471  1.0000
  C   C1371     1.0  0.72946  0.68001  0.44221  1.0000
  H   H2407     1.0  0.87586  0.68733  0.23368  1.0000
  C   C1372     1.0  0.96149  0.52607  0.30391  1.0000
  C   C1373     1.0  0.95790  0.54151  0.31307  1.0000
  C   C1374     1.0  0.94408  0.53896  0.33699  1.0000
  C   C1375     1.0  0.93360  0.52088  0.35180  1.0000
  H   H2408     1.0  0.82785  0.69103  0.04388  1.0000
  H   H2409     1.0  0.95352  0.64765  0.30819  1.0000
  H   H2410     1.0  0.96590  0.55552  0.30170  1.0000
  H   H2411     1.0  0.94141  0.55093  0.34385  1.0000
  H   H2412     1.0  0.54960  0.52095  0.17491  1.0000
  H   H2413     1.0  0.93632  0.69183  0.49109  1.0000
  C   C1376     1.0  0.51765  0.58068  0.14732  1.0000
  H   H2414     1.0  0.56646  0.57593  0.37878  1.0000
  H   H2415     1.0  0.51254  0.57726  0.32849  1.0000
  C   C1377     1.0  0.95571  0.65142  0.07544  1.0000
  H   H2416     1.0  0.88065  0.73452  0.41308  1.0000
  C   C1378     1.0  0.56525  0.54677  0.21591  1.0000
  H   H2417     1.0  0.56260  0.53752  0.35514  1.0000
  H   H2418     1.0  0.68702  0.67122  0.99642  1.0000
  C   C1379     1.0  0.96077  0.65430  0.32739  1.0000
  H   H2419     1.0  0.63189  0.57090  0.34338  1.0000
  C   C1380     1.0  0.74657  0.56163  0.01448  1.0000
  H   H2420     1.0  0.68309  0.59815  0.31258  1.0000
  Fe  Fe162     1.0  0.97552  0.71045  0.17949  1.0000
  H   H2421     1.0  0.72223  0.56834  0.15202  1.0000
  H   H2422     1.0  0.75141  0.58267  0.11559  1.0000
  H   H2423     1.0  0.97982  0.65941  0.37509  1.0000
  H   H2424     1.0  0.92555  0.64194  0.26939  1.0000
  C   C1381     1.0  0.90204  0.65986  0.45158  1.0000
  H   H2425     1.0  0.57264  0.53726  0.13105  1.0000
  H   H2426     1.0  0.71999  0.66945  0.42870  1.0000
  H   H2427     1.0  0.63160  0.51467  0.10034  1.0000
  H   H2428     1.0  0.64915  0.67884  0.00567  1.0000
  H   H2429     1.0  0.83939  0.60231  0.41254  1.0000
  C   C1382     1.0  0.59808  0.56249  0.12971  1.0000
  N   N75       1.0  0.98057  0.65326  0.32939  1.0000
  H   H2430     1.0  0.89595  0.71255  0.26106  1.0000
  H   H2431     1.0  0.49855  0.54457  0.35479  1.0000
  H   H2432     1.0  0.76248  0.67733  0.01166  1.0000
  C   C1383     1.0  0.54862  0.55120  0.20196  1.0000
  C   C1384     1.0  0.71776  0.57463  0.04035  1.0000
  C   C1385     1.0  0.57399  0.50880  0.26015  1.0000
  N   N76       1.0  0.73440  0.57459  0.05854  1.0000
  H   H2433     1.0  0.87309  0.68528  0.28764  1.0000
  H   H2434     1.0  0.60493  0.52036  0.19773  1.0000
  H   H2435     1.0  0.70677  0.56001  0.04072  1.0000
  C   C1386     1.0  0.59146  0.51721  0.24178  1.0000
  C   C1387     1.0  0.77151  0.59589  0.05685  1.0000
  H   H2436     1.0  0.53499  0.57259  0.35920  1.0000
  C   C1388     1.0  0.51413  0.59997  0.46021  1.0000
  H   H2437     1.0  0.52595  0.51908  0.18523  1.0000
  H   H2438     1.0  0.53829  0.63612  0.34349  1.0000
  H   H2439     1.0  0.76600  0.64653  0.01888  1.0000
  C   C1389     1.0  0.97804  0.63291  0.33777  1.0000
  H   H2440     1.0  0.81668  0.70929  0.37845  1.0000
  H   H2441     1.0  0.52644  0.55147  0.13732  1.0000
  C   C1390     1.0  0.90028  0.64999  0.27057  1.0000
  H   H2442     1.0  0.56404  0.53232  0.21322  1.0000
  C   C1391     1.0  0.85103  0.74494  0.46281  1.0000
  C   C1392     1.0  0.74126  0.55977  0.04848  1.0000
  H   H2443     1.0  0.92084  0.71091  0.03106  1.0000
  C   C1393     1.0  0.93181  0.68221  0.47366  1.0000
  H   H2444     1.0  0.67446  0.71321  0.04713  1.0000
  C   C1394     1.0  0.97327  0.69932  0.00049  1.0000
  H   H2445     1.0  0.92902  0.66439  0.32756  1.0000
  C   C1395     1.0  0.57562  0.53368  0.35515  1.0000
  C   C1396     1.0  0.50866  0.56444  0.23768  1.0000
  C   C1397     1.0  0.86977  0.67200  0.27746  1.0000
  H   H2446     1.0  0.57052  0.59956  0.38638  1.0000
  C   C1398     1.0  0.56334  0.58869  0.37169  1.0000
  H   H2447     1.0  0.90377  0.65623  0.29162  1.0000
  H   H2448     1.0  0.84208  0.67214  0.26318  1.0000
  C   C1399     1.0  0.98378  0.66059  0.27124  1.0000
  C   C1400     1.0  0.69465  0.59079  0.02498  1.0000
  H   H2449     1.0  0.97981  0.72737  0.32717  1.0000
  H   H2450     1.0  0.60531  0.57373  0.14385  1.0000
  H   H2451     1.0  0.57952  0.55698  0.20550  1.0000
  C   C1401     1.0  0.59167  0.51361  0.21214  1.0000
  H   H2452     1.0  0.52636  0.66021  0.32376  1.0000
  H   H2453     1.0  0.83758  0.70340  0.45448  1.0000
  Fe  Fe163     1.0  0.98153  0.67954  0.14989  1.0000
  H   H2454     1.0  0.94660  0.54752  0.23935  1.0000
  C   C1402     1.0  0.94263  0.63475  0.09762  1.0000
  C   C1403     1.0  0.62873  0.69583  0.46321  1.0000
  C   C1404     1.0  0.98383  0.56875  0.21337  1.0000
  H   H2455     1.0  0.66571  0.70856  0.47697  1.0000
  C   C1405     1.0  0.56411  0.55869  0.14997  1.0000
  N   N77       1.0  0.78721  0.57124  0.33784  1.0000
  C   C1406     1.0  0.78225  0.57956  0.36437  1.0000
  C   C1407     1.0  0.80655  0.58468  0.32260  1.0000
  C   C1408     1.0  0.77196  0.57007  0.31609  1.0000
  C   C1409     1.0  0.78741  0.55176  0.34605  1.0000
  C   C1410     1.0  0.79400  0.54762  0.37735  1.0000
  C   C1411     1.0  0.76135  0.56883  0.37970  1.0000
  C   C1412     1.0  0.77466  0.56288  0.28599  1.0000
  C   C1413     1.0  0.82475  0.58725  0.33990  1.0000
  C   C1414     1.0  0.84300  0.60225  0.32287  1.0000
  C   C1415     1.0  0.82923  0.73817  0.47402  1.0000
  C   C1416     1.0  0.75956  0.57345  0.41143  1.0000
  C   C1417     1.0  0.75648  0.55890  0.26884  1.0000
  H   H2456     1.0  0.78359  0.59438  0.35758  1.0000
  H   H2457     1.0  0.79284  0.58084  0.38144  1.0000
  H   H2458     1.0  0.80976  0.57986  0.30144  1.0000
  H   H2459     1.0  0.80597  0.59889  0.31641  1.0000
  H   H2460     1.0  0.77114  0.58418  0.31067  1.0000
  H   H2461     1.0  0.75728  0.56052  0.32624  1.0000
  H   H2462     1.0  0.77263  0.54071  0.34534  1.0000
  H   H2463     1.0  0.79675  0.54877  0.32902  1.0000
  H   H2464     1.0  0.78251  0.54592  0.39505  1.0000
  H   H2465     1.0  0.80733  0.55905  0.38256  1.0000
  H   H2466     1.0  0.75078  0.57294  0.36696  1.0000
  H   H2467     1.0  0.75682  0.55332  0.38050  1.0000
  H   H2468     1.0  0.77754  0.54970  0.28942  1.0000
  H   H2469     1.0  0.78686  0.57375  0.27149  1.0000
  H   H2470     1.0  0.82319  0.59157  0.36215  1.0000
  H   H2471     1.0  0.82735  0.57389  0.34253  1.0000
  H   H2472     1.0  0.85582  0.60367  0.33564  1.0000
  H   H2473     1.0  0.84561  0.59814  0.30074  1.0000
  H   H2474     1.0  0.84160  0.61619  0.31967  1.0000
  C   C1418     1.0  0.79791  0.52940  0.37997  1.0000
  H   H2475     1.0  0.51721  0.57841  0.12345  1.0000
  H   H2476     1.0  0.79107  0.55929  0.46484  1.0000
  H   H2477     1.0  0.76428  0.58893  0.41170  1.0000
  H   H2478     1.0  0.74417  0.56662  0.42077  1.0000
  H   H2479     1.0  0.76856  0.56803  0.42579  1.0000
  H   H2480     1.0  0.75339  0.57192  0.26416  1.0000
  H   H2481     1.0  0.75879  0.55400  0.24727  1.0000
  H   H2482     1.0  0.74361  0.54778  0.28173  1.0000
  C   C1419     1.0  0.53366  0.57549  0.16129  1.0000
  H   H2483     1.0  0.66840  0.58215  0.34392  1.0000
  H   H2484     1.0  0.95530  0.56969  0.25487  1.0000
  C   C1420     1.0  0.74101  0.56814  0.11379  1.0000
  H   H2485     1.0  0.56051  0.56265  0.12724  1.0000
  H   H2486     1.0  0.54776  0.58459  0.14894  1.0000
  H   H2487     1.0  0.69658  0.57994  0.06965  1.0000
  C   C1421     1.0  0.55507  0.73641  0.15853  1.0000
  C   C1422     1.0  0.63691  0.70544  0.49046  1.0000
  H   H2488     1.0  0.92228  0.64449  0.00181  1.0000
  H   H2489     1.0  0.92715  0.63304  0.09677  1.0000
  N   N78       1.0  0.61415  0.58142  0.31537  1.0000
  C   C1423     1.0  0.61684  0.60106  0.32180  1.0000
  C   C1424     1.0  0.60780  0.57879  0.28423  1.0000
  C   C1425     1.0  0.59760  0.56759  0.33643  1.0000
  C   C1426     1.0  0.63214  0.57691  0.31987  1.0000
  C   C1427     1.0  0.65232  0.59337  0.31320  1.0000
  C   C1428     1.0  0.61996  0.60474  0.35472  1.0000
  C   C1429     1.0  0.59124  0.54653  0.33118  1.0000
  C   C1430     1.0  0.61882  0.59461  0.25881  1.0000
  C   C1431     1.0  0.61109  0.58904  0.22888  1.0000
  C   C1432     1.0  0.62945  0.62579  0.35762  1.0000
  H   H2490     1.0  0.97576  0.62152  0.29496  1.0000
  H   H2491     1.0  0.60390  0.60422  0.31574  1.0000
  H   H2492     1.0  0.62918  0.61179  0.30729  1.0000
  H   H2493     1.0  0.60862  0.56557  0.27750  1.0000
  H   H2494     1.0  0.59225  0.57716  0.28378  1.0000
  H   H2495     1.0  0.58450  0.57134  0.33503  1.0000
  H   H2496     1.0  0.60139  0.56834  0.35993  1.0000
  H   H2497     1.0  0.83106  0.73240  0.35902  1.0000
  H   H2498     1.0  0.65392  0.60482  0.32717  1.0000
  H   H2499     1.0  0.65466  0.59961  0.28973  1.0000
  H   H2500     1.0  0.60571  0.59906  0.36813  1.0000
  H   H2501     1.0  0.62923  0.59768  0.36476  1.0000
  H   H2502     1.0  0.58490  0.54420  0.30946  1.0000
  H   H2503     1.0  0.61682  0.60789  0.26225  1.0000
  H   H2504     1.0  0.63441  0.59718  0.25710  1.0000
  H   H2505     1.0  0.61240  0.57557  0.22447  1.0000
  H   H2506     1.0  0.59567  0.58760  0.22865  1.0000
  H   H2507     1.0  0.61963  0.60005  0.21058  1.0000
  H   H2508     1.0  0.64416  0.63200  0.34554  1.0000
  H   H2509     1.0  0.62046  0.63344  0.34845  1.0000
  H   H2510     1.0  0.63094  0.62786  0.38147  1.0000
  H   H2511     1.0  0.75145  0.66175  0.46876  1.0000
  C   C1433     1.0  0.57510  0.53061  0.06190  1.0000
  H   H2512     1.0  0.56442  0.52514  0.08170  1.0000
  C   C1434     1.0  0.87646  0.63459  0.42973  1.0000
  H   H2513     1.0  0.66775  0.57445  0.30743  1.0000
  H   H2514     1.0  0.73703  0.68254  0.48722  1.0000
  C   C1435     1.0  0.67115  0.66757  0.99569  1.0000
  C   C1436     1.0  0.98264  0.66383  0.02004  1.0000
  H   H2515     1.0  0.60377  0.54198  0.33140  1.0000
  H   H2516     1.0  0.82105  0.74244  0.45658  1.0000
  C   C1437     1.0  0.73645  0.64127  0.00936  1.0000
  S   S322      1.0  0.96571  0.71684  0.22399  1.0000
  H   H2517     1.0  0.98378  0.60354  0.49055  1.0000
  H   H2518     1.0  0.61052  0.52870  0.08089  1.0000
  H   H2519     1.0  0.52511  0.62006  0.40480  1.0000
  C   C1438     1.0  0.75822  0.64978  0.99999  1.0000
  H   H2520     1.0  0.96733  0.58706  0.20431  1.0000
  H   H2521     1.0  0.95449  0.66431  0.08273  1.0000
  C   C1439     1.0  0.88158  0.62604  0.37806  1.0000
  H   H2522     1.0  0.85686  0.57992  0.41247  1.0000
  H   H2523     1.0  0.55204  0.56625  0.20466  1.0000
  H   H2524     1.0  0.85954  0.74613  0.48260  1.0000
  H   H2525     1.0  0.90618  0.69282  0.13689  1.0000
  H   H2526     1.0  0.75527  0.57645  0.00548  1.0000
  H   H2527     1.0  0.84640  0.70685  0.39870  1.0000
  H   H2528     1.0  0.77376  0.70311  0.45771  1.0000
  H   H2529     1.0  0.80046  0.61731  0.05733  1.0000
  H   H2530     1.0  0.94133  0.67274  0.29039  1.0000
  H   H2531     1.0  0.54286  0.74124  0.16169  1.0000
  H   H2532     1.0  0.63828  0.52138  0.15448  1.0000
  H   H2533     1.0  0.58585  0.74564  0.16633  1.0000
  H   H2534     1.0  0.73194  0.62589  0.01579  1.0000
  S   S323      1.0  0.98156  0.71872  0.46025  1.0000
  N   N79       1.0  0.96215  0.66351  0.01875  1.0000
  H   H2535     1.0  0.93524  0.69088  0.45160  1.0000
  H   H2536     1.0  0.50325  0.57202  0.15933  1.0000
  C   C1440     1.0  0.52967  0.55420  0.16057  1.0000
  H   H2537     1.0  0.95606  0.58840  0.31389  1.0000
  C   C1441     1.0  0.96468  0.57179  0.20791  1.0000
  H   H2538     1.0  0.63222  0.56556  0.30639  1.0000
  H   H2539     1.0  0.89375  0.73515  0.46159  1.0000
  N   N80       1.0  0.66496  0.70344  0.18573  1.0000
  C   C1442     1.0  0.66705  0.72233  0.16964  1.0000
  C   C1443     1.0  0.65382  0.70065  0.21559  1.0000
  C   C1444     1.0  0.68498  0.70322  0.18934  1.0000
  C   C1445     1.0  0.65396  0.68756  0.16837  1.0000
  C   C1446     1.0  0.63358  0.68659  0.16015  1.0000
  C   C1447     1.0  0.67571  0.72665  0.13672  1.0000
  C   C1448     1.0  0.68566  0.68548  0.20820  1.0000
  C   C1449     1.0  0.66440  0.71402  0.23836  1.0000
  C   C1450     1.0  0.65160  0.71006  0.26739  1.0000
  C   C1451     1.0  0.62395  0.67017  0.14230  1.0000
  C   C1452     1.0  0.65810  0.73105  0.04370  1.0000
  C   C1453     1.0  0.70660  0.68750  0.21254  1.0000
  H   H2540     1.0  0.67655  0.73400  0.18136  1.0000
  H   H2541     1.0  0.65280  0.72395  0.17024  1.0000
  H   H2542     1.0  0.63993  0.70270  0.21268  1.0000
  H   H2543     1.0  0.64929  0.68582  0.22631  1.0000
  H   H2544     1.0  0.69432  0.71601  0.19896  1.0000
  H   H2545     1.0  0.69249  0.70404  0.16720  1.0000
  H   H2546     1.0  0.66272  0.68783  0.14771  1.0000
  H   H2547     1.0  0.65154  0.67380  0.18132  1.0000
  H   H2548     1.0  0.63446  0.69971  0.14653  1.0000
  H   H2549     1.0  0.62383  0.68425  0.18055  1.0000
  H   H2550     1.0  0.69081  0.72710  0.13527  1.0000
  H   H2551     1.0  0.66688  0.71593  0.12295  1.0000
  H   H2552     1.0  0.67893  0.67274  0.19686  1.0000
  H   H2553     1.0  0.67799  0.68297  0.23065  1.0000
  H   H2554     1.0  0.67800  0.71215  0.24403  1.0000
  H   H2555     1.0  0.66801  0.72900  0.22948  1.0000
  H   H2556     1.0  0.64780  0.69526  0.27762  1.0000
  H   H2557     1.0  0.65953  0.71965  0.28342  1.0000
  H   H2558     1.0  0.63804  0.71251  0.26328  1.0000
  H   H2559     1.0  0.60936  0.66983  0.13695  1.0000
  H   H2560     1.0  0.63285  0.67184  0.12115  1.0000
  H   H2561     1.0  0.62198  0.65654  0.15554  1.0000
  H   H2562     1.0  0.74140  0.56022  0.16113  1.0000
  H   H2563     1.0  0.56493  0.56236  0.25350  1.0000
  C   C1454     1.0  0.95342  0.65657  0.42436  1.0000
  H   H2564     1.0  0.71394  0.69966  0.22493  1.0000
  H   H2565     1.0  0.70655  0.67447  0.22565  1.0000
  H   H2566     1.0  0.71490  0.68946  0.19070  1.0000
  H   H2567     1.0  0.71422  0.55468  0.09308  1.0000
  C   C1455     1.0  0.97363  0.72249  0.28173  1.0000
  H   H2568     1.0  0.60299  0.74147  0.06874  1.0000
  H   H2569     1.0  0.88774  0.67777  0.18587  1.0000
  H   H2570     1.0  0.94682  0.63731  0.12054  1.0000
  C   C1456     1.0  0.53309  0.57341  0.27351  1.0000
  H   H2571     1.0  0.71270  0.66639  0.48339  1.0000
  H   H2572     1.0  0.93433  0.64875  0.04430  1.0000
  H   H2573     1.0  0.89276  0.62812  0.35960  1.0000
  C   C1457     1.0  0.91024  0.69441  0.21364  1.0000
  H   H2574     1.0  0.68591  0.59863  0.03298  1.0000
  H   H2575     1.0  0.55193  0.53697  0.26117  1.0000
  H   H2576     1.0  0.64933  0.70152  0.04063  1.0000
  H   H2577     1.0  0.52224  0.61536  0.46045  1.0000
  H   H2578     1.0  0.97780  0.59691  0.33331  1.0000
  H   H2579     1.0  0.84077  0.66047  0.30018  1.0000
  H   H2580     1.0  0.75399  0.55947  0.06017  1.0000
  C   C1458     1.0  0.90946  0.63523  0.26966  1.0000
  C   C1459     1.0  0.66882  0.58656  0.31971  1.0000
  H   H2581     1.0  0.87103  0.63210  0.36983  1.0000
  C   C1460     1.0  0.51280  0.54017  0.27159  1.0000
  S   S324      1.0  0.87660  0.64681  0.01349  1.0000
  H   H2582     1.0  0.50138  0.64430  0.33252  1.0000
  C   C1461     1.0  0.78166  0.69773  0.47331  1.0000
  C   C1462     1.0  0.50345  0.54519  0.24793  1.0000
  H   H2583     1.0  0.74697  0.60308  0.07013  1.0000
  H   H2584     1.0  0.82723  0.72308  0.42492  1.0000
  H   H2585     1.0  0.90128  0.71059  0.31460  1.0000
  H   H2586     1.0  0.81018  0.53077  0.36388  1.0000
  H   H2587     1.0  0.95250  0.61893  0.31292  1.0000
  H   H2588     1.0  0.60788  0.55484  0.12584  1.0000
  H   H2589     1.0  0.53386  0.57901  0.18444  1.0000
  C   C1463     1.0  0.52734  0.55422  0.28452  1.0000
  S   S325      1.0  0.55249  0.59016  0.28952  1.0000
  H   H2590     1.0  0.92748  0.69570  0.26599  1.0000
  C   C1464     1.0  0.94977  0.56289  0.23477  1.0000
  H   H2591     1.0  0.57215  0.57239  0.15844  1.0000
  C   C1465     1.0  0.59440  0.75349  0.10559  1.0000
  C   C1466     1.0  0.66258  0.71447  0.03421  1.0000
  C   C1467     1.0  0.58513  0.51690  0.05704  1.0000
  H   H2592     1.0  0.96158  0.67899  0.34829  1.0000
  Fe  Fe164     1.0  0.98681  0.50730  0.25399  1.0000
  C   C1468     1.0  0.91546  0.69596  0.03871  1.0000
  H   H2593     1.0  0.92738  0.71961  0.30600  1.0000
  Fe  Fe165     1.0  0.96263  0.70366  0.11611  1.0000
  C   C1469     1.0  0.52356  0.57851  0.25017  1.0000
  H   H2594     1.0  0.52770  0.59324  0.24166  1.0000
  H   H2595     1.0  0.94644  0.68149  0.02633  1.0000
  S   S326      1.0  0.98321  0.66861  0.46020  1.0000
  H   H2596     1.0  0.62979  0.74141  0.22212  1.0000
  H   H2597     1.0  0.74912  0.55929  0.10789  1.0000
  H   H2598     1.0  0.59593  0.56907  0.10785  1.0000
  H   H2599     1.0  0.97010  0.54195  0.17688  1.0000
  C   C1470     1.0  0.96056  0.67443  0.32571  1.0000
  H   H2600     1.0  0.53489  0.54298  0.21616  1.0000
  H   H2601     1.0  0.96287  0.54881  0.12519  1.0000
  H   H2602     1.0  0.56950  0.59407  0.34838  1.0000
  H   H2603     1.0  0.95802  0.56523  0.18824  1.0000
  H   H2604     1.0  0.80722  0.53665  0.46181  1.0000
  H   H2605     1.0  0.79367  0.71167  0.01244  1.0000
  H   H2606     1.0  0.83172  0.67361  0.02306  1.0000
  H   H2607     1.0  0.53641  0.70745  0.17490  1.0000
  H   H2608     1.0  0.50134  0.56848  0.21962  1.0000
  H   H2609     1.0  0.51020  0.57851  0.43171  1.0000
  H   H2610     1.0  0.77662  0.59035  0.03788  1.0000
  C   C1471     1.0  0.82089  0.69278  0.99755  1.0000
  H   H2611     1.0  0.51587  0.54589  0.17471  1.0000
  H   H2612     1.0  0.92372  0.66977  0.23934  1.0000
  S   S327      1.0  0.56155  0.62422  0.48545  1.0000
  H   H2613     1.0  0.96755  0.68650  0.04555  1.0000
  H   H2614     1.0  0.98351  0.60562  0.09138  1.0000
  C   C1472     1.0  0.95124  0.50805  0.31899  1.0000
  H   H2615     1.0  0.79829  0.66504  0.00832  1.0000
  H   H2616     1.0  0.86095  0.72944  0.37798  1.0000
  H   H2617     1.0  0.92644  0.69993  0.21210  1.0000
  H   H2618     1.0  0.62641  0.68061  0.46656  1.0000
  C   C1473     1.0  0.53180  0.52043  0.13772  1.0000
  C   C1474     1.0  0.91007  0.67019  0.47891  1.0000
  H   H2619     1.0  0.97106  0.61438  0.13703  1.0000
  H   H2620     1.0  0.63722  0.56603  0.07448  1.0000
  H   H2621     1.0  0.59464  0.52245  0.03593  1.0000
  H   H2622     1.0  0.66495  0.63779  0.00832  1.0000
  C   C1475     1.0  0.50087  0.57964  0.37314  1.0000
  C   C1476     1.0  0.55050  0.71823  0.17961  1.0000
  C   C1477     1.0  0.97444  0.54324  0.12967  1.0000
  H   H2623     1.0  0.56722  0.53225  0.04212  1.0000
  H   H2624     1.0  0.79213  0.74242  0.99826  1.0000
  C   C1478     1.0  0.87659  0.74316  0.42839  1.0000
  H   H2625     1.0  0.98896  0.57504  0.23408  1.0000
  H   H2626     1.0  0.66829  0.68417  0.02947  1.0000
  H   H2627     1.0  0.97034  0.62775  0.36048  1.0000
  H   H2628     1.0  0.60499  0.51123  0.14230  1.0000
  C   C1479     1.0  0.53852  0.52670  0.16840  1.0000
  H   H2629     1.0  0.92171  0.72324  0.25122  1.0000
  H   H2630     1.0  0.88428  0.64239  0.27105  1.0000
  N   N81       1.0  0.54571  0.54771  0.16994  1.0000
  H   H2631     1.0  0.73059  0.61841  0.48494  1.0000
  H   H2632     1.0  0.91390  0.73437  0.29682  1.0000
  H   H2633     1.0  0.97302  0.68465  0.31099  1.0000
  C   C1480     1.0  0.62637  0.74090  0.17511  1.0000
  H   H2634     1.0  0.53944  0.60429  0.34012  1.0000
  S   S328      1.0  0.61244  0.53250  0.25654  1.0000
  H   H2635     1.0  0.95457  0.59444  0.35106  1.0000
  H   H2636     1.0  0.58946  0.51528  0.10422  1.0000
  H   H2637     1.0  0.86924  0.69023  0.48761  1.0000
  H   H2638     1.0  0.95246  0.67013  0.42481  1.0000
  H   H2639     1.0  0.61449  0.69696  0.45949  1.0000
  H   H2640     1.0  0.64599  0.73274  0.03166  1.0000
  H   H2641     1.0  0.90633  0.70708  0.21233  1.0000
  C   C1481     1.0  0.91343  0.71971  0.29814  1.0000
  H   H2642     1.0  0.98022  0.55336  0.21923  1.0000
  H   H2643     1.0  0.90165  0.65708  0.22388  1.0000
  H   H2644     1.0  0.53586  0.57713  0.39710  1.0000
  C   C1482     1.0  0.84667  0.72103  0.39041  1.0000
  H   H2645     1.0  0.71688  0.60097  0.05510  1.0000
  H   H2646     1.0  0.97399  0.72066  0.02937  1.0000
  H   H2647     1.0  0.72979  0.54541  0.05476  1.0000
  H   H2648     1.0  0.86782  0.64253  0.41979  1.0000
  H   H2649     1.0  0.57975  0.63542  0.37798  1.0000
  H   H2650     1.0  0.97089  0.65243  0.07702  1.0000
  C   C1483     1.0  0.84766  0.66284  0.27712  1.0000
  H   H2651     1.0  0.54681  0.61351  0.37356  1.0000
  C   C1484     1.0  0.54139  0.58361  0.37404  1.0000
  H   H2652     1.0  0.89892  0.67006  0.43551  1.0000
  H   H2653     1.0  0.94806  0.63450  0.03883  1.0000
  C   C1485     1.0  0.98479  0.72404  0.30646  1.0000
  H   H2654     1.0  0.72458  0.69203  0.44147  1.0000
  C   C1486     1.0  0.70611  0.71123  0.01602  1.0000
  H   H2655     1.0  0.87440  0.66252  0.29250  1.0000
  H   H2656     1.0  0.51858  0.59237  0.47890  1.0000
  H   H2657     1.0  0.73299  0.64766  0.02867  1.0000
  N   N82       1.0  0.90196  0.68200  0.24290  1.0000
  H   H2658     1.0  0.90563  0.62780  0.24959  1.0000
  C   C1487     1.0  0.91013  0.69990  0.15728  1.0000
  H   H2659     1.0  0.93600  0.56480  0.23023  1.0000
  C   C1488     1.0  0.78525  0.61649  0.05621  1.0000
  H   H2660     1.0  0.95376  0.60621  0.42667  1.0000
  H   H2661     1.0  0.86628  0.61963  0.43439  1.0000
  H   H2662     1.0  0.97653  0.62960  0.45561  1.0000
  H   H2663     1.0  0.87392  0.61065  0.38473  1.0000
  H   H2664     1.0  0.87318  0.66352  0.23379  1.0000
  C   C1489     1.0  0.70675  0.58715  0.04966  1.0000
  C   C1490     1.0  0.90756  0.66502  0.24282  1.0000
  H   H2665     1.0  0.78456  0.62489  0.03516  1.0000
  C   C1491     1.0  0.56493  0.54840  0.24919  1.0000
  H   H2666     1.0  0.97564  0.67013  0.26957  1.0000
  H   H2667     1.0  0.90593  0.68504  0.28974  1.0000
  H   H2668     1.0  0.76504  0.64154  0.46924  1.0000
  C   C1492     1.0  0.53619  0.60109  0.36474  1.0000
  H   H2669     1.0  0.94156  0.68937  0.31585  1.0000
  H   H2670     1.0  0.58174  0.54222  0.16629  1.0000
  C   C1493     1.0  0.51017  0.61237  0.35174  1.0000
  C   C1494     1.0  0.98001  0.71837  0.25465  1.0000
  C   C1495     1.0  0.94933  0.64890  0.04338  1.0000
  N   N83       1.0  0.88420  0.64196  0.45838  1.0000
  S   S329      1.0  0.98150  0.72962  0.13608  1.0000
  H   H2671     1.0  0.95086  0.64581  0.34701  1.0000
  H   H2672     1.0  0.86629  0.65862  0.46042  1.0000
  H   H2673     1.0  0.71991  0.57865  0.09843  1.0000
  C   C1496     1.0  0.94187  0.67518  0.31414  1.0000
  H   H2674     1.0  0.74470  0.68530  0.43211  1.0000
  C   C1497     1.0  0.90139  0.68319  0.02292  1.0000
  H   H2675     1.0  0.51106  0.60865  0.32872  1.0000
  C   C1498     1.0  0.72637  0.56880  0.09072  1.0000
  H   H2676     1.0  0.91066  0.67486  0.18137  1.0000
  H   H2677     1.0  0.90109  0.62854  0.41195  1.0000
  C   C1499     1.0  0.57863  0.54871  0.14523  1.0000
  H   H2678     1.0  0.84354  0.74538  0.40686  1.0000
  H   H2679     1.0  0.69876  0.72318  0.48110  1.0000
  C   C1500     1.0  0.89147  0.63566  0.40429  1.0000
  H   H2680     1.0  0.90035  0.65059  0.39568  1.0000
  C   C1501     1.0  0.73571  0.65489  0.47605  1.0000
  C   C1502     1.0  0.75014  0.59423  0.05422  1.0000
  C   C1503     1.0  0.88007  0.67617  0.24548  1.0000
  H   H2681     1.0  0.57808  0.54696  0.25787  1.0000
  H   H2682     1.0  0.75015  0.60158  0.03176  1.0000
  C   C1504     1.0  0.91165  0.69313  0.26748  1.0000
  H   H2683     1.0  0.86202  0.70753  0.44405  1.0000
  C   C1505     1.0  0.98269  0.62493  0.12240  1.0000
  H   H2684     1.0  0.52053  0.59579  0.14886  1.0000
  H   H2685     1.0  0.77324  0.58794  0.07753  1.0000
  H   H2686     1.0  0.67431  0.73928  0.47459  1.0000
  C   C1506     1.0  0.96633  0.63338  0.44266  1.0000
  H   H2687     1.0  0.84336  0.64896  0.26846  1.0000
  H   H2688     1.0  0.68335  0.74902  0.09958  1.0000
  H   H2689     1.0  0.82268  0.72261  0.47897  1.0000
  C   C1507     1.0  0.51628  0.64516  0.32596  1.0000
  H   H2690     1.0  0.49829  0.59672  0.46391  1.0000
  C   C1508     1.0  0.85274  0.71338  0.45632  1.0000
  H   H2691     1.0  0.90284  0.71010  0.15831  1.0000
  H   H2692     1.0  0.58133  0.53480  0.37749  1.0000
  H   H2693     1.0  0.51657  0.51944  0.13588  1.0000
  H   H2694     1.0  0.65378  0.72859  0.06798  1.0000
  H   H2695     1.0  0.73050  0.70414  0.00078  1.0000
  H   H2696     1.0  0.87645  0.61289  0.47778  1.0000
  C   C1509     1.0  0.67633  0.74580  0.12265  1.0000
  C   C1510     1.0  0.73059  0.55995  0.14475  1.0000
  C   C1511     1.0  0.90767  0.62477  0.47366  1.0000
  C   C1512     1.0  0.66080  0.64911  0.01621  1.0000
  C   C1513     1.0  0.83134  0.71853  0.36794  1.0000
  H   H2697     1.0  0.85734  0.57502  0.48535  1.0000
  S   S330      1.0  0.98032  0.64993  0.15963  1.0000
  C   C1514     1.0  0.51443  0.60546  0.40408  1.0000
  H   H2698     1.0  0.78472  0.51727  0.37582  1.0000
  H   H2699     1.0  0.79363  0.68282  0.02509  1.0000
  H   H2700     1.0  0.72309  0.57951  0.01658  1.0000
  C   C1515     1.0  0.72810  0.67122  0.47444  1.0000
  H   H2701     1.0  0.83196  0.64799  0.48748  1.0000
  C   C1516     1.0  0.72790  0.71549  0.01149  1.0000
  N   N84       1.0  0.85586  0.73296  0.44172  1.0000
  C   C1517     1.0  0.91028  0.71278  0.26753  1.0000
  C   C1518     1.0  0.84273  0.73116  0.41651  1.0000
  C   C1519     1.0  0.59754  0.51522  0.08316  1.0000
  H   H2702     1.0  0.56200  0.71243  0.17648  1.0000
  H   H2703     1.0  0.68967  0.69771  0.48710  1.0000
  H   H2704     1.0  0.73545  0.72919  0.99737  1.0000
  H   H2705     1.0  0.73424  0.71639  0.03335  1.0000
  H   H2706     1.0  0.49475  0.61062  0.35698  1.0000
  H   H2707     1.0  0.55930  0.66033  0.46481  1.0000
  H   H2708     1.0  0.58779  0.73936  0.11873  1.0000
  H   H2709     1.0  0.98619  0.54913  0.11131  1.0000
  C   C1520     1.0  0.79117  0.68622  0.46404  1.0000
  H   H2710     1.0  0.92617  0.70772  0.15534  1.0000
  H   H2711     1.0  0.63880  0.70270  0.44300  1.0000
  H   H2712     1.0  0.78191  0.62020  0.48099  1.0000
  H   H2713     1.0  0.78145  0.62272  0.07548  1.0000
  S   S331      1.0  0.97864  0.52993  0.27325  1.0000
  C   C1521     1.0  0.83287  0.68849  0.02187  1.0000
  C   C1522     1.0  0.89275  0.74817  0.45031  1.0000
  H   H2714     1.0  0.98236  0.64959  0.02861  1.0000
  C   C1523     1.0  0.96703  0.61860  0.31660  1.0000
  H   H2715     1.0  0.72899  0.64572  0.45864  1.0000
  H   H2716     1.0  0.68453  0.57726  0.01845  1.0000
  H   H2717     1.0  0.95420  0.71481  0.00538  1.0000
  C   C1524     1.0  0.98246  0.54825  0.15960  1.0000
  H   H2718     1.0  0.96810  0.52764  0.13013  1.0000
  H   H2719     1.0  0.97340  0.64617  0.26919  1.0000
  H   H2720     1.0  0.50880  0.52546  0.27996  1.0000
  H   H2721     1.0  0.57956  0.74326  0.06641  1.0000
  C   C1525     1.0  0.88794  0.62706  0.47880  1.0000
  H   H2722     1.0  0.75766  0.60723  0.47142  1.0000
  C   C1526     1.0  0.96373  0.59840  0.32958  1.0000
  H   H2723     1.0  0.84844  0.69782  0.01674  1.0000
  H   H2724     1.0  0.64476  0.64463  0.01609  1.0000
  H   H2725     1.0  0.55554  0.73283  0.13547  1.0000
  H   H2726     1.0  0.57115  0.51879  0.35054  1.0000
  H   H2727     1.0  0.53459  0.59642  0.42936  1.0000
  H   H2728     1.0  0.94042  0.67310  0.47474  1.0000
  C   C1527     1.0  0.80144  0.67945  0.48433  1.0000
  H   H2729     1.0  0.89605  0.68836  0.00342  1.0000
  C   C1528     1.0  0.57448  0.75184  0.16513  1.0000
  H   H2730     1.0  0.80864  0.67041  0.47753  1.0000
  H   H2731     1.0  0.91606  0.75177  0.41642  1.0000
  C   C1529     1.0  0.62920  0.50611  0.15934  1.0000
  C   C1530     1.0  0.76115  0.63291  0.49135  1.0000
  C   C1531     1.0  0.96977  0.71702  0.00681  1.0000
  H   H2732     1.0  0.90226  0.67964  0.48326  1.0000
  H   H2733     1.0  0.92036  0.63825  0.47278  1.0000
  H   H2734     1.0  0.66136  0.74566  0.12166  1.0000
  H   H2735     1.0  0.93111  0.51002  0.25867  1.0000
  H   H2736     1.0  0.82293  0.70786  0.99704  1.0000
  C   C1532     1.0  0.86860  0.64680  0.47397  1.0000
  H   H2737     1.0  0.67873  0.73166  0.99361  1.0000
  H   H2738     1.0  0.63930  0.72058  0.48531  1.0000
  C   C1533     1.0  0.76621  0.61559  0.48834  1.0000
  H   H2739     1.0  0.74992  0.53458  0.01545  1.0000
  H   H2740     1.0  0.94190  0.50741  0.22399  1.0000
  C   C1534     1.0  0.66783  0.71702  0.00006  1.0000
  C   C1535     1.0  0.59460  0.75044  0.07275  1.0000
  C   C1536     1.0  0.93724  0.50545  0.34266  1.0000
  C   C1537     1.0  0.85615  0.71123  0.48992  1.0000
  C   C1538     1.0  0.79902  0.67981  0.00366  1.0000
  H   H2741     1.0  0.70415  0.59924  0.00498  1.0000
  H   H2742     1.0  0.96000  0.59091  0.47875  1.0000
  H   H2743     1.0  0.57366  0.51168  0.28303  1.0000
  C   C1539     1.0  0.84848  0.63023  0.48083  1.0000
  H   H2744     1.0  0.67114  0.74431  0.03904  1.0000
  H   H2745     1.0  0.77060  0.70880  0.99828  1.0000
  C   C1540     1.0  0.75825  0.54970  0.00722  1.0000
  H   H2746     1.0  0.77239  0.55467  0.01737  1.0000
  H   H2747     1.0  0.62488  0.51357  0.04727  1.0000
  H   H2748     1.0  0.73312  0.55675  0.00250  1.0000
  Fe  Fe166     1.0  0.91531  0.55802  0.72761  1.0000
  S   S332      1.0  0.92966  0.56903  0.68136  1.0000
  Fe  Fe167     1.0  0.89804  0.58845  0.72994  1.0000
  S   S333      1.0  0.91123  0.60170  0.68359  1.0000
  S   S334      1.0  0.88122  0.60398  0.75192  1.0000
  Fe  Fe168     1.0  0.90177  0.57233  0.67109  1.0000
  S   S335      1.0  0.88798  0.56783  0.62713  1.0000
  Fe  Fe169     1.0  0.93803  0.59753  0.69711  1.0000
  S   S336      1.0  0.96739  0.61963  0.67995  1.0000
  S   S337      1.0  0.88631  0.55904  0.71643  1.0000
  S   S338      1.0  0.92581  0.58648  0.74442  1.0000
  S   S339      1.0  0.92666  0.55350  0.50937  1.0000
  Fe  Fe170     1.0  0.84806  0.66503  0.91587  1.0000
  S   S340      1.0  0.83625  0.65801  0.96378  1.0000
  S   S341      1.0  0.85200  0.69233  0.88738  1.0000
  Fe  Fe171     1.0  0.85324  0.62787  0.91328  1.0000
  S   S342      1.0  0.84100  0.61787  0.96116  1.0000
  S   S343      1.0  0.86559  0.60905  0.89008  1.0000
  Fe  Fe172     1.0  0.81821  0.62967  0.95008  1.0000
  S   S344      1.0  0.78643  0.61865  0.96916  1.0000
  Fe  Fe173     1.0  0.86006  0.64692  0.97136  1.0000
  N   N85       1.0  0.72536  0.61406  0.83963  1.0000
  S   S345      1.0  0.82883  0.63743  0.90150  1.0000
  S   S346      1.0  0.87341  0.65619  0.92408  1.0000
  Fe  Fe174     1.0  0.77057  0.73339  0.89353  1.0000
  S   S347      1.0  0.75430  0.70488  0.87990  1.0000
  C   C1541     1.0  0.94087  0.51189  0.76267  1.0000
  C   C1542     1.0  0.57375  0.53276  0.72537  1.0000
  S   S348      1.0  0.71522  0.71483  0.88764  1.0000
  Fe  Fe175     1.0  0.73234  0.70269  0.91672  1.0000
  S   S349      1.0  0.71935  0.67703  0.95045  1.0000
  Fe  Fe176     1.0  0.73887  0.71967  0.85151  1.0000
  S   S350      1.0  0.74968  0.73007  0.93297  1.0000
  C   C1543     1.0  0.84394  0.53668  0.59445  1.0000
  S   S351      1.0  0.65576  0.53326  0.94660  1.0000
  Fe  Fe177     1.0  0.65671  0.58240  0.91612  1.0000
  S   S352      1.0  0.66546  0.56425  0.88776  1.0000
  S   S353      1.0  0.65858  0.61039  0.89325  1.0000
  Fe  Fe178     1.0  0.63891  0.54030  0.90956  1.0000
  S   S354      1.0  0.62108  0.51889  0.87934  1.0000
  Fe  Fe179     1.0  0.68160  0.55901  0.92637  1.0000
  S   S355      1.0  0.71256  0.56063  0.91632  1.0000
  S   S356      1.0  0.62908  0.55901  0.93565  1.0000
  H   H2749     1.0  0.83805  0.58118  0.50050  1.0000
  Fe  Fe180     1.0  0.76532  0.72779  0.63894  1.0000
  S   S357      1.0  0.77714  0.74114  0.68036  1.0000
  Fe  Fe181     1.0  0.73428  0.69552  0.61432  1.0000
  S   S358      1.0  0.74482  0.70706  0.56675  1.0000
  S   S359      1.0  0.70834  0.66891  0.62924  1.0000
  Fe  Fe182     1.0  0.77459  0.71291  0.58198  1.0000
  S   S360      1.0  0.79685  0.70421  0.55803  1.0000
  S   S361      1.0  0.76380  0.69929  0.62906  1.0000
  Fe  Fe183     1.0  0.57873  0.62258  0.59291  1.0000
  S   S362      1.0  0.58953  0.61519  0.55054  1.0000
  S   S363      1.0  0.56339  0.60418  0.63655  1.0000
  Fe  Fe184     1.0  0.59264  0.66490  0.56865  1.0000
  S   S364      1.0  0.60402  0.66062  0.52447  1.0000
  S   S365      1.0  0.59697  0.69269  0.58690  1.0000
  Fe  Fe185     1.0  0.57693  0.63459  0.52653  1.0000
  Fe  Fe186     1.0  0.61591  0.64177  0.55092  1.0000
  S   S366      1.0  0.64641  0.64604  0.53417  1.0000
  S   S367      1.0  0.56408  0.64021  0.56894  1.0000
  S   S368      1.0  0.60650  0.64771  0.59514  1.0000
  H   H2750     1.0  0.81707  0.74177  0.69081  1.0000
  H   H2751     1.0  0.60187  0.57290  0.72549  1.0000
  H   H2752     1.0  0.91083  0.62947  0.60973  1.0000
  H   H2753     1.0  0.85923  0.54426  0.50413  1.0000
  H   H2754     1.0  0.96009  0.61647  0.74371  1.0000
  C   C1544     1.0  0.68553  0.71060  0.52668  1.0000
  S   S369      1.0  0.53573  0.51529  0.67383  1.0000
  C   C1545     1.0  0.98216  0.62997  0.70781  1.0000
  C   C1546     1.0  0.55606  0.57945  0.64637  1.0000
  C   C1547     1.0  0.56168  0.56814  0.62867  1.0000
  C   C1548     1.0  0.55566  0.54858  0.63765  1.0000
  C   C1549     1.0  0.54378  0.54010  0.66417  1.0000
  C   C1550     1.0  0.53810  0.55139  0.68177  1.0000
  C   C1551     1.0  0.54434  0.57097  0.67307  1.0000
  H   H2755     1.0  0.57071  0.57447  0.60812  1.0000
  H   H2756     1.0  0.56006  0.53995  0.62377  1.0000
  H   H2757     1.0  0.52876  0.54497  0.70190  1.0000
  H   H2758     1.0  0.53990  0.57961  0.68688  1.0000
  C   C1552     1.0  0.69118  0.66237  0.60276  1.0000
  C   C1553     1.0  0.69695  0.66694  0.57230  1.0000
  C   C1554     1.0  0.68307  0.66168  0.55140  1.0000
  C   C1555     1.0  0.66338  0.65203  0.56088  1.0000
  C   C1556     1.0  0.65759  0.64724  0.59130  1.0000
  C   C1557     1.0  0.67152  0.65229  0.61223  1.0000
  H   H2759     1.0  0.71212  0.67416  0.56486  1.0000
  H   H2760     1.0  0.68752  0.66529  0.52785  1.0000
  H   H2761     1.0  0.64243  0.63945  0.59870  1.0000
  H   H2762     1.0  0.66701  0.64855  0.63578  1.0000
  C   C1558     1.0  0.60966  0.71566  0.56823  1.0000
  C   C1559     1.0  0.62045  0.73002  0.58476  1.0000
  H   H2763     1.0  0.59932  0.70939  0.52530  1.0000
  H   H2764     1.0  0.62175  0.72655  0.60812  1.0000
  C   C1560     1.0  0.59949  0.51775  0.86229  1.0000
  H   H2765     1.0  0.76127  0.55109  0.98267  1.0000
  C   C1561     1.0  0.66863  0.70076  0.95637  1.0000
  C   C1562     1.0  0.97859  0.56967  0.70019  1.0000
  C   C1563     1.0  0.58846  0.57455  0.73437  1.0000
  H   H2766     1.0  0.58366  0.59813  0.75374  1.0000
  C   C1564     1.0  0.58770  0.52690  0.87225  1.0000
  H   H2767     1.0  0.98165  0.68435  0.84605  1.0000
  H   H2768     1.0  0.90145  0.50844  0.83648  1.0000
  H   H2769     1.0  0.95877  0.65293  0.83801  1.0000
  H   H2770     1.0  0.51462  0.54950  0.61185  1.0000
  H   H2771     1.0  0.97480  0.63382  0.60669  1.0000
  C   C1565     1.0  0.76379  0.73217  0.71540  1.0000
  C   C1566     1.0  0.74964  0.71389  0.72058  1.0000
  C   C1567     1.0  0.73945  0.70704  0.74883  1.0000
  H   H2772     1.0  0.74656  0.70502  0.70282  1.0000
  H   H2773     1.0  0.72846  0.69289  0.75261  1.0000
  C   C1568     1.0  0.70113  0.65912  0.93532  1.0000
  C   C1569     1.0  0.69707  0.66177  0.90569  1.0000
  C   C1570     1.0  0.68323  0.64700  0.89329  1.0000
  C   C1571     1.0  0.67381  0.62940  0.91027  1.0000
  C   C1572     1.0  0.67736  0.62697  0.94021  1.0000
  C   C1573     1.0  0.69103  0.64182  0.95273  1.0000
  H   H2774     1.0  0.70498  0.67496  0.89195  1.0000
  H   H2775     1.0  0.68042  0.64897  0.87017  1.0000
  H   H2776     1.0  0.94627  0.50834  0.67833  1.0000
  H   H2777     1.0  0.59197  0.53544  0.89030  1.0000
  C   C1574     1.0  0.76629  0.60324  0.95265  1.0000
  C   C1575     1.0  0.76848  0.59335  0.92933  1.0000
  C   C1576     1.0  0.75191  0.58039  0.91826  1.0000
  C   C1577     1.0  0.73306  0.57732  0.93021  1.0000
  C   C1578     1.0  0.73092  0.58744  0.95315  1.0000
  C   C1579     1.0  0.74744  0.60034  0.96423  1.0000
  H   H2778     1.0  0.78291  0.59538  0.92026  1.0000
  H   H2779     1.0  0.75373  0.57256  0.90055  1.0000
  H   H2780     1.0  0.71652  0.58530  0.96238  1.0000
  H   H2781     1.0  0.70489  0.57514  0.85966  1.0000
  C   C1580     1.0  0.83670  0.70457  0.89456  1.0000
  C   C1581     1.0  0.81901  0.70031  0.88144  1.0000
  C   C1582     1.0  0.80808  0.71172  0.88397  1.0000
  C   C1583     1.0  0.81518  0.72791  0.89843  1.0000
  C   C1584     1.0  0.83301  0.73231  0.91111  1.0000
  C   C1585     1.0  0.84364  0.72063  0.90937  1.0000
  H   H2782     1.0  0.81406  0.68854  0.86858  1.0000
  H   H2783     1.0  0.94698  0.57008  0.80209  1.0000
  H   H2784     1.0  0.97071  0.65951  0.57935  1.0000
  H   H2785     1.0  0.85762  0.72444  0.91861  1.0000
  C   C1586     1.0  0.80917  0.50687  0.52506  1.0000
  C   C1587     1.0  0.80278  0.68478  0.51332  1.0000
  C   C1588     1.0  0.79340  0.69644  0.52248  1.0000
  H   H2786     1.0  0.70336  0.72400  0.97325  1.0000
  H   H2787     1.0  0.93872  0.67027  0.84615  1.0000
  H   H2788     1.0  0.75888  0.62398  0.87500  1.0000
  H   H2789     1.0  0.77533  0.71167  0.50926  1.0000
  H   H2790     1.0  0.78644  0.73689  0.96126  1.0000
  H   H2791     1.0  0.73392  0.63393  0.79943  1.0000
  H   H2792     1.0  0.69596  0.59950  0.82782  1.0000
  H   H2793     1.0  0.57568  0.74450  0.50619  1.0000
  H   H2794     1.0  0.81903  0.54109  0.61459  1.0000
  C   C1589     1.0  0.87693  0.60511  0.79044  1.0000
  C   C1590     1.0  0.88118  0.59354  0.81257  1.0000
  C   C1591     1.0  0.87752  0.59490  0.84289  1.0000
  C   C1592     1.0  0.86956  0.60781  0.85148  1.0000
  C   C1593     1.0  0.86530  0.61939  0.82932  1.0000
  C   C1594     1.0  0.86897  0.61802  0.79899  1.0000
  H   H2795     1.0  0.88701  0.58335  0.80630  1.0000
  H   H2796     1.0  0.88075  0.58580  0.85985  1.0000
  H   H2797     1.0  0.85912  0.62934  0.83557  1.0000
  H   H2798     1.0  0.86553  0.62698  0.78202  1.0000
  C   C1595     1.0  0.90095  0.56608  0.59476  1.0000
  C   C1596     1.0  0.91576  0.55898  0.59605  1.0000
  C   C1597     1.0  0.92395  0.55559  0.56966  1.0000
  C   C1598     1.0  0.91726  0.55912  0.54196  1.0000
  C   C1599     1.0  0.90311  0.56695  0.54067  1.0000
  C   C1600     1.0  0.89515  0.57062  0.56691  1.0000
  H   H2799     1.0  0.92036  0.55541  0.61741  1.0000
  H   H2800     1.0  0.93502  0.54962  0.57081  1.0000
  H   H2801     1.0  0.89798  0.56964  0.51942  1.0000
  H   H2802     1.0  0.88406  0.57656  0.56579  1.0000
  C   C1601     1.0  0.88803  0.50888  0.53354  1.0000
  H   H2803     1.0  0.97660  0.54217  0.73938  1.0000
  H   H2804     1.0  0.67502  0.59783  0.56065  1.0000
  H   H2805     1.0  0.91738  0.64125  0.70457  1.0000
  H   H2806     1.0  0.95449  0.56906  0.74902  1.0000
  H   H2807     1.0  0.98815  0.55129  0.67457  1.0000
  C   C1602     1.0  0.57005  0.52458  0.85944  1.0000
  H   H2808     1.0  0.61395  0.60727  0.70029  1.0000
  C   C1603     1.0  0.48932  0.52285  0.62088  1.0000
  H   H2809     1.0  0.65890  0.72084  0.58477  1.0000
  C   C1604     1.0  0.98144  0.65967  0.56161  1.0000
  C   C1605     1.0  0.57611  0.50464  0.82560  1.0000
  H   H2810     1.0  0.82990  0.55485  0.54141  1.0000
  H   H2811     1.0  0.91036  0.64030  0.81144  1.0000
  C   C1606     1.0  0.76772  0.74350  0.73872  1.0000
  H   H2812     1.0  0.68254  0.68572  0.70543  1.0000
  H   H2813     1.0  0.98191  0.62862  0.78318  1.0000
  C   C1607     1.0  0.96183  0.57863  0.79152  1.0000
  H   H2814     1.0  0.89774  0.50913  0.51407  1.0000
  H   H2815     1.0  0.96014  0.68398  0.80456  1.0000
  C   C1608     1.0  0.83056  0.53596  0.62144  1.0000
  H   H2816     1.0  0.91786  0.61657  0.85018  1.0000
  H   H2817     1.0  0.75944  0.66251  0.51943  1.0000
  H   H2818     1.0  0.86393  0.55345  0.53833  1.0000
  H   H2819     1.0  0.84197  0.74258  0.79117  1.0000
  C   C1609     1.0  0.83127  0.51076  0.52315  1.0000
  H   H2820     1.0  0.94324  0.64762  0.70615  1.0000
  H   H2821     1.0  0.97595  0.50461  0.84631  1.0000
  C   C1610     1.0  0.95408  0.65746  0.98963  1.0000
  H   H2822     1.0  0.81008  0.73946  0.97342  1.0000
  H   H2823     1.0  0.70215  0.63339  0.49558  1.0000
  C   C1611     1.0  0.94489  0.50940  0.70189  1.0000
  H   H2824     1.0  0.87082  0.52889  0.56361  1.0000
  C   C1612     1.0  0.92693  0.65104  0.95462  1.0000
  H   H2825     1.0  0.96293  0.64286  0.53063  1.0000
  H   H2826     1.0  0.87320  0.65202  0.49560  1.0000
  C   C1613     1.0  0.83021  0.74550  0.73320  1.0000
  H   H2827     1.0  0.96860  0.60938  0.60821  1.0000
  C   C1614     1.0  0.93012  0.64896  0.71668  1.0000
  H   H2828     1.0  0.52036  0.55619  0.74854  1.0000
  C   C1615     1.0  0.67874  0.74545  0.49548  1.0000
  H   H2829     1.0  0.85556  0.53227  0.60306  1.0000
  C   C1616     1.0  0.69318  0.72369  0.68083  1.0000
  H   H2830     1.0  0.96263  0.59315  0.78459  1.0000
  C   C1617     1.0  0.69718  0.71083  0.49731  1.0000
  H   H2831     1.0  0.82374  0.52135  0.63305  1.0000
  C   C1618     1.0  0.66735  0.73201  0.52346  1.0000
  H   H2832     1.0  0.95473  0.64347  0.98666  1.0000
  H   H2833     1.0  0.69505  0.72210  0.53880  1.0000
  H   H2834     1.0  0.49407  0.53916  0.65762  1.0000
  H   H2835     1.0  0.62567  0.69933  0.50927  1.0000
  S   S370      1.0  0.80267  0.74336  0.90019  1.0000
  H   H2836     1.0  0.84303  0.68053  0.49557  1.0000
  H   H2837     1.0  0.82745  0.54699  0.50497  1.0000
  H   H2838     1.0  0.78010  0.70213  0.95022  1.0000
  H   H2839     1.0  0.98578  0.61267  0.54103  1.0000
  H   H2840     1.0  0.66703  0.74006  0.67637  1.0000
  H   H2841     1.0  0.74554  0.60814  0.98182  1.0000
  H   H2842     1.0  0.75539  0.67435  0.97526  1.0000
  C   C1619     1.0  0.83255  0.52360  0.57182  1.0000
  H   H2843     1.0  0.92451  0.62540  0.74955  1.0000
  H   H2844     1.0  0.91219  0.61822  0.52001  1.0000
  H   H2845     1.0  0.68187  0.62253  0.56412  1.0000
  C   C1620     1.0  0.98729  0.63269  0.76002  1.0000
  C   C1621     1.0  0.74389  0.65544  0.52786  1.0000
  C   C1622     1.0  0.74258  0.64576  0.55993  1.0000
  H   H2846     1.0  0.51008  0.53485  0.58210  1.0000
  C   C1623     1.0  0.70209  0.61598  0.53523  1.0000
  C   C1624     1.0  0.68150  0.61225  0.54830  1.0000
  C   C1625     1.0  0.75700  0.65891  0.57874  1.0000
  H   H2847     1.0  0.84399  0.74554  0.74179  1.0000
  H   H2848     1.0  0.83923  0.54522  0.63736  1.0000
  H   H2849     1.0  0.95672  0.64828  0.75827  1.0000
  H   H2850     1.0  0.70323  0.71546  0.72358  1.0000
  H   H2851     1.0  0.73887  0.66721  0.53019  1.0000
  H   H2852     1.0  0.72781  0.64221  0.57093  1.0000
  H   H2853     1.0  0.65248  0.69383  0.95689  1.0000
  H   H2854     1.0  0.83699  0.51530  0.49932  1.0000
  C   C1626     1.0  0.98616  0.58121  0.74858  1.0000
  H   H2855     1.0  0.71087  0.61503  0.55404  1.0000
  C   C1627     1.0  0.67418  0.73466  0.73354  1.0000
  H   H2856     1.0  0.79380  0.74306  0.83338  1.0000
  H   H2857     1.0  0.75498  0.65209  0.60208  1.0000
  H   H2858     1.0  0.75462  0.67231  0.57891  1.0000
  C   C1628     1.0  0.59361  0.50668  0.83878  1.0000
  C   C1629     1.0  0.96013  0.65515  0.81334  1.0000
  C   C1630     1.0  0.72755  0.63274  0.82262  1.0000
  C   C1631     1.0  0.71840  0.61224  0.87209  1.0000
  C   C1632     1.0  0.72520  0.63079  0.88706  1.0000
  C   C1633     1.0  0.70837  0.63632  0.82022  1.0000
  C   C1634     1.0  0.72473  0.62695  0.92076  1.0000
  C   C1635     1.0  0.71232  0.65736  0.81355  1.0000
  H   H2859     1.0  0.73816  0.64475  0.83206  1.0000
  H   H2860     1.0  0.70219  0.60634  0.87532  1.0000
  H   H2861     1.0  0.72263  0.60160  0.88546  1.0000
  H   H2862     1.0  0.71558  0.63854  0.88190  1.0000
  H   H2863     1.0  0.74015  0.64055  0.87934  1.0000
  H   H2864     1.0  0.70040  0.62911  0.80183  1.0000
  H   H2865     1.0  0.69853  0.63068  0.84092  1.0000
  H   H2866     1.0  0.72702  0.64011  0.93083  1.0000
  H   H2867     1.0  0.71062  0.61593  0.93021  1.0000
  H   H2868     1.0  0.73682  0.62250  0.92637  1.0000
  H   H2869     1.0  0.71921  0.66501  0.83228  1.0000
  H   H2870     1.0  0.72197  0.66360  0.79274  1.0000
  H   H2871     1.0  0.69840  0.65936  0.81077  1.0000
  H   H2872     1.0  0.85863  0.58306  0.52178  1.0000
  H   H2873     1.0  0.52156  0.57401  0.77221  1.0000
  H   H2874     1.0  0.92461  0.66411  0.79841  1.0000
  H   H2875     1.0  0.67201  0.72913  0.88930  1.0000
  H   H2876     1.0  0.88671  0.62962  0.50247  1.0000
  C   C1636     1.0  0.69426  0.74680  0.71675  1.0000
  H   H2877     1.0  0.96903  0.69651  0.97772  1.0000
  H   H2878     1.0  0.83157  0.72776  0.69901  1.0000
  H   H2879     1.0  0.67028  0.70502  0.89461  1.0000
  H   H2880     1.0  0.49586  0.54130  0.70752  1.0000
  H   H2881     1.0  0.83982  0.63940  0.52129  1.0000
  H   H2882     1.0  0.67462  0.69147  0.94548  1.0000
  H   H2883     1.0  0.92506  0.58906  0.86705  1.0000
  H   H2884     1.0  0.66960  0.61364  0.95370  1.0000
  C   C1637     1.0  0.93283  0.65586  0.98568  1.0000
  H   H2885     1.0  0.96043  0.61784  0.50532  1.0000
  H   H2886     1.0  0.97510  0.55778  0.62726  1.0000
  C   C1638     1.0  0.75759  0.73660  0.76706  1.0000
  H   H2887     1.0  0.92796  0.63740  0.95064  1.0000
  H   H2888     1.0  0.67202  0.61339  0.53042  1.0000
  H   H2889     1.0  0.71663  0.69882  0.51797  1.0000
  H   H2890     1.0  0.58624  0.74766  0.55645  1.0000
  C   C1639     1.0  0.95960  0.60456  0.51835  1.0000
  N   N86       1.0  0.94081  0.64562  0.80079  1.0000
  N   N87       1.0  0.84382  0.52455  0.54279  1.0000
  N   N88       1.0  0.57780  0.55907  0.75943  1.0000
  C   C1640     1.0  0.58428  0.56399  0.78980  1.0000
  C   C1641     1.0  0.55612  0.55410  0.76002  1.0000
  C   C1642     1.0  0.58149  0.54155  0.75401  1.0000
  C   C1643     1.0  0.60523  0.56544  0.79545  1.0000
  C   C1644     1.0  0.54876  0.57000  0.76513  1.0000
  H   H2891     1.0  0.63812  0.70094  0.55159  1.0000
  C   C1645     1.0  0.61218  0.57506  0.82315  1.0000
  N   N89       1.0  0.66569  0.71183  0.52431  1.0000
  H   H2892     1.0  0.57437  0.55313  0.80751  1.0000
  H   H2893     1.0  0.58298  0.57735  0.79454  1.0000
  H   H2894     1.0  0.55066  0.54942  0.73861  1.0000
  H   H2895     1.0  0.54845  0.54188  0.77730  1.0000
  H   H2896     1.0  0.57498  0.53030  0.77319  1.0000
  H   H2897     1.0  0.59738  0.54460  0.75251  1.0000
  H   H2898     1.0  0.60772  0.59840  0.75557  1.0000
  H   H2899     1.0  0.60555  0.55105  0.79934  1.0000
  H   H2900     1.0  0.61568  0.57340  0.77610  1.0000
  H   H2901     1.0  0.55773  0.52520  0.72858  1.0000
  H   H2902     1.0  0.55409  0.57654  0.78544  1.0000
  H   H2903     1.0  0.55342  0.58096  0.74547  1.0000
  C   C1646     1.0  0.79087  0.67189  0.95365  1.0000
  C   C1647     1.0  0.94474  0.61607  0.57222  1.0000
  C   C1648     1.0  0.66630  0.71579  0.90481  1.0000
  H   H2904     1.0  0.62681  0.57506  0.82739  1.0000
  H   H2905     1.0  0.61322  0.58992  0.82004  1.0000
  H   H2906     1.0  0.60206  0.56736  0.84301  1.0000
  H   H2907     1.0  0.84985  0.61777  0.49358  1.0000
  H   H2908     1.0  0.92098  0.61699  0.79744  1.0000
  N   N90       1.0  0.81112  0.73159  0.78505  1.0000
  C   C1649     1.0  0.81230  0.73040  0.75194  1.0000
  C   C1650     1.0  0.79244  0.71659  0.80006  1.0000
  H   H2909     1.0  0.53329  0.71781  0.63517  1.0000
  C   C1651     1.0  0.82857  0.73012  0.79940  1.0000
  C   C1652     1.0  0.83250  0.71198  0.79631  1.0000
  C   C1653     1.0  0.96997  0.60827  0.54753  1.0000
  C   C1654     1.0  0.53681  0.73300  0.62773  1.0000
  C   C1655     1.0  0.78439  0.69754  0.78686  1.0000
  C   C1656     1.0  0.76813  0.68264  0.80773  1.0000
  C   C1657     1.0  0.85204  0.71361  0.80793  1.0000
  H   H2910     1.0  0.98309  0.52233  0.78223  1.0000
  H   H2911     1.0  0.53265  0.73943  0.64646  1.0000
  H   H2912     1.0  0.80476  0.70866  0.95716  1.0000
  H   H2913     1.0  0.81215  0.71649  0.74719  1.0000
  H   H2914     1.0  0.79404  0.71352  0.82407  1.0000
  H   H2915     1.0  0.78032  0.72180  0.79955  1.0000
  C   C1658     1.0  0.56402  0.51329  0.83626  1.0000
  S   S371      1.0  0.51035  0.51058  0.75606  1.0000
  H   H2916     1.0  0.60399  0.74102  0.64798  1.0000
  H   H2917     1.0  0.76146  0.66137  0.93665  1.0000
  H   H2918     1.0  0.83297  0.70912  0.77286  1.0000
  H   H2919     1.0  0.82109  0.69977  0.80991  1.0000
  H   H2920     1.0  0.69666  0.72236  0.65723  1.0000
  N   N91       1.0  0.78618  0.68114  0.97917  1.0000
  H   H2921     1.0  0.58959  0.60712  0.69866  1.0000
  H   H2922     1.0  0.56091  0.53145  0.86779  1.0000
  H   H2923     1.0  0.77823  0.69955  0.76537  1.0000
  H   H2924     1.0  0.79575  0.69182  0.78265  1.0000
  H   H2925     1.0  0.75618  0.68762  0.81234  1.0000
  H   H2926     1.0  0.76217  0.66952  0.79699  1.0000
  H   H2927     1.0  0.77376  0.67941  0.82911  1.0000
  H   H2928     1.0  0.56211  0.73549  0.60054  1.0000
  H   H2929     1.0  0.56645  0.74044  0.63776  1.0000
  H   H2930     1.0  0.86982  0.72208  0.49542  1.0000
  H   H2931     1.0  0.73496  0.74885  0.70326  1.0000
  H   H2932     1.0  0.52816  0.73408  0.60866  1.0000
  C   C1659     1.0  0.84872  0.57465  0.50620  1.0000
  C   C1660     1.0  0.71087  0.63533  0.51539  1.0000
  H   H2933     1.0  0.94369  0.62336  0.85333  1.0000
  H   H2934     1.0  0.79906  0.73138  0.74239  1.0000
  H   H2935     1.0  0.77563  0.64160  0.91633  1.0000
  S   S372      1.0  0.91994  0.53454  0.75687  1.0000
  H   H2936     1.0  0.97053  0.64860  0.80683  1.0000
  H   H2937     1.0  0.70707  0.68689  0.70833  1.0000
  H   H2938     1.0  0.79440  0.70823  0.87414  1.0000
  C   C1661     1.0  0.83048  0.74166  0.70071  1.0000
  H   H2939     1.0  0.89731  0.59817  0.50261  1.0000
  C   C1662     1.0  0.98527  0.56445  0.67059  1.0000
  H   H2940     1.0  0.70120  0.60447  0.52159  1.0000
  H   H2941     1.0  0.94724  0.66614  0.76149  1.0000
  C   C1663     1.0  0.67513  0.71932  0.93463  1.0000
  H   H2942     1.0  0.90572  0.67140  0.84000  1.0000
  H   H2943     1.0  0.97271  0.67710  0.52856  1.0000
  H   H2944     1.0  0.86423  0.72467  0.79366  1.0000
  H   H2945     1.0  0.84410  0.71250  0.50369  1.0000
  H   H2946     1.0  0.70193  0.70073  0.97291  1.0000
  H   H2947     1.0  0.98578  0.59496  0.73913  1.0000
  H   H2948     1.0  0.91287  0.64128  0.75869  1.0000
  C   C1664     1.0  0.52652  0.56235  0.76879  1.0000
  C   C1665     1.0  0.68213  0.74943  0.66786  1.0000
  N   N92       1.0  0.96642  0.62274  0.56474  1.0000
  H   H2949     1.0  0.76060  0.74547  0.78483  1.0000
  C   C1666     1.0  0.97618  0.62294  0.59343  1.0000
  C   C1667     1.0  0.58247  0.51839  0.71816  1.0000
  H   H2950     1.0  0.67027  0.71944  0.73171  1.0000
  H   H2951     1.0  0.89484  0.64708  0.85685  1.0000
  H   H2952     1.0  0.96309  0.66722  0.97033  1.0000
  H   H2953     1.0  0.97253  0.57909  0.80819  1.0000
  C   C1668     1.0  0.50981  0.53469  0.60667  1.0000
  H   H2954     1.0  0.81952  0.52700  0.56795  1.0000
  C   C1669     1.0  0.92494  0.65160  0.81271  1.0000
  H   H2955     1.0  0.65973  0.72853  0.77815  1.0000
  C   C1670     1.0  0.55857  0.74279  0.61841  1.0000
  H   H2956     1.0  0.67087  0.73026  0.94360  1.0000
  H   H2957     1.0  0.97683  0.67911  0.77995  1.0000
  H   H2958     1.0  0.79736  0.66107  0.90121  1.0000
  C   C1671     1.0  0.93510  0.52049  0.71216  1.0000
  H   H2959     1.0  0.65020  0.71096  0.90782  1.0000
  H   H2960     1.0  0.90796  0.66020  0.49933  1.0000
  H   H2961     1.0  0.67880  0.73365  0.62899  1.0000
  C   C1672     1.0  0.62691  0.75358  0.54165  1.0000
  H   H2962     1.0  0.68510  0.73199  0.77717  1.0000
  H   H2963     1.0  0.69408  0.63972  0.97567  1.0000
  C   C1673     1.0  0.97416  0.64167  0.54545  1.0000
  C   C1674     1.0  0.90792  0.66032  0.85543  1.0000
  C   C1675     1.0  0.85217  0.54424  0.52631  1.0000
  H   H2964     1.0  0.93957  0.51304  0.78616  1.0000
  H   H2965     1.0  0.73649  0.61721  0.52230  1.0000
  H   H2966     1.0  0.96686  0.57444  0.64292  1.0000
  C   C1676     1.0  0.97501  0.62556  0.73771  1.0000
  H   H2967     1.0  0.74584  0.63282  0.56029  1.0000
  H   H2968     1.0  0.77462  0.65803  0.88555  1.0000
  H   H2969     1.0  0.65416  0.69815  0.62957  1.0000
  C   C1677     1.0  0.94387  0.65079  0.76734  1.0000
  C   C1678     1.0  0.74343  0.71829  0.77221  1.0000
  H   H2970     1.0  0.89721  0.51713  0.55001  1.0000
  C   C1679     1.0  0.60796  0.72027  0.53808  1.0000
  S   S373      1.0  0.73005  0.70893  0.80715  1.0000
  C   C1680     1.0  0.79428  0.73427  0.98046  1.0000
  C   C1681     1.0  0.78145  0.65665  0.90652  1.0000
  H   H2971     1.0  0.85063  0.55160  0.58425  1.0000
  Fe  Fe187     1.0  0.73412  0.74273  0.90142  1.0000
  H   H2972     1.0  0.94595  0.62013  0.79589  1.0000
  C   C1682     1.0  0.83790  0.55430  0.52057  1.0000
  C   C1683     1.0  0.70480  0.71426  0.69950  1.0000
  H   H2973     1.0  0.98666  0.64285  0.52983  1.0000
  H   H2974     1.0  0.96416  0.55848  0.70807  1.0000
  C   C1684     1.0  0.71064  0.59885  0.82460  1.0000
  H   H2975     1.0  0.92328  0.60834  0.49351  1.0000
  C   C1685     1.0  0.92605  0.65699  0.84499  1.0000
  H   H2976     1.0  0.57551  0.51132  0.69899  1.0000
  H   H2977     1.0  0.80623  0.51998  0.52337  1.0000
  H   H2978     1.0  0.94291  0.59396  0.83606  1.0000
  S   S374      1.0  0.73477  0.72292  0.62791  1.0000
  C   C1686     1.0  0.93292  0.52162  0.74266  1.0000
  H   H2979     1.0  0.79159  0.65805  0.96185  1.0000
  H   H2980     1.0  0.81062  0.74225  0.50859  1.0000
  H   H2981     1.0  0.91739  0.58701  0.82989  1.0000
  C   C1687     1.0  0.96984  0.56139  0.64821  1.0000
  H   H2982     1.0  0.96818  0.58103  0.51077  1.0000
  C   C1688     1.0  0.59523  0.59525  0.74155  1.0000
  H   H2983     1.0  0.85388  0.69992  0.80785  1.0000
  S   S375      1.0  0.77875  0.74212  0.59291  1.0000
  H   H2984     1.0  0.69496  0.56578  0.79612  1.0000
  H   H2985     1.0  0.69112  0.72511  0.93005  1.0000
  H   H2986     1.0  0.67489  0.73844  0.54274  1.0000
  H   H2987     1.0  0.94403  0.59543  0.52365  1.0000
  C   C1689     1.0  0.91025  0.61155  0.49910  1.0000
  H   H2988     1.0  0.70723  0.64577  0.52716  1.0000
  H   H2989     1.0  0.67760  0.56641  0.82466  1.0000
  H   H2990     1.0  0.88187  0.53182  0.51174  1.0000
  H   H2991     1.0  0.83308  0.74160  0.52090  1.0000
  H   H2992     1.0  0.68421  0.69732  0.54049  1.0000
  H   H2993     1.0  0.57721  0.54364  0.70573  1.0000
  C   C1690     1.0  0.92906  0.59523  0.84336  1.0000
  H   H2994     1.0  0.59836  0.52552  0.71206  1.0000
  H   H2995     1.0  0.52090  0.55137  0.78840  1.0000
  H   H2996     1.0  0.82001  0.62374  0.50322  1.0000
  C   C1691     1.0  0.74448  0.61140  0.83684  1.0000
  C   C1692     1.0  0.70801  0.57819  0.83519  1.0000
  C   C1693     1.0  0.76186  0.62564  0.85047  1.0000
  H   H2997     1.0  0.74299  0.59746  0.84858  1.0000
  H   H2998     1.0  0.71443  0.60124  0.80005  1.0000
  H   H2999     1.0  0.63303  0.69109  0.60860  1.0000
  C   C1694     1.0  0.64860  0.69301  0.60838  1.0000
  H   H3000     1.0  0.93108  0.66932  0.98851  1.0000
  H   H3001     1.0  0.76071  0.64254  0.98118  1.0000
  H   H3002     1.0  0.57934  0.57325  0.71507  1.0000
  H   H3003     1.0  0.94515  0.63262  0.60976  1.0000
  H   H3004     1.0  0.91304  0.60692  0.61504  1.0000
  H   H3005     1.0  0.59510  0.75244  0.60102  1.0000
  C   C1695     1.0  0.71754  0.71147  0.50291  1.0000
  C   C1696     1.0  0.93493  0.62449  0.80705  1.0000
  C   C1697     1.0  0.97046  0.67666  0.80335  1.0000
  H   H3006     1.0  0.93975  0.64223  0.57455  1.0000
  H   H3007     1.0  0.76332  0.60651  0.51003  1.0000
  H   H3008     1.0  0.90954  0.66498  0.87796  1.0000
  H   H3009     1.0  0.76487  0.64039  0.84098  1.0000
  C   C1698     1.0  0.69674  0.70969  0.98599  1.0000
  H   H3010     1.0  0.72035  0.72072  0.69133  1.0000
  C   C1699     1.0  0.77694  0.66872  0.92832  1.0000
  H   H3011     1.0  0.77849  0.68242  0.91595  1.0000
  H   H3012     1.0  0.91158  0.64966  0.95278  1.0000
  H   H3013     1.0  0.81118  0.67993  0.52872  1.0000
  S   S376      1.0  0.67474  0.57902  0.95317  1.0000
  C   C1700     1.0  0.98590  0.67750  0.53969  1.0000
  H   H3014     1.0  0.68906  0.54955  0.82994  1.0000
  N   N93       1.0  0.69686  0.74400  0.68454  1.0000
  H   H3015     1.0  0.67587  0.70916  0.58361  1.0000
  H   H3016     1.0  0.70533  0.74389  0.72994  1.0000
  H   H3017     1.0  0.90729  0.61532  0.57930  1.0000
  Fe  Fe188     1.0  0.74781  0.73503  0.58147  1.0000
  H   H3018     1.0  0.60706  0.62387  0.71869  1.0000
  C   C1701     1.0  0.81068  0.75070  0.78923  1.0000
  H   H3019     1.0  0.93689  0.61439  0.55169  1.0000
  C   C1702     1.0  0.69138  0.56420  0.82053  1.0000
  H   H3020     1.0  0.72124  0.57548  0.82898  1.0000
  C   C1703     1.0  0.61659  0.73917  0.52484  1.0000
  C   C1704     1.0  0.60186  0.60917  0.71302  1.0000
  H   H3021     1.0  0.85863  0.69052  0.52402  1.0000
  C   C1705     1.0  0.66040  0.70724  0.58205  1.0000
  C   C1706     1.0  0.96852  0.59441  0.49847  1.0000
  H   H3022     1.0  0.78451  0.62349  0.82048  1.0000
  C   C1707     1.0  0.68317  0.74849  0.63371  1.0000
  H   H3023     1.0  0.96550  0.59440  0.56178  1.0000
  H   H3024     1.0  0.69906  0.69115  0.67234  1.0000
  C   C1708     1.0  0.93758  0.62907  0.58927  1.0000
  C   C1709     1.0  0.91584  0.61958  0.59877  1.0000
  H   H3025     1.0  0.93925  0.60175  0.58533  1.0000
  H   H3026     1.0  0.77219  0.66209  0.56991  1.0000
  H   H3027     1.0  0.95615  0.54955  0.65719  1.0000
  H   H3028     1.0  0.96393  0.55500  0.77278  1.0000
  H   H3029     1.0  0.66260  0.73906  0.72470  1.0000
  H   H3030     1.0  0.93628  0.66238  0.93722  1.0000
  H   H3031     1.0  0.74882  0.61142  0.81297  1.0000
  H   H3032     1.0  0.65266  0.73261  0.52635  1.0000
  C   C1710     1.0  0.96575  0.56966  0.76465  1.0000
  C   C1711     1.0  0.73925  0.62709  0.50158  1.0000
  H   H3033     1.0  0.93200  0.66406  0.71461  1.0000
  H   H3034     1.0  0.97528  0.58257  0.69503  1.0000
  H   H3035     1.0  0.52020  0.52840  0.61482  1.0000
  H   H3036     1.0  0.64984  0.67916  0.60713  1.0000
  H   H3037     1.0  0.82704  0.69100  0.97589  1.0000
  H   H3038     1.0  0.92884  0.52777  0.69658  1.0000
  C   C1712     1.0  0.78044  0.62191  0.84476  1.0000
  H   H3039     1.0  0.77848  0.60747  0.85480  1.0000
  H   H3040     1.0  0.66712  0.66470  0.97283  1.0000
  C   C1713     1.0  0.69789  0.69324  0.69616  1.0000
  H   H3041     1.0  0.92751  0.64595  0.86118  1.0000
  C   C1714     1.0  0.78977  0.70139  0.96809  1.0000
  C   C1715     1.0  0.92653  0.64045  0.74935  1.0000
  H   H3042     1.0  0.67742  0.71477  0.68545  1.0000
  C   C1716     1.0  0.93148  0.61598  0.84021  1.0000
  C   C1717     1.0  0.83429  0.63579  0.49936  1.0000
  H   H3043     1.0  0.79259  0.63219  0.85514  1.0000
  Fe  Fe189     1.0  0.64788  0.55397  0.97099  1.0000
  H   H3044     1.0  0.49801  0.51780  0.66515  1.0000
  C   C1718     1.0  0.78249  0.70258  0.50253  1.0000
  C   C1719     1.0  0.65292  0.70062  0.55190  1.0000
  H   H3045     1.0  0.65072  0.68540  0.55254  1.0000
  H   H3046     1.0  0.80571  0.68043  0.94294  1.0000
  S   S377      1.0  0.54132  0.51059  0.82161  1.0000
  H   H3047     1.0  0.83874  0.74491  0.92206  1.0000
  H   H3048     1.0  0.67801  0.75205  0.76994  1.0000
  H   H3049     1.0  0.84322  0.75280  0.68761  1.0000
  C   C1720     1.0  0.85681  0.69190  0.49977  1.0000
  H   H3050     1.0  0.57989  0.50750  0.73758  1.0000
  C   C1721     1.0  0.67434  0.73701  0.76670  1.0000
  H   H3051     1.0  0.82705  0.73068  0.82380  1.0000
  H   H3052     1.0  0.77055  0.64098  0.50772  1.0000
  H   H3053     1.0  0.85274  0.71718  0.83115  1.0000
  C   C1722     1.0  0.86059  0.51873  0.55030  1.0000
  C   C1723     1.0  0.82641  0.74670  0.50209  1.0000
  H   H3054     1.0  0.65419  0.74834  0.62777  1.0000
  H   H3055     1.0  0.72123  0.75144  0.65123  1.0000
  H   H3056     1.0  0.82680  0.50885  0.58327  1.0000
  C   C1724     1.0  0.87345  0.51748  0.52337  1.0000
  C   C1725     1.0  0.62926  0.74885  0.57143  1.0000
  N   N94       1.0  0.73246  0.64299  0.50589  1.0000
  S   S378      1.0  0.75668  0.74872  0.86262  1.0000
  H   H3057     1.0  0.61473  0.74269  0.50172  1.0000
  S   S379      1.0  0.73546  0.75280  0.55236  1.0000
  H   H3058     1.0  0.86472  0.50870  0.50709  1.0000
  C   C1726     1.0  0.98719  0.68570  0.82244  1.0000
  H   H3059     1.0  0.72592  0.72436  0.51295  1.0000
  H   H3060     1.0  0.65313  0.68743  0.50083  1.0000
  H   H3061     1.0  0.56211  0.74806  0.55480  1.0000
  H   H3062     1.0  0.69456  0.74877  0.49667  1.0000
  C   C1727     1.0  0.65607  0.70287  0.49777  1.0000
  C   C1728     1.0  0.78642  0.71326  0.99202  1.0000
  H   H3063     1.0  0.72808  0.64351  0.99053  1.0000
  C   C1729     1.0  0.76522  0.67140  0.99128  1.0000
  H   H3064     1.0  0.79922  0.75315  0.77629  1.0000
  H   H3065     1.0  0.85509  0.50479  0.56448  1.0000
  N   N95       1.0  0.67483  0.70279  0.98768  1.0000
  H   H3066     1.0  0.97863  0.72912  0.99017  1.0000
  H   H3067     1.0  0.65429  0.71678  0.98999  1.0000
  C   C1730     1.0  0.80721  0.75414  0.82185  1.0000
  H   H3068     1.0  0.77153  0.95484  0.27043  1.0000
  H   H3069     1.0  0.68373  0.89962  0.45779  1.0000
  H   H3070     1.0  0.69607  0.92602  0.38640  1.0000
  N   N96       1.0  0.58155  0.76992  0.14401  1.0000
  H   H3071     1.0  0.55446  0.80856  0.15722  1.0000
  H   H3072     1.0  0.61162  0.77471  0.15056  1.0000
  H   H3073     1.0  0.59227  0.79573  0.18740  1.0000
  H   H3074     1.0  0.76961  0.87496  0.43281  1.0000
  C   C1731     1.0  0.69115  0.99061  0.44263  1.0000
  Fe  Fe190     1.0  0.52429  0.96847  0.24074  1.0000
  S   S380      1.0  0.53674  0.94923  0.21929  1.0000
  C   C1732     1.0  0.73952  0.81115  0.12650  1.0000
  S   S381      1.0  0.51587  0.96018  0.28986  1.0000
  C   C1733     1.0  0.55815  0.80796  0.13342  1.0000
  Fe  Fe191     1.0  0.65375  0.78289  0.12147  1.0000
  S   S382      1.0  0.64723  0.77551  0.07529  1.0000
  Fe  Fe192     1.0  0.67963  0.82475  0.09836  1.0000
  S   S383      1.0  0.67499  0.82030  0.05042  1.0000
  S   S384      1.0  0.69910  0.85092  0.11779  1.0000
  Fe  Fe193     1.0  0.64377  0.80365  0.06802  1.0000
  S   S385      1.0  0.61713  0.80653  0.04898  1.0000
  Fe  Fe194     1.0  0.67898  0.79264  0.06174  1.0000
  H   H3075     1.0  0.49306  0.88521  0.20462  1.0000
  S   S386      1.0  0.64828  0.80981  0.11507  1.0000
  S   S387      1.0  0.68564  0.79837  0.10869  1.0000
  H   H3076     1.0  0.74336  0.87152  0.03053  1.0000
  H   H3077     1.0  0.62138  0.00167  0.16718  1.0000
  Fe  Fe195     1.0  0.72377  0.96251  0.09610  1.0000
  S   S388      1.0  0.71287  0.96029  0.14371  1.0000
  S   S389      1.0  0.71570  0.93674  0.07080  1.0000
  Fe  Fe196     1.0  0.70093  0.98191  0.12724  1.0000
  S   S390      1.0  0.67061  0.97830  0.14350  1.0000
  Fe  Fe197     1.0  0.74031  0.98522  0.14699  1.0000
  H   H3078     1.0  0.75548  0.87623  0.33991  1.0000
  S   S391      1.0  0.70990  0.98264  0.07939  1.0000
  S   S392      1.0  0.75261  0.98642  0.09979  1.0000
  Fe  Fe198     1.0  0.58543  0.89492  0.05876  1.0000
  S   S393      1.0  0.59898  0.91249  0.01508  1.0000
  S   S394      1.0  0.60006  0.87722  0.08330  1.0000
  Fe  Fe199     1.0  0.55608  0.91432  0.06638  1.0000
  S   S395      1.0  0.56737  0.93275  0.02268  1.0000
  S   S396      1.0  0.53198  0.91963  0.09215  1.0000
  Fe  Fe200     1.0  0.56822  0.90694  0.00437  1.0000
  H   H3079     1.0  0.69657  0.98402  0.42631  1.0000
  Fe  Fe201     1.0  0.59686  0.93657  0.03745  1.0000
  S   S397      1.0  0.62090  0.96542  0.03218  1.0000
  S   S398      1.0  0.55448  0.88779  0.04713  1.0000
  S   S399      1.0  0.58560  0.91956  0.08192  1.0000
  Fe  Fe202     1.0  0.75348  0.96222  0.41232  1.0000
  S   S400      1.0  0.72442  0.96405  0.40689  1.0000
  S   S401      1.0  0.75434  0.93465  0.43502  1.0000
  H   H3080     1.0  0.76594  0.89156  0.36789  1.0000
  Fe  Fe203     1.0  0.73761  0.97979  0.36154  1.0000
  S   S402      1.0  0.72009  0.97285  0.32104  1.0000
  S   S403      1.0  0.76630  0.98949  0.43227  1.0000
  S   S404      1.0  0.76628  0.97674  0.36600  1.0000
  C   C1734     1.0  0.74700  0.98345  0.22450  1.0000
  C   C1735     1.0  0.72699  0.97356  0.23132  1.0000
  C   C1736     1.0  0.71902  0.97020  0.26107  1.0000
  C   C1737     1.0  0.73085  0.97705  0.28413  1.0000
  C   C1738     1.0  0.75083  0.98686  0.27733  1.0000
  H   H3081     1.0  0.65985  0.84886  0.13969  1.0000
  H   H3082     1.0  0.71777  0.96827  0.21371  1.0000
  H   H3083     1.0  0.54486  0.79922  0.12340  1.0000
  C   C1739     1.0  0.54167  0.84717  0.99613  1.0000
  H   H3084     1.0  0.61265  0.96575  0.17777  1.0000
  C   C1740     1.0  0.65635  0.97690  0.11319  1.0000
  C   C1741     1.0  0.63663  0.96536  0.11696  1.0000
  C   C1742     1.0  0.62551  0.96220  0.09229  1.0000
  C   C1743     1.0  0.63405  0.97069  0.06377  1.0000
  C   C1744     1.0  0.65347  0.98335  0.06038  1.0000
  C   C1745     1.0  0.66463  0.98641  0.08506  1.0000
  H   H3085     1.0  0.63019  0.95832  0.13877  1.0000
  H   H3086     1.0  0.61039  0.95316  0.09537  1.0000
  H   H3087     1.0  0.66009  0.99031  0.03849  1.0000
  H   H3088     1.0  0.67964  0.99608  0.08222  1.0000
  C   C1746     1.0  0.70189  0.87449  0.10565  1.0000
  C   C1747     1.0  0.71168  0.88882  0.12301  1.0000
  C   C1748     1.0  0.71526  0.90789  0.11331  1.0000
  C   C1749     1.0  0.70938  0.91285  0.08584  1.0000
  C   C1750     1.0  0.69924  0.89848  0.06877  1.0000
  C   C1751     1.0  0.69539  0.87937  0.07868  1.0000
  H   H3089     1.0  0.71680  0.88517  0.14386  1.0000
  H   H3090     1.0  0.72321  0.91883  0.12653  1.0000
  H   H3091     1.0  0.69466  0.90220  0.04747  1.0000
  H   H3092     1.0  0.68781  0.86851  0.06511  1.0000
  C   C1752     1.0  0.60512  0.85860  0.06992  1.0000
  C   C1753     1.0  0.59084  0.84382  0.05830  1.0000
  C   C1754     1.0  0.59467  0.82795  0.05163  1.0000
  C   C1755     1.0  0.61275  0.82676  0.05661  1.0000
  C   C1756     1.0  0.62705  0.84164  0.06790  1.0000
  C   C1757     1.0  0.62322  0.85746  0.07450  1.0000
  H   H3093     1.0  0.57662  0.84431  0.05561  1.0000
  H   H3094     1.0  0.58346  0.81640  0.04317  1.0000
  H   H3095     1.0  0.64110  0.84099  0.07162  1.0000
  H   H3096     1.0  0.63433  0.86884  0.08330  1.0000
  C   C1758     1.0  0.53607  0.94230  0.18300  1.0000
  C   C1759     1.0  0.52633  0.94825  0.16078  1.0000
  C   C1760     1.0  0.52542  0.94144  0.13283  1.0000
  C   C1761     1.0  0.53495  0.92932  0.12641  1.0000
  C   C1762     1.0  0.54539  0.92407  0.14821  1.0000
  C   C1763     1.0  0.54567  0.93030  0.17647  1.0000
  H   H3097     1.0  0.51921  0.95778  0.16528  1.0000
  H   H3098     1.0  0.51730  0.94556  0.11607  1.0000
  H   H3099     1.0  0.55260  0.91460  0.14367  1.0000
  H   H3100     1.0  0.55323  0.92561  0.19351  1.0000
  C   C1764     1.0  0.71455  0.91549  0.44848  1.0000
  C   C1765     1.0  0.73328  0.91723  0.45536  1.0000
  N   N97       1.0  0.59253  0.98773  0.15245  1.0000
  H   H3101     1.0  0.73418  0.89437  0.33118  1.0000
  H   H3102     1.0  0.79434  0.83081  0.00777  1.0000
  H   H3103     1.0  0.57743  0.00357  0.20070  1.0000
  H   H3104     1.0  0.58888  0.94853  0.17293  1.0000
  H   H3105     1.0  0.62082  0.98908  0.13650  1.0000
  H   H3106     1.0  0.76104  0.90424  0.04211  1.0000
  H   H3107     1.0  0.66334  0.98346  0.24592  1.0000
  C   C1766     1.0  0.65674  0.94085  0.46849  1.0000
  Fe  Fe204     1.0  0.73787  0.99196  0.42413  1.0000
  H   H3108     1.0  0.75546  0.93610  0.22145  1.0000
  H   H3109     1.0  0.71272  0.92510  0.43097  1.0000
  C   C1767     1.0  0.60253  0.78867  0.18334  1.0000
  H   H3110     1.0  0.60790  0.79493  0.13501  1.0000
  H   H3111     1.0  0.50029  0.91551  0.28773  1.0000
  H   H3112     1.0  0.66066  0.95058  0.24332  1.0000
  H   H3113     1.0  0.64587  0.85186  0.17075  1.0000
  H   H3114     1.0  0.56866  0.96591  0.13583  1.0000
  C   C1768     1.0  0.56732  0.77957  0.14692  1.0000
  H   H3115     1.0  0.65086  0.95123  0.47559  1.0000
  H   H3116     1.0  0.57813  0.97490  0.05343  1.0000
  C   C1769     1.0  0.77519  0.95065  0.29285  1.0000
  H   H3117     1.0  0.62683  0.81552  0.17136  1.0000
  C   C1770     1.0  0.75887  0.98988  0.24769  1.0000
  H   H3118     1.0  0.87798  0.75651  0.41457  1.0000
  C   C1771     1.0  0.64923  0.85508  0.14624  1.0000
  S   S405      1.0  0.70098  0.78148  0.04264  1.0000
  H   H3119     1.0  0.72932  0.93803  0.36130  1.0000
  C   C1772     1.0  0.58876  0.97603  0.18258  1.0000
  H   H3120     1.0  0.57750  0.80022  0.10629  1.0000
  H   H3121     1.0  0.78146  0.88867  0.33875  1.0000
  H   H3122     1.0  0.70367  0.96205  0.26635  1.0000
  H   H3123     1.0  0.76757  0.90397  0.30078  1.0000
  S   S406      1.0  0.64089  0.99658  0.46547  1.0000
  H   H3124     1.0  0.58709  0.80968  0.13963  1.0000
  C   C1773     1.0  0.76973  0.83604  0.02641  1.0000
  H   H3125     1.0  0.71835  0.93349  0.30956  1.0000
  H   H3126     1.0  0.73441  0.80766  0.08081  1.0000
  C   C1774     1.0  0.69811  0.90094  0.46371  1.0000
  H   H3127     1.0  0.73974  0.94600  0.26272  1.0000
  S   S407      1.0  0.55072  0.99525  0.33475  1.0000
  H   H3128     1.0  0.68522  0.97994  0.25505  1.0000
  H   H3129     1.0  0.74954  0.82121  0.14011  1.0000
  H   H3130     1.0  0.73257  0.81974  0.03560  1.0000
  C   C1775     1.0  0.72924  0.82304  0.49186  1.0000
  C   C1776     1.0  0.60147  0.78223  0.15178  1.0000
  H   H3131     1.0  0.75948  0.82069  0.08780  1.0000
  H   H3132     1.0  0.74657  0.91133  0.35508  1.0000
  C   C1777     1.0  0.69809  0.92411  0.36270  1.0000
  H   H3133     1.0  0.79544  0.96476  0.32461  1.0000
  H   H3134     1.0  0.71508  0.82773  0.04917  1.0000
  H   H3135     1.0  0.50009  0.88775  0.14964  1.0000
  H   H3136     1.0  0.73329  0.91552  0.22053  1.0000
  C   C1778     1.0  0.73376  0.93107  0.25852  1.0000
  H   H3137     1.0  0.69032  0.80819  0.47800  1.0000
  H   H3138     1.0  0.67022  0.94852  0.45372  1.0000
  C   C1779     1.0  0.77203  0.88219  0.45321  1.0000
  H   H3139     1.0  0.60771  0.87787  0.00518  1.0000
  C   C1780     1.0  0.62291  0.80261  0.18754  1.0000
  H   H3140     1.0  0.74528  0.87447  0.09722  1.0000
  H   H3141     1.0  0.63576  0.84843  0.13497  1.0000
  C   C1781     1.0  0.75670  0.94282  0.31516  1.0000
  C   C1782     1.0  0.72189  0.92224  0.32249  1.0000
  H   H3142     1.0  0.59152  0.96397  0.12938  1.0000
  N   N98       1.0  0.74195  0.92337  0.31206  1.0000
  C   C1783     1.0  0.67168  0.98895  0.44377  1.0000
  C   C1784     1.0  0.59496  0.95157  0.21817  1.0000
  H   H3143     1.0  0.71970  0.91273  0.37084  1.0000
  C   C1785     1.0  0.73529  0.90440  0.47817  1.0000
  C   C1786     1.0  0.59701  0.96019  0.18571  1.0000
  H   H3144     1.0  0.56536  0.99202  0.15498  1.0000
  H   H3145     1.0  0.76745  0.87984  0.07414  1.0000
  H   H3146     1.0  0.65815  0.96176  0.20765  1.0000
  H   H3147     1.0  0.74129  0.79741  0.13054  1.0000
  H   H3148     1.0  0.69573  0.93564  0.34873  1.0000
  H   H3149     1.0  0.68694  0.91036  0.35872  1.0000
  N   N99       1.0  0.74448  0.84620  0.05470  1.0000
  H   H3150     1.0  0.80364  0.97340  0.28602  1.0000
  H   H3151     1.0  0.55331  0.77117  0.13818  1.0000
  C   C1787     1.0  0.66846  0.96186  0.22482  1.0000
  H   H3152     1.0  0.73355  0.93899  0.21121  1.0000
  H   H3153     1.0  0.76224  0.84524  0.46598  1.0000
  C   C1788     1.0  0.58306  0.76620  0.11205  1.0000
  C   C1789     1.0  0.72977  0.83282  0.03714  1.0000
  H   H3154     1.0  0.72465  0.86071  0.05976  1.0000
  S   S408      1.0  0.64431  0.76399  0.16599  1.0000
  C   C1790     1.0  0.75244  0.89843  0.06393  1.0000
  H   H3155     1.0  0.56344  0.78001  0.17076  1.0000
  C   C1791     1.0  0.70349  0.00085  0.46269  1.0000
  H   H3156     1.0  0.66463  0.91805  0.48698  1.0000
  H   H3157     1.0  0.64134  0.89844  0.01003  1.0000
  H   H3158     1.0  0.72641  0.83540  0.09607  1.0000
  C   C1792     1.0  0.57518  0.96859  0.07713  1.0000
  H   H3159     1.0  0.92414  0.76239  0.44959  1.0000
  H   H3160     1.0  0.62398  0.86607  0.99822  1.0000
  H   H3161     1.0  0.57944  0.94583  0.22709  1.0000
  H   H3162     1.0  0.74993  0.95354  0.31273  1.0000
  C   C1793     1.0  0.74040  0.86410  0.05365  1.0000
  C   C1794     1.0  0.68754  0.99704  0.21170  1.0000
  H   H3163     1.0  0.77798  0.91916  0.32896  1.0000
  H   H3164     1.0  0.56837  0.75993  0.10378  1.0000
  H   H3165     1.0  0.59500  0.98519  0.20013  1.0000
  C   C1795     1.0  0.75214  0.87875  0.07400  1.0000
  H   H3166     1.0  0.71062  0.90855  0.31820  1.0000
  H   H3167     1.0  0.60033  0.93985  0.21967  1.0000
  H   H3168     1.0  0.75149  0.84736  0.10076  1.0000
  H   H3169     1.0  0.60361  0.96232  0.23211  1.0000
  H   H3170     1.0  0.56345  0.82254  0.12152  1.0000
  H   H3171     1.0  0.59916  0.77640  0.20069  1.0000
  H   H3172     1.0  0.79892  0.84241  0.04096  1.0000
  H   H3173     1.0  0.77016  0.86407  0.02582  1.0000
  H   H3174     1.0  0.78189  0.94018  0.29036  1.0000
  C   C1796     1.0  0.76528  0.85116  0.04241  1.0000
  H   H3175     1.0  0.78516  0.97960  0.30364  1.0000
  C   C1797     1.0  0.79163  0.84160  0.01989  1.0000
  H   H3176     1.0  0.62777  0.92032  0.46340  1.0000
  H   H3177     1.0  0.76148  0.94320  0.33818  1.0000
  H   H3178     1.0  0.55932  0.96380  0.08336  1.0000
  H   H3179     1.0  0.73524  0.81589  0.47628  1.0000
  H   H3180     1.0  0.72757  0.76599  0.02023  1.0000
  S   S409      1.0  0.75778  0.98755  0.18761  1.0000
  H   H3181     1.0  0.75559  0.91991  0.27083  1.0000
  C   C1798     1.0  0.57401  0.79994  0.13041  1.0000
  H   H3182     1.0  0.76391  0.82193  0.03960  1.0000
  H   H3183     1.0  0.63922  0.93676  0.43068  1.0000
  H   H3184     1.0  0.91304  0.77342  0.42294  1.0000
  C   C1799     1.0  0.79074  0.96814  0.30250  1.0000
  C   C1800     1.0  0.61424  0.99830  0.14613  1.0000
  H   H3185     1.0  0.76005  0.99230  0.29487  1.0000
  Fe  Fe205     1.0  0.53153  0.99094  0.29525  1.0000
  H   H3186     1.0  0.64725  0.91775  0.44111  1.0000
  C   C1801     1.0  0.76573  0.90636  0.32424  1.0000
  C   C1802     1.0  0.58442  0.97434  0.12966  1.0000
  H   H3187     1.0  0.57409  0.99464  0.38347  1.0000
  H   H3188     1.0  0.72765  0.84155  0.45287  1.0000
  H   H3189     1.0  0.58155  0.99496  0.09412  1.0000
  C   C1803     1.0  0.71857  0.92449  0.35577  1.0000
  C   C1804     1.0  0.70085  0.81766  0.45971  1.0000
  H   H3190     1.0  0.72430  0.80892  0.13382  1.0000
  H   H3191     1.0  0.57945  0.95618  0.07924  1.0000
  C   C1805     1.0  0.74118  0.91881  0.28032  1.0000
  S   S410      1.0  0.72758  0.00289  0.46253  1.0000
  H   H3192     1.0  0.70603  0.80907  0.44580  1.0000
  H   H3193     1.0  0.77528  0.85502  0.06047  1.0000
  H   H3194     1.0  0.66205  0.98119  0.42818  1.0000
  C   C1806     1.0  0.74135  0.83759  0.08688  1.0000
  H   H3195     1.0  0.57289  0.96937  0.18896  1.0000
  H   H3196     1.0  0.68495  0.77391  0.47457  1.0000
  S   S411      1.0  0.50391  0.99651  0.29114  1.0000
  H   H3197     1.0  0.60165  0.76414  0.05837  1.0000
  H   H3198     1.0  0.66623  0.95162  0.05231  1.0000
  H   H3199     1.0  0.69758  0.99241  0.19847  1.0000
  C   C1807     1.0  0.58676  0.98320  0.09682  1.0000
  H   H3200     1.0  0.60229  0.98834  0.08817  1.0000
  C   C1808     1.0  0.70009  0.88798  0.48624  1.0000
  N   N100      1.0  0.65064  0.90676  0.13878  1.0000
  C   C1809     1.0  0.66961  0.91613  0.15228  1.0000
  C   C1810     1.0  0.65385  0.91189  0.10540  1.0000
  C   C1811     1.0  0.63579  0.91348  0.15209  1.0000
  C   C1812     1.0  0.64331  0.88554  0.14535  1.0000
  C   C1813     1.0  0.65796  0.87640  0.13708  1.0000
  C   C1814     1.0  0.66988  0.90982  0.18594  1.0000
  C   C1815     1.0  0.61564  0.90662  0.13919  1.0000
  C   C1816     1.0  0.65914  0.93297  0.09389  1.0000
  C   C1817     1.0  0.66219  0.93637  0.05991  1.0000
  C   C1818     1.0  0.68998  0.91944  0.19696  1.0000
  C   C1819     1.0  0.60148  0.91333  0.15554  1.0000
  H   H3201     1.0  0.67357  0.93168  0.15001  1.0000
  H   H3202     1.0  0.68177  0.91417  0.13970  1.0000
  H   H3203     1.0  0.66592  0.90817  0.09636  1.0000
  H   H3204     1.0  0.64081  0.90345  0.09440  1.0000
  H   H3205     1.0  0.64153  0.92919  0.15022  1.0000
  H   H3206     1.0  0.63294  0.90867  0.17638  1.0000
  H   H3207     1.0  0.63797  0.88089  0.16924  1.0000
  H   H3208     1.0  0.63039  0.87886  0.13285  1.0000
  H   H3209     1.0  0.67161  0.88214  0.14817  1.0000
  H   H3210     1.0  0.66177  0.87882  0.11272  1.0000
  H   H3211     1.0  0.65944  0.91354  0.19962  1.0000
  H   H3212     1.0  0.66609  0.89440  0.19051  1.0000
  H   H3213     1.0  0.60891  0.89100  0.14175  1.0000
  H   H3214     1.0  0.61697  0.91200  0.11524  1.0000
  H   H3215     1.0  0.64725  0.93751  0.10040  1.0000
  H   H3216     1.0  0.67273  0.94207  0.10274  1.0000
  H   H3217     1.0  0.62337  0.80674  0.21040  1.0000
  H   H3218     1.0  0.67414  0.93217  0.05193  1.0000
  H   H3219     1.0  0.64860  0.92828  0.04991  1.0000
  H   H3220     1.0  0.69355  0.93481  0.19652  1.0000
  H   H3221     1.0  0.69010  0.91353  0.22032  1.0000
  H   H3222     1.0  0.70132  0.91709  0.18301  1.0000
  H   H3223     1.0  0.60003  0.90869  0.17984  1.0000
  H   H3224     1.0  0.60643  0.92890  0.15167  1.0000
  H   H3225     1.0  0.58688  0.90719  0.14708  1.0000
  H   H3226     1.0  0.49018  0.93934  0.19792  1.0000
  C   C1820     1.0  0.64182  0.92805  0.44986  1.0000
  S   S412      1.0  0.54143  0.99895  0.24622  1.0000
  H   H3227     1.0  0.67624  0.99767  0.19676  1.0000
  H   H3228     1.0  0.73149  0.90379  0.27957  1.0000
  H   H3229     1.0  0.63383  0.79610  0.18448  1.0000
  C   C1821     1.0  0.76715  0.88966  0.34396  1.0000
  H   H3230     1.0  0.68063  0.95869  0.21488  1.0000
  C   C1822     1.0  0.74614  0.90841  0.33149  1.0000
  C   C1823     1.0  0.67615  0.98100  0.23675  1.0000
  C   C1824     1.0  0.70456  0.77501  0.00689  1.0000
  S   S413      1.0  0.49660  0.97274  0.23220  1.0000
  H   H3231     1.0  0.59050  0.77971  0.09728  1.0000
  H   H3232     1.0  0.71764  0.92600  0.26156  1.0000
  C   C1825     1.0  0.74411  0.81865  0.09338  1.0000
  H   H3233     1.0  0.75914  0.90811  0.08057  1.0000
  H   H3234     1.0  0.68480  0.75723  0.13567  1.0000
  C   C1826     1.0  0.73938  0.93026  0.22598  1.0000
  H   H3235     1.0  0.69310  0.82481  0.44566  1.0000
  H   H3236     1.0  0.73746  0.89794  0.06175  1.0000
  C   C1827     1.0  0.66482  0.99781  0.46458  1.0000
  H   H3237     1.0  0.69755  0.93478  0.48804  1.0000
  C   C1828     1.0  0.71795  0.83246  0.47224  1.0000
  H   H3238     1.0  0.67784  0.00307  0.27866  1.0000
  H   H3239     1.0  0.78726  0.88548  0.45893  1.0000
  H   H3240     1.0  0.57862  0.85243  0.00117  1.0000
  C   C1829     1.0  0.91265  0.75965  0.43370  1.0000
  C   C1830     1.0  0.58133  0.00054  0.15341  1.0000
  H   H3241     1.0  0.89027  0.75671  0.46720  1.0000
  C   C1831     1.0  0.71912  0.76779  0.00208  1.0000
  H   H3242     1.0  0.59450  0.80438  0.99617  1.0000
  H   H3243     1.0  0.85545  0.75974  0.45193  1.0000
  H   H3244     1.0  0.49750  0.91608  0.23049  1.0000
  H   H3245     1.0  0.66008  0.76141  0.48934  1.0000
  H   H3246     1.0  0.49499  0.91416  0.17687  1.0000
  H   H3247     1.0  0.54371  0.83910  0.01661  1.0000
  Fe  Fe206     1.0  0.51264  0.00239  0.24205  1.0000
  H   H3248     1.0  0.73309  0.96562  0.47435  1.0000
  H   H3249     1.0  0.77437  0.99747  0.24263  1.0000
  H   H3250     1.0  0.69638  0.95704  0.47795  1.0000
  C   C1832     1.0  0.75769  0.86987  0.47910  1.0000
  H   H3251     1.0  0.54374  0.86167  0.00070  1.0000
  H   H3252     1.0  0.74969  0.90586  0.48408  1.0000
  H   H3253     1.0  0.60969  0.76014  0.11096  1.0000
  H   H3254     1.0  0.76987  0.89570  0.44835  1.0000
  H   H3255     1.0  0.76315  0.83456  0.00475  1.0000
  H   H3256     1.0  0.71200  0.84106  0.48477  1.0000
  H   H3257     1.0  0.74286  0.86772  0.47281  1.0000
  C   C1833     1.0  0.72802  0.84115  0.00520  1.0000
  H   H3258     1.0  0.79807  0.85546  0.00576  1.0000
  C   C1834     1.0  0.76057  0.85098  0.48713  1.0000
  H   H3259     1.0  0.77021  0.81995  0.48578  1.0000
  Fe  Fe207     1.0  0.48929  0.96659  0.28143  1.0000
  H   H3260     1.0  0.57211  0.75475  0.18825  1.0000
  H   H3261     1.0  0.71945  0.85027  0.00635  1.0000
  H   H3262     1.0  0.70276  0.81687  0.99679  1.0000
  H   H3263     1.0  0.74252  0.84990  0.99371  1.0000
  H   H3264     1.0  0.60108  0.83934  0.99126  1.0000
  H   H3265     1.0  0.72047  0.88026  0.51132  1.0000
  H   H3266     1.0  0.60513  0.85356  0.85409  1.0000
  Fe  Fe208     1.0  0.64873  0.82639  0.59983  1.0000
  S   S414      1.0  0.64144  0.82659  0.55206  1.0000
  S   S415      1.0  0.62794  0.82473  0.63941  1.0000
  Fe  Fe209     1.0  0.68608  0.82037  0.58440  1.0000
  S   S416      1.0  0.68191  0.82069  0.53555  1.0000
  S   S417      1.0  0.71103  0.81485  0.60473  1.0000
  Fe  Fe210     1.0  0.67313  0.84527  0.54073  1.0000
  H   H3267     1.0  0.53678  0.95699  0.82913  1.0000
  Fe  Fe211     1.0  0.65095  0.80211  0.55060  1.0000
  S   S418      1.0  0.63575  0.77735  0.52516  1.0000
  S   S419      1.0  0.67979  0.84657  0.58891  1.0000
  S   S420      1.0  0.65572  0.80028  0.59905  1.0000
  H   H3268     1.0  0.64032  0.94525  0.52766  1.0000
  C   C1835     1.0  0.58190  0.81966  0.96567  1.0000
  H   H3269     1.0  0.66241  0.98049  0.55769  1.0000
  C   C1836     1.0  0.61622  0.97469  0.83079  1.0000
  Fe  Fe212     1.0  0.58909  0.89360  0.72641  1.0000
  S   S421      1.0  0.60577  0.91621  0.75405  1.0000
  S   S422      1.0  0.60675  0.89122  0.68548  1.0000
  Fe  Fe213     1.0  0.55013  0.89009  0.75771  1.0000
  S   S423      1.0  0.56409  0.91241  0.78701  1.0000
  S   S424      1.0  0.51732  0.87591  0.76020  1.0000
  Fe  Fe214     1.0  0.58293  0.92804  0.74571  1.0000
  S   S425      1.0  0.58760  0.95841  0.73302  1.0000
  Fe  Fe215     1.0  0.58556  0.89851  0.79336  1.0000
  S   S426      1.0  0.59883  0.89746  0.83777  1.0000
  S   S427      1.0  0.56730  0.90688  0.71581  1.0000
  S   S428      1.0  0.57041  0.87461  0.76659  1.0000
  C   C1837     1.0  0.58676  0.89927  0.87113  1.0000
  C   C1838     1.0  0.59761  0.90718  0.89462  1.0000
  C   C1839     1.0  0.58821  0.90755  0.92212  1.0000
  C   C1840     1.0  0.56789  0.89961  0.92646  1.0000
  C   C1841     1.0  0.55712  0.89178  0.90296  1.0000
  C   C1842     1.0  0.56648  0.89174  0.87535  1.0000
  H   H3270     1.0  0.61334  0.91292  0.89156  1.0000
  H   H3271     1.0  0.59665  0.91372  0.94004  1.0000
  H   H3272     1.0  0.54143  0.88533  0.90645  1.0000
  H   H3273     1.0  0.55809  0.88522  0.85763  1.0000
  C   C1843     1.0  0.60958  0.97415  0.74338  1.0000
  C   C1844     1.0  0.62587  0.96928  0.74568  1.0000
  C   C1845     1.0  0.64362  0.98265  0.75233  1.0000
  H   H3274     1.0  0.57679  0.81821  0.94305  1.0000
  C   C1846     1.0  0.61094  0.99219  0.74840  1.0000
  H   H3275     1.0  0.62502  0.95545  0.74148  1.0000
  H   H3276     1.0  0.59828  0.99577  0.74740  1.0000
  C   C1847     1.0  0.50233  0.88898  0.76358  1.0000
  C   C1848     1.0  0.50904  0.90858  0.75546  1.0000
  C   C1849     1.0  0.53373  0.97798  0.65926  1.0000
  H   H3277     1.0  0.52386  0.91615  0.74604  1.0000
  S   S429      1.0  0.55511  0.89870  0.96075  1.0000
  H   H3278     1.0  0.68362  0.76404  0.67150  1.0000
  H   H3279     1.0  0.65633  0.97901  0.75354  1.0000
  H   H3280     1.0  0.62855  0.98581  0.89153  1.0000
  C   C1850     1.0  0.62250  0.84348  0.65214  1.0000
  C   C1851     1.0  0.62994  0.86171  0.63675  1.0000
  C   C1852     1.0  0.62494  0.87609  0.64736  1.0000
  C   C1853     1.0  0.61254  0.87246  0.67349  1.0000
  C   C1854     1.0  0.60509  0.85422  0.68886  1.0000
  C   C1855     1.0  0.61001  0.83981  0.67816  1.0000
  H   H3281     1.0  0.63949  0.86469  0.61667  1.0000
  H   H3282     1.0  0.63074  0.89013  0.63529  1.0000
  H   H3283     1.0  0.59552  0.85123  0.70893  1.0000
  H   H3284     1.0  0.60415  0.82575  0.69018  1.0000
  H   H3285     1.0  0.55665  0.98077  0.69061  1.0000
  H   H3286     1.0  0.54598  0.94819  0.87139  1.0000
  H   H3287     1.0  0.69684  0.76191  0.71836  1.0000
  H   H3288     1.0  0.55738  0.96691  0.66128  1.0000
  H   H3289     1.0  0.63496  0.96439  0.85847  1.0000
  H   H3290     1.0  0.56285  0.95412  0.79502  1.0000
  C   C1856     1.0  0.71682  0.79668  0.59147  1.0000
  C   C1857     1.0  0.70765  0.78770  0.56769  1.0000
  C   C1858     1.0  0.71348  0.77420  0.55603  1.0000
  C   C1859     1.0  0.72795  0.76906  0.56872  1.0000
  C   C1860     1.0  0.73680  0.77767  0.59299  1.0000
  C   C1861     1.0  0.73146  0.79169  0.60401  1.0000
  H   H3291     1.0  0.69629  0.79136  0.55798  1.0000
  H   H3292     1.0  0.70681  0.76771  0.53711  1.0000
  N   N101      1.0  0.63465  0.98994  0.65114  1.0000
  H   H3293     1.0  0.73877  0.79882  0.62212  1.0000
  H   H3294     1.0  0.49465  0.86221  0.82693  1.0000
  Fe  Fe216     1.0  0.49966  0.98601  0.73778  1.0000
  H   H3295     1.0  0.83295  0.76236  0.49814  1.0000
  H   H3296     1.0  0.57236  0.00117  0.73138  1.0000
  H   H3297     1.0  0.49394  0.88960  0.86908  1.0000
  C   C1862     1.0  0.67010  0.99499  0.66345  1.0000
  C   C1863     1.0  0.51697  0.88595  0.84351  1.0000
  H   H3298     1.0  0.67547  0.99754  0.63960  1.0000
  H   H3299     1.0  0.62756  0.75952  0.63652  1.0000
  H   H3300     1.0  0.59694  0.95833  0.65961  1.0000
  H   H3301     1.0  0.60914  0.95764  0.62487  1.0000
  H   H3302     1.0  0.61751  0.93130  0.64785  1.0000
  H   H3303     1.0  0.60892  0.88647  0.94822  1.0000
  N   N102      1.0  0.51359  0.91783  0.85085  1.0000
  H   H3304     1.0  0.71852  0.81155  0.50791  1.0000
  C   C1864     1.0  0.66061  0.92924  0.49580  1.0000
  H   H3305     1.0  0.52913  0.93250  0.93590  1.0000
  C   C1865     1.0  0.59115  0.79541  0.60053  1.0000
  H   H3306     1.0  0.76537  0.77584  0.68880  1.0000
  C   C1866     1.0  0.76205  0.81175  0.50692  1.0000
  C   C1867     1.0  0.60356  0.76921  0.63774  1.0000
  C   C1868     1.0  0.57927  0.80701  0.58825  1.0000
  H   H3307     1.0  0.75623  0.76512  0.65609  1.0000
  S   S430      1.0  0.53245  0.99455  0.73263  1.0000
  H   H3308     1.0  0.82981  0.75978  0.73318  1.0000
  H   H3309     1.0  0.69799  0.75658  0.62299  1.0000
  C   C1869     1.0  0.58499  0.82575  0.60132  1.0000
  H   H3310     1.0  0.49029  0.99130  0.60255  1.0000
  C   C1870     1.0  0.66944  0.75653  0.61866  1.0000
  H   H3311     1.0  0.67352  0.77159  0.62204  1.0000
  H   H3312     1.0  0.72588  0.81648  0.98340  1.0000
  H   H3313     1.0  0.60661  0.80332  0.59187  1.0000
  H   H3314     1.0  0.59082  0.79592  0.62503  1.0000
  H   H3315     1.0  0.57720  0.00257  0.79882  1.0000
  H   H3316     1.0  0.57269  0.99729  0.63165  1.0000
  H   H3317     1.0  0.66681  0.98000  0.67199  1.0000
  H   H3318     1.0  0.50454  0.94162  0.85129  1.0000
  H   H3319     1.0  0.61358  0.78383  0.63993  1.0000
  S   S431      1.0  0.71849  0.76203  0.91329  1.0000
  H   H3320     1.0  0.56343  0.79910  0.59367  1.0000
  H   H3321     1.0  0.58225  0.81056  0.56372  1.0000
  C   C1871     1.0  0.67256  0.95735  0.52345  1.0000
  H   H3322     1.0  0.52007  0.97633  0.84700  1.0000
  H   H3323     1.0  0.77512  0.85501  0.49617  1.0000
  C   C1872     1.0  0.64503  0.00090  0.75633  1.0000
  C   C1873     1.0  0.58953  0.80399  0.97335  1.0000
  C   C1874     1.0  0.61754  0.99496  0.66025  1.0000
  C   C1875     1.0  0.71879  0.88990  0.49367  1.0000
  C   C1876     1.0  0.54119  0.93992  0.91833  1.0000
  H   H3324     1.0  0.73197  0.77044  0.70852  1.0000
  C   C1877     1.0  0.75344  0.77308  0.67372  1.0000
  C   C1878     1.0  0.51696  0.00332  0.84276  1.0000
  H   H3325     1.0  0.60069  0.83442  0.59548  1.0000
  H   H3326     1.0  0.55403  0.00035  0.57278  1.0000
  H   H3327     1.0  0.58216  0.82331  0.62597  1.0000
  N   N103      1.0  0.74515  0.83590  0.50845  1.0000
  H   H3328     1.0  0.50214  0.98766  0.65260  1.0000
  H   H3329     1.0  0.52240  0.98717  0.60624  1.0000
  C   C1879     1.0  0.59358  0.85073  0.87230  1.0000
  C   C1880     1.0  0.49596  0.00344  0.61559  1.0000
  H   H3330     1.0  0.60716  0.99253  0.64255  1.0000
  C   C1881     1.0  0.61341  0.75596  0.64947  1.0000
  H   H3331     1.0  0.76020  0.87807  0.49842  1.0000
  H   H3332     1.0  0.58448  0.83539  0.87539  1.0000
  H   H3333     1.0  0.55518  0.97967  0.61407  1.0000
  C   C1882     1.0  0.55598  0.84789  0.97043  1.0000
  C   C1883     1.0  0.58729  0.85611  0.92558  1.0000
  C   C1884     1.0  0.63648  0.89603  0.98734  1.0000
  H   H3334     1.0  0.82466  0.76220  0.78032  1.0000
  H   H3335     1.0  0.81846  0.78486  0.81235  1.0000
  H   H3336     1.0  0.67046  0.75569  0.59433  1.0000
  C   C1885     1.0  0.61490  0.98525  0.88149  1.0000
  H   H3337     1.0  0.77979  0.79483  0.51119  1.0000
  C   C1886     1.0  0.73228  0.95874  0.49734  1.0000
  H   H3338     1.0  0.65989  0.92098  0.55365  1.0000
  H   H3339     1.0  0.75362  0.78684  0.66331  1.0000
  H   H3340     1.0  0.58314  0.86840  0.91935  1.0000
  C   C1887     1.0  0.59568  0.96205  0.92625  1.0000
  C   C1888     1.0  0.52327  0.91984  0.87970  1.0000
  H   H3341     1.0  0.66418  0.89233  0.57801  1.0000
  H   H3342     1.0  0.60185  0.80549  0.95724  1.0000
  C   C1889     1.0  0.65004  0.97148  0.54615  1.0000
  H   H3343     1.0  0.61619  0.75762  0.67315  1.0000
  H   H3344     1.0  0.56211  0.77024  0.62963  1.0000
  H   H3345     1.0  0.54616  0.94707  0.70905  1.0000
  C   C1890     1.0  0.60942  0.95578  0.64940  1.0000
  H   H3346     1.0  0.57639  0.83383  0.59215  1.0000
  H   H3347     1.0  0.58432  0.85866  0.86548  1.0000
  H   H3348     1.0  0.77857  0.75771  0.73476  1.0000
  H   H3349     1.0  0.65089  0.98899  0.61092  1.0000
  C   C1891     1.0  0.71754  0.82565  0.98621  1.0000
  H   H3350     1.0  0.71432  0.97123  0.51793  1.0000
  H   H3351     1.0  0.61047  0.99557  0.89240  1.0000
  C   C1892     1.0  0.59964  0.96511  0.89234  1.0000
  H   H3352     1.0  0.60157  0.96342  0.83587  1.0000
  C   C1893     1.0  0.52804  0.99904  0.61998  1.0000
  C   C1894     1.0  0.60606  0.93511  0.65877  1.0000
  C   C1895     1.0  0.59927  0.76744  0.60461  1.0000
  C   C1896     1.0  0.59786  0.83930  0.96753  1.0000
  H   H3353     1.0  0.64879  0.89575  0.97291  1.0000
  C   C1897     1.0  0.58023  0.75857  0.51424  1.0000
  C   C1898     1.0  0.60283  0.85684  0.90106  1.0000
  N   N104      1.0  0.61872  0.99109  0.84818  1.0000
  H   H3354     1.0  0.61061  0.84750  0.90789  1.0000
  H   H3355     1.0  0.71605  0.83205  0.96382  1.0000
  C   C1899     1.0  0.60567  0.00094  0.83691  1.0000
  H   H3356     1.0  0.55316  0.76610  0.59436  1.0000
  C   C1900     1.0  0.65254  0.95323  0.54039  1.0000
  C   C1901     1.0  0.53597  0.95237  0.69743  1.0000
  C   C1902     1.0  0.67965  0.89878  0.56891  1.0000
  H   H3357     1.0  0.55171  0.96941  0.77799  1.0000
  C   C1903     1.0  0.75445  0.82394  0.52541  1.0000
  H   H3358     1.0  0.63633  0.96809  0.56027  1.0000
  H   H3359     1.0  0.51664  0.00349  0.81829  1.0000
  H   H3360     1.0  0.52714  0.88757  0.86103  1.0000
  C   C1904     1.0  0.68172  0.91099  0.53925  1.0000
  C   C1905     1.0  0.54754  0.97039  0.67663  1.0000
  C   C1906     1.0  0.50519  0.86483  0.84425  1.0000
  H   H3361     1.0  0.52337  0.97940  0.67638  1.0000
  H   H3362     1.0  0.69947  0.00304  0.67739  1.0000
  H   H3363     1.0  0.55312  0.85594  0.95060  1.0000
  H   H3364     1.0  0.51962  0.94851  0.80200  1.0000
  H   H3365     1.0  0.74963  0.79922  0.50168  1.0000
  H   H3366     1.0  0.63556  0.93964  0.82815  1.0000
  H   H3367     1.0  0.54521  0.94589  0.76814  1.0000
  C   C1907     1.0  0.62443  0.94595  0.82498  1.0000
  H   H3368     1.0  0.61085  0.93673  0.83850  1.0000
  H   H3369     1.0  0.63740  0.75980  0.58436  1.0000
  H   H3370     1.0  0.68859  0.90728  0.58535  1.0000
  H   H3371     1.0  0.64749  0.99728  0.69229  1.0000
  C   C1908     1.0  0.63944  0.99416  0.61788  1.0000
  S   S432      1.0  0.67865  0.86985  0.50417  1.0000
  H   H3372     1.0  0.62152  0.94654  0.80113  1.0000
  H   H3373     1.0  0.61685  0.97919  0.80657  1.0000
  H   H3374     1.0  0.62362  0.87310  0.94356  1.0000
  H   H3375     1.0  0.52667  0.94118  0.68475  1.0000
  C   C1909     1.0  0.72323  0.76332  0.97377  1.0000
  H   H3376     1.0  0.55675  0.99167  0.82606  1.0000
  H   H3377     1.0  0.64039  0.96429  0.65040  1.0000
  H   H3378     1.0  0.60619  0.93239  0.68332  1.0000
  H   H3379     1.0  0.73485  0.75832  0.97017  1.0000
  H   H3380     1.0  0.56947  0.81711  0.98213  1.0000
  H   H3381     1.0  0.52484  0.96655  0.64644  1.0000
  H   H3382     1.0  0.49387  0.89480  0.82991  1.0000
  C   C1910     1.0  0.57741  0.85775  0.97788  1.0000
  H   H3383     1.0  0.51278  0.91123  0.89874  1.0000
  H   H3384     1.0  0.62661  0.98626  0.60613  1.0000
  H   H3385     1.0  0.52653  0.84018  0.99008  1.0000
  C   C1911     1.0  0.69805  0.77300  0.95478  1.0000
  H   H3386     1.0  0.51052  0.98152  0.88081  1.0000
  H   H3387     1.0  0.65125  0.94492  0.56240  1.0000
  C   C1912     1.0  0.61905  0.87732  0.98905  1.0000
  H   H3388     1.0  0.49523  0.97465  0.85039  1.0000
  H   H3389     1.0  0.51517  0.85749  0.83966  1.0000
  H   H3390     1.0  0.55162  0.93265  0.91900  1.0000
  C   C1913     1.0  0.73599  0.84392  0.53111  1.0000
  H   H3391     1.0  0.53483  0.91394  0.87934  1.0000
  N   N105      1.0  0.67596  0.94026  0.51504  1.0000
  C   C1914     1.0  0.50354  0.89696  0.84852  1.0000
  C   C1915     1.0  0.80513  0.77311  0.82282  1.0000
  C   C1916     1.0  0.74965  0.85456  0.55405  1.0000
  H   H3392     1.0  0.57936  0.87284  0.97843  1.0000
  N   N106      1.0  0.54335  0.99631  0.63880  1.0000
  C   C1917     1.0  0.55943  0.99448  0.61930  1.0000
  H   H3393     1.0  0.50206  0.93359  0.75514  1.0000
  C   C1918     1.0  0.74105  0.86662  0.57012  1.0000
  C   C1919     1.0  0.71348  0.95681  0.51476  1.0000
  H   H3394     1.0  0.72356  0.83238  0.54428  1.0000
  H   H3395     1.0  0.72939  0.85339  0.52029  1.0000
  N   N107      1.0  0.59318  0.85629  0.95714  1.0000
  H   H3396     1.0  0.59934  0.78432  0.54971  1.0000
  H   H3397     1.0  0.74406  0.81413  0.54358  1.0000
  H   H3398     1.0  0.76699  0.83297  0.53675  1.0000
  H   H3399     1.0  0.64646  0.92148  0.50919  1.0000
  H   H3400     1.0  0.68363  0.93580  0.56023  1.0000
  H   H3401     1.0  0.58901  0.97178  0.93373  1.0000
  C   C1920     1.0  0.53334  0.94015  0.88763  1.0000
  H   H3402     1.0  0.75161  0.84418  0.57126  1.0000
  H   H3403     1.0  0.76421  0.86379  0.54333  1.0000
  H   H3404     1.0  0.60505  0.95418  0.88626  1.0000
  C   C1921     1.0  0.65194  0.00008  0.66796  1.0000
  H   H3405     1.0  0.79234  0.77337  0.81115  1.0000
  H   H3406     1.0  0.59172  0.92581  0.65225  1.0000
  H   H3407     1.0  0.52318  0.94764  0.88816  1.0000
  H   H3408     1.0  0.57998  0.97566  0.83015  1.0000
  H   H3409     1.0  0.52555  0.89089  0.82163  1.0000
  H   H3410     1.0  0.81968  0.75446  0.83480  1.0000
  H   H3411     1.0  0.68999  0.77527  0.93638  1.0000
  H   H3412     1.0  0.72641  0.85776  0.58117  1.0000
  H   H3413     1.0  0.75061  0.87319  0.58749  1.0000
  H   H3414     1.0  0.73986  0.87803  0.55423  1.0000
  H   H3415     1.0  0.62830  0.96571  0.68431  1.0000
  C   C1922     1.0  0.56426  0.76429  0.60890  1.0000
  C   C1923     1.0  0.62907  0.96897  0.65963  1.0000
  H   H3416     1.0  0.71304  0.94907  0.53690  1.0000
  C   C1924     1.0  0.49818  0.92624  0.85003  1.0000
  H   H3417     1.0  0.68381  0.96505  0.53804  1.0000
  C   C1925     1.0  0.49668  0.91841  0.76046  1.0000
  H   H3418     1.0  0.64527  0.97438  0.82111  1.0000
  H   H3419     1.0  0.54269  0.92553  0.82964  1.0000
  H   H3420     1.0  0.74821  0.77397  0.60259  1.0000
  H   H3421     1.0  0.59567  0.76674  0.50603  1.0000
  H   H3422     1.0  0.58550  0.94729  0.93353  1.0000
  H   H3423     1.0  0.61151  0.84002  0.95552  1.0000
  H   H3424     1.0  0.61342  0.77493  0.59105  1.0000
  H   H3425     1.0  0.69719  0.91614  0.53045  1.0000
  H   H3426     1.0  0.71686  0.77109  0.66224  1.0000
  H   H3427     1.0  0.52670  0.95528  0.71457  1.0000
  H   H3428     1.0  0.60907  0.98549  0.68043  1.0000
  H   H3429     1.0  0.73300  0.94464  0.49626  1.0000
  H   H3430     1.0  0.80296  0.77531  0.84639  1.0000
  C   C1926     1.0  0.71286  0.76611  0.94985  1.0000
  H   H3431     1.0  0.52407  0.91865  0.80519  1.0000
  C   C1927     1.0  0.63156  0.96560  0.83489  1.0000
  H   H3432     1.0  0.57395  0.84365  0.92352  1.0000
  C   C1928     1.0  0.54913  0.95460  0.78681  1.0000
  C   C1929     1.0  0.53271  0.94742  0.81177  1.0000
  H   H3433     1.0  0.67267  0.90181  0.52374  1.0000
  C   C1930     1.0  0.58352  0.98914  0.83968  1.0000
  H   H3434     1.0  0.61367  0.87155  0.89588  1.0000
  H   H3435     1.0  0.60937  0.96435  0.93723  1.0000
  H   H3436     1.0  0.74504  0.96751  0.50840  1.0000
  H   H3437     1.0  0.68476  0.88723  0.56537  1.0000
  C   C1931     1.0  0.61137  0.87371  0.95783  1.0000
  C   C1932     1.0  0.58450  0.77547  0.56040  1.0000
  H   H3438     1.0  0.58398  0.99251  0.57280  1.0000
  C   C1933     1.0  0.51026  0.00061  0.63710  1.0000
  H   H3439     1.0  0.54886  0.95460  0.92336  1.0000
  H   H3440     1.0  0.68246  0.78272  0.98655  1.0000
  C   C1934     1.0  0.52859  0.92663  0.82448  1.0000
  C   C1935     1.0  0.67508  0.92755  0.54315  1.0000
  H   H3441     1.0  0.49171  0.92474  0.82817  1.0000
  H   H3442     1.0  0.63250  0.90798  0.97839  1.0000
  C   C1936     1.0  0.69553  0.94678  0.49761  1.0000
  H   H3443     1.0  0.64908  0.97940  0.52483  1.0000
  H   H3444     1.0  0.57111  0.76601  0.50478  1.0000
  H   H3445     1.0  0.57784  0.98619  0.86343  1.0000
  C   C1937     1.0  0.57265  0.00001  0.82305  1.0000
  N   N108      1.0  0.58445  0.77517  0.59383  1.0000
  C   C1938     1.0  0.67546  0.76399  0.49342  1.0000
  H   H3446     1.0  0.58562  0.96244  0.88246  1.0000
  H   H3447     1.0  0.59013  0.76617  0.65229  1.0000
  H   H3448     1.0  0.49722  0.85878  0.86647  1.0000
  H   H3449     1.0  0.57775  0.79001  0.97243  1.0000
  C   C1939     1.0  0.73396  0.76170  0.69150  1.0000
  H   H3450     1.0  0.67881  0.77067  0.51425  1.0000
  C   C1940     1.0  0.77549  0.80434  0.52429  1.0000
  H   H3451     1.0  0.78886  0.81619  0.52869  1.0000
  H   H3452     1.0  0.64985  0.99872  0.84997  1.0000
  H   H3453     1.0  0.57458  0.78212  0.55144  1.0000
  H   H3454     1.0  0.76795  0.79615  0.54582  1.0000
  C   C1941     1.0  0.69377  0.77726  0.98320  1.0000
  H   H3455     1.0  0.55263  0.83329  0.96544  1.0000
  H   H3456     1.0  0.67452  0.96772  0.50344  1.0000
  C   C1942     1.0  0.71694  0.75703  0.67096  1.0000
  C   C1943     1.0  0.57781  0.75611  0.54829  1.0000
  C   C1944     1.0  0.51023  0.98268  0.85619  1.0000
