data_image0
_chemical_formula_structural       FeS2FeS2FeS2HS2CH2FeS2FeSHFeHSCSHS2FeS2H2CSFeSHFeSHFeSFeS3C6H4FeH8CH2C2H2C7H5SC5H3C6H3C6H3C8H4NC4HC2H12FeHNC12H23CH5CH2FeHCH2CH3CH3C2HFeH4NHC2H3C2H11CH4SC2H9CHCH3C2HC2HC2H3CSCHSCSHCH2CFeSCHCH2C2HNHFeH3CHCH13CHC2FeHC4H2CH2CHSH3CHFeH10SH5C4H2CHC3H2CH2SFe2HCFe2HSCSHSFeS2HFeS2FeS2FeS2FeSFeS5HFeS2HC6H4C7H4C6H6C6H7SHCH8FeH8CHCH6CHSNCHC5HCHCH2CH3CH8CH5CH3NH2CH5CH5CH3CNHCH3C2HCHCH8CH2SC2HCH3NCHCH4CHC7H12NHC3H6CH2NC8SC3H9SC2HCH5C2H3CH13C2HCHCH2C4H6CSH3CH2CH2CH2C8H5CH4CH3C2H3CHC2HNHFeSHSH3C2HCH2NH6CHC2HCH2C2H13C6H3C4SCH14CH7CNC2HCH2CH5C2HSH4NH2CH3CS2CS2C2H2SCH4CH2CH8CHC6HCH3C3H3CHNH4C2H2FeH2SH12CHFeCH4CH2CHCSC2H2SC2HC3HCH2SHCHCH2CHCSH3NHC4HC2HC2H2FeHC2H3C3HC2FeH3CH3CHCNH5NCSCH3CHCH2CH2CH4CHCHSHCH2SC2HCHCH2CH5C6H3CHC2H2CHCHC2NH7CH6CH2CH6CFeHCH2CH2CHCHC2H3NH2CH7C2H7CHC2H3C3SCH2CHC3H2CH2CSH4C4H4CH4CH2C4H3CH2CH5CH3NCH2CH2CH4CH3NHSC2H2SHC2S2HC3HSCH2C4H4CH3C2FeC2HC3H4C7H3C4H2CN2HCHC4H8SCH10CH9CHNC5H13CHFeHSH5C2H4SH2CHC2H2FeCHC3H2CNCH4C3HCH2CH7C2H2CH3FeHC3HCFeH3CHFeHCH4S2H4SHCFeS2FeCFeCS2CSHFeSCFeS2FeS2FeHSFeS2FeHSFeS2FeS2FeHFeS3CSFeHSC6HC8H4C6H2C6H4C6H4C6HCH2C6H4C6H3CHC2HFeHCHCH5C2FeCHCH5C2H6C2SNC12H29SH7SCH2CH3CHCFeHCH4C3H6SCSH11C2H2CH3CH3SH6CH3FeCH3C2H2CH6C2H4SNFeCH4CH3CFeC2H3NC2H2NH2SH6CH4C2H3SHNCH5CH2CHCH4SHCHSCHC2H2CH11CH2C2H2CHCH3CSFeS2FeS2FeCSH3SFeS2FeS2FeSFeS3FeS2FeCH2C6H4CHC6H4C2HC5H2CHC6H4NHC2HSCHC3SH2CH7CH10CH5CHNC12H29CHC3H5CH3CNH6C2FeCH3CHC2SH12CH5CH2CHSHSH2CHCHFeHCH3C2HCHCH3SH2C3H6CHCH4CNH5CFeCH3C2H2NSH3C2SHCSH2SHSCH2SHCH5CHC2FeH4C7H3C7H3NC4HC2H4CH8CH2SH3CH9C3H3CH4C2SC2HCH5C2H6NCH4CH3C2H2CSH5SCHC3H3CH6CS2CFeHC2H2CH2NH2C6H2CH2C2HSCH2C2H2CHCH2CHCHCFeCH3CHCHCH2CHCH2SH4CH5NH5C2H4C2H4C2H2SH2FeS2H4CHC2H2SHFeS2HC2HFeS2FeS2FeHFeS3FeSCSFeS2H4FeSHC6H4C2H2CH5C6H4C6H3CHCHCHNHCHC2HCFeH7NCNHCSH2S2CH3CH2CH3CH8CH4C3HC3H2CH4CHC2H4FeHCH4CH3S3H2CHSH4CH5CHC3H2CHFeH3CHCH7C2H3C2H4CH2CHCH6SH4CH4CH6FeCHCHCH4CH3NC10H8CNC2HCH3CH5CHCHC2H2C2H3C2H7CHSCNH2FeHCH2SH6FeS2FeC2HSCFeS2FeS2FeSFeS3CHCHCFeS2H2CHFeS2FeS2FeSFeS3C6H5CH12C5H2C6H4C6H4C2H3CHC6SHCH4C6H4C2H6NC9HC2H28NC2FeC3HC5H5SH7CH9C2HCSNCHSHC4HNH5CH5CFeC2H4CH2SH2CH2FeH2CH2CHCH3CH2CH2SC2H2C2H2NC2HC3HCH4SH2CNC3NH3CH2CH4SCSCH3CH5C2H2SCHCH3CSHC2H8CH2CH7FeH3CHC2FeCH3FeCH2CHSCHSHFeS2FeS2FeS2FeHFeHS2FeS2CH2CFeS2HSHSH2C6H4SC2H5C6H4CHC7H6CH2NC4FeH2C3H8NH2FeHCH3CH2C2H2SH2CH7CHCH2CHCSHSC2H2NC4HC5H8CH2CH2CH9NH4CH3CH2CHSH2CHCFeH3CH4CH3C3H5CHCHSH2NHCH7C2HCHFeCH2C2H2CHNHCHC2H3CHCH3C4HFeH2CH5NC2H4CH5CH3CSH2CHC2HCH3C2H3CHCH6CH2FeCH3CH3CH3C2H2SHFeC2FeS2FeSCFeS2FeS2FeSFeS3FeS2FeS2FeSFeS3FeSHFeS2FeH6C2H4CH4CH2C6H4C6H4C6H4C6H4C6H3C7H4NC12H30SCHCHCSH2C2HNC12H19C2H7CHCH6C2H2SCHCHNC3H2C2HCH4FeH2NH5CH7SCSCHSH7CH4CHC2HFeHCSCH5CHCHCH2CH3NHCHC2H2CH7FeS2H9C2HC2H3C2HSCHSH2SH2CSHC2HCH4CNC2HCHCH2CHNC6H4C6H5C2HC3HCH2CHCNHC2HCHC3HCH6FeH2NHC2H12SH2SC3H2C3H5FeNH4CHSH2CHC2H3CH3SH4CH4C2HCH3C2HCFeHSCHS2CSC2HCHCH6C6H4NC2HC3HC5H5CH4CH8CH5CFeH3NH11CH4SHC3HFeCH8C2H2C2HCH2C3H4SH11CHC3H3CHC2H3C
_chemical_formula_sum              "Fe144 S288 H2304 C1296 N72"
_cell_length_a       50.6181
_cell_length_b       50.5843
_cell_length_c       50.9033
_cell_angle_alpha    89.9002
_cell_angle_beta     89.9248
_cell_angle_gamma    89.6077

_space_group_name_H-M_alt    "P 1"
_space_group_IT_number       1

loop_
  _space_group_symop_operation_xyz
  'x, y, z'

loop_
  _atom_site_type_symbol
  _atom_site_label
  _atom_site_symmetry_multiplicity
  _atom_site_fract_x
  _atom_site_fract_y
  _atom_site_fract_z
  _atom_site_occupancy
  Fe  Fe1       1.0  0.26077  0.04014  0.13800  1.0000
  S   S1        1.0  0.25669  0.05746  0.09753  1.0000
  S   S2        1.0  0.30302  0.03107  0.15036  1.0000
  Fe  Fe2       1.0  0.20094  0.03767  0.14522  1.0000
  S   S3        1.0  0.19275  0.05508  0.10563  1.0000
  S   S4        1.0  0.16389  0.02530  0.16613  1.0000
  Fe  Fe3       1.0  0.22521  0.08306  0.11548  1.0000
  S   S5        1.0  0.22265  0.12721  0.11027  1.0000
  S   S6        1.0  0.23125  0.06784  0.15654  1.0000
  H   H1        1.0  0.38492  0.43176  0.16436  1.0000
  S   S7        1.0  0.23086  0.00809  0.13066  1.0000
  S   S8        1.0  0.22830  0.47745  0.14298  1.0000
  C   C1        1.0  0.11238  0.15236  0.06186  1.0000
  H   H2        1.0  0.13414  0.49015  0.20195  1.0000
  H   H3        1.0  0.02918  0.10912  0.12643  1.0000
  Fe  Fe4       1.0  0.11861  0.24976  0.04628  1.0000
  S   S9        1.0  0.10475  0.25555  0.08827  1.0000
  S   S10       1.0  0.16197  0.24331  0.03876  1.0000
  Fe  Fe5       1.0  0.06813  0.12700  0.22578  1.0000
  S   S11       1.0  0.06730  0.17027  0.21599  1.0000
  H   H4        1.0  0.26804  0.01272  0.01409  1.0000
  Fe  Fe6       1.0  0.03767  0.15842  0.18540  1.0000
  H   H5        1.0  0.10566  0.49847  0.22184  1.0000
  S   S12       1.0  0.04107  0.11483  0.19308  1.0000
  C   C2        1.0  0.16997  0.40241  0.06644  1.0000
  S   S13       1.0  0.43365  0.08132  0.22619  1.0000
  H   H6        1.0  0.15593  0.03250  0.05619  1.0000
  S   S14       1.0  0.49308  0.27383  0.20522  1.0000
  S   S15       1.0  0.45976  0.15128  0.20023  1.0000
  Fe  Fe7       1.0  0.45015  0.34660  0.15137  1.0000
  S   S16       1.0  0.46480  0.34355  0.19279  1.0000
  S   S17       1.0  0.40569  0.34883  0.14731  1.0000
  H   H7        1.0  0.33126  0.14261  0.23064  1.0000
  H   H8        1.0  0.11327  0.12488  0.01683  1.0000
  C   C3        1.0  0.48843  0.30585  0.03715  1.0000
  S   S18       1.0  0.47423  0.31207  0.13665  1.0000
  Fe  Fe8       1.0  0.26633  0.46790  0.04734  1.0000
  S   S19       1.0  0.28992  0.43012  0.04815  1.0000
  H   H9        1.0  0.26089  0.26473  0.07678  1.0000
  Fe  Fe9       1.0  0.25544  0.46554  0.10840  1.0000
  S   S20       1.0  0.27934  0.42821  0.11213  1.0000
  H   H10       1.0  0.46216  0.46044  0.22095  1.0000
  Fe  Fe10      1.0  0.30817  0.44716  0.08463  1.0000
  S   S21       1.0  0.35276  0.44576  0.08808  1.0000
  Fe  Fe11      1.0  0.25871  0.41462  0.07552  1.0000
  S   S22       1.0  0.24023  0.37409  0.08002  1.0000
  S   S23       1.0  0.28597  0.48601  0.08290  1.0000
  S   S24       1.0  0.23355  0.45110  0.07251  1.0000
  C   C4        1.0  0.39168  0.37640  0.13140  1.0000
  C   C5        1.0  0.36520  0.38291  0.13635  1.0000
  C   C6        1.0  0.35305  0.40416  0.12318  1.0000
  C   C7        1.0  0.36742  0.41909  0.10505  1.0000
  C   C8        1.0  0.39409  0.41288  0.10049  1.0000
  C   C9        1.0  0.40618  0.39149  0.11353  1.0000
  H   H11       1.0  0.35409  0.37149  0.15050  1.0000
  H   H12       1.0  0.33264  0.40909  0.12718  1.0000
  H   H13       1.0  0.40529  0.42440  0.08649  1.0000
  H   H14       1.0  0.42656  0.38641  0.10946  1.0000
  Fe  Fe12      1.0  0.40088  0.09467  0.25269  1.0000
  H   H15       1.0  0.15364  0.41036  0.07875  1.0000
  H   H16       1.0  0.29711  0.10671  0.14995  1.0000
  H   H17       1.0  0.26701  0.35478  0.17109  1.0000
  H   H18       1.0  0.02342  0.08192  0.14894  1.0000
  H   H19       1.0  0.36090  0.15266  0.24761  1.0000
  H   H20       1.0  0.34242  0.10758  0.16722  1.0000
  H   H21       1.0  0.49385  0.30120  0.05781  1.0000
  H   H22       1.0  0.36880  0.18648  0.21208  1.0000
  C   C10       1.0  0.46784  0.18565  0.20228  1.0000
  H   H23       1.0  0.45772  0.19340  0.16185  1.0000
  H   H24       1.0  0.39400  0.14735  0.20544  1.0000
  C   C11       1.0  0.48261  0.24008  0.20331  1.0000
  C   C12       1.0  0.21451  0.47647  0.19564  1.0000
  H   H25       1.0  0.18874  0.40456  0.07749  1.0000
  H   H26       1.0  0.39566  0.01954  0.22931  1.0000
  C   C13       1.0  0.35824  0.28412  0.12580  1.0000
  C   C14       1.0  0.08565  0.23060  0.10312  1.0000
  C   C15       1.0  0.07412  0.21065  0.08814  1.0000
  C   C16       1.0  0.05880  0.19110  0.10031  1.0000
  C   C17       1.0  0.05518  0.19117  0.12760  1.0000
  C   C18       1.0  0.06679  0.21098  0.14273  1.0000
  C   C19       1.0  0.08183  0.23078  0.13046  1.0000
  H   H27       1.0  0.07642  0.21068  0.06711  1.0000
  H   H28       1.0  0.28659  0.06540  0.03756  1.0000
  H   H29       1.0  0.06374  0.21134  0.16376  1.0000
  H   H30       1.0  0.09052  0.24631  0.14212  1.0000
  H   H31       1.0  0.13776  0.16343  0.23755  1.0000
  S   S25       1.0  0.16457  0.17022  0.00846  1.0000
  C   C20       1.0  0.23640  0.35282  0.03008  1.0000
  C   C21       1.0  0.22623  0.35386  0.05560  1.0000
  C   C22       1.0  0.20501  0.33750  0.06243  1.0000
  C   C23       1.0  0.19305  0.32123  0.04356  1.0000
  C   C24       1.0  0.33328  0.12653  0.16126  1.0000
  H   H32       1.0  0.48071  0.18463  0.24243  1.0000
  H   H33       1.0  0.19739  0.33778  0.08230  1.0000
  H   H34       1.0  0.33717  0.00813  0.03335  1.0000
  C   C25       1.0  0.18088  0.15828  0.03667  1.0000
  C   C26       1.0  0.18290  0.13093  0.04100  1.0000
  C   C27       1.0  0.19574  0.12108  0.06350  1.0000
  C   C28       1.0  0.20693  0.13857  0.08154  1.0000
  C   C29       1.0  0.20538  0.16582  0.07689  1.0000
  C   C30       1.0  0.19213  0.17567  0.05470  1.0000
  H   H35       1.0  0.17446  0.11737  0.02697  1.0000
  H   H36       1.0  0.19714  0.10000  0.06675  1.0000
  H   H37       1.0  0.21460  0.17932  0.09045  1.0000
  C   C31       1.0  0.45582  0.47521  0.20610  1.0000
  C   C32       1.0  0.12397  0.08942  0.21552  1.0000
  C   C33       1.0  0.10899  0.07417  0.19825  1.0000
  C   C34       1.0  0.12141  0.05477  0.18272  1.0000
  C   C35       1.0  0.14886  0.05103  0.18399  1.0000
  C   C36       1.0  0.16390  0.06689  0.20064  1.0000
  H   H38       1.0  0.26717  0.26262  0.04197  1.0000
  H   H39       1.0  0.08780  0.07680  0.19737  1.0000
  H   H40       1.0  0.10973  0.04266  0.16976  1.0000
  C   C37       1.0  0.47207  0.22895  0.18044  1.0000
  C   C38       1.0  0.46502  0.20189  0.17989  1.0000
  C   C39       1.0  0.34258  0.07515  0.21838  1.0000
  C   C40       1.0  0.31534  0.07799  0.21399  1.0000
  C   C41       1.0  0.30306  0.06495  0.19295  1.0000
  C   C42       1.0  0.31794  0.04877  0.17624  1.0000
  C   C43       1.0  0.34525  0.04609  0.18049  1.0000
  C   C44       1.0  0.35756  0.05924  0.20149  1.0000
  H   H41       1.0  0.30361  0.09021  0.22703  1.0000
  H   H42       1.0  0.28201  0.06710  0.18994  1.0000
  H   H43       1.0  0.16628  0.38109  0.06287  1.0000
  H   H44       1.0  0.37853  0.05694  0.20472  1.0000
  N   N1        1.0  0.30852  0.33172  0.08994  1.0000
  C   C45       1.0  0.30111  0.35138  0.11115  1.0000
  C   C46       1.0  0.31383  0.34685  0.06484  1.0000
  C   C47       1.0  0.33347  0.31683  0.09705  1.0000
  C   C48       1.0  0.33237  0.37116  0.06712  1.0000
  H   H45       1.0  0.41210  0.43127  0.22666  1.0000
  C   C49       1.0  0.31178  0.12038  0.14114  1.0000
  C   C50       1.0  0.34057  0.38127  0.04001  1.0000
  H   H46       1.0  0.31918  0.35947  0.12031  1.0000
  H   H47       1.0  0.29071  0.36877  0.10250  1.0000
  H   H48       1.0  0.29488  0.35430  0.05629  1.0000
  H   H49       1.0  0.32277  0.33357  0.04980  1.0000
  H   H50       1.0  0.33989  0.30392  0.08055  1.0000
  H   H51       1.0  0.35011  0.33074  0.09997  1.0000
  H   H52       1.0  0.35072  0.36659  0.07804  1.0000
  H   H53       1.0  0.32215  0.38763  0.07741  1.0000
  H   H54       1.0  0.30030  0.36542  0.16436  1.0000
  H   H55       1.0  0.27253  0.38115  0.14804  1.0000
  H   H56       1.0  0.35745  0.27271  0.14444  1.0000
  H   H57       1.0  0.19379  0.38561  0.02302  1.0000
  Fe  Fe13      1.0  0.03315  0.17186  0.24427  1.0000
  H   H58       1.0  0.07663  0.13276  0.05158  1.0000
  N   N2        1.0  0.14758  0.16407  0.15406  1.0000
  C   C51       1.0  0.16504  0.18106  0.13707  1.0000
  C   C52       1.0  0.16418  0.14388  0.16882  1.0000
  C   C53       1.0  0.12937  0.14912  0.13598  1.0000
  C   C54       1.0  0.13058  0.18013  0.17272  1.0000
  C   C55       1.0  0.14341  0.20432  0.18614  1.0000
  C   C56       1.0  0.15049  0.20092  0.11876  1.0000
  C   C57       1.0  0.11145  0.12834  0.14953  1.0000
  C   C58       1.0  0.19177  0.15276  0.17857  1.0000
  C   C59       1.0  0.20435  0.13197  0.19648  1.0000
  C   C60       1.0  0.12314  0.21955  0.20266  1.0000
  C   C61       1.0  0.16861  0.22347  0.11034  1.0000
  C   C62       1.0  0.09317  0.11518  0.12968  1.0000
  H   H59       1.0  0.17765  0.16826  0.12434  1.0000
  H   H60       1.0  0.17920  0.19235  0.14924  1.0000
  H   H61       1.0  0.15309  0.13586  0.18596  1.0000
  H   H62       1.0  0.16842  0.12641  0.15605  1.0000
  H   H63       1.0  0.14103  0.13877  0.12040  1.0000
  H   H64       1.0  0.11586  0.16304  0.12554  1.0000
  H   H65       1.0  0.11270  0.18777  0.16241  1.0000
  H   H66       1.0  0.12258  0.16734  0.18863  1.0000
  H   H67       1.0  0.15131  0.21851  0.17155  1.0000
  H   H68       1.0  0.15950  0.19805  0.19938  1.0000
  H   H69       1.0  0.14355  0.19065  0.10078  1.0000
  H   H70       1.0  0.13310  0.20986  0.12856  1.0000
  H   H71       1.0  0.09886  0.13764  0.16486  1.0000
  H   H72       1.0  0.12350  0.11250  0.15882  1.0000
  H   H73       1.0  0.20526  0.15548  0.16153  1.0000
  H   H74       1.0  0.19082  0.17151  0.18954  1.0000
  H   H75       1.0  0.20506  0.11245  0.18654  1.0000
  H   H76       1.0  0.22487  0.13780  0.20137  1.0000
  H   H77       1.0  0.19295  0.13018  0.21502  1.0000
  H   H78       1.0  0.42122  0.02974  0.18959  1.0000
  H   H79       1.0  0.13284  0.23653  0.21242  1.0000
  H   H80       1.0  0.10697  0.22734  0.19003  1.0000
  H   H81       1.0  0.30625  0.28025  0.06498  1.0000
  C   C63       1.0  0.37462  0.14711  0.19504  1.0000
  H   H82       1.0  0.24682  0.28902  0.05456  1.0000
  H   H83       1.0  0.07988  0.13010  0.12047  1.0000
  H   H84       1.0  0.10487  0.10501  0.11418  1.0000
  H   H85       1.0  0.08081  0.10030  0.13992  1.0000
  H   H86       1.0  0.17421  0.43868  0.04540  1.0000
  C   C64       1.0  0.12733  0.49516  0.22207  1.0000
  H   H87       1.0  0.37554  0.29753  0.12671  1.0000
  H   H88       1.0  0.34670  0.45662  0.14541  1.0000
  Fe  Fe14      1.0  0.49035  0.31023  0.17790  1.0000
  H   H89       1.0  0.39266  0.39659  0.19314  1.0000
  C   C65       1.0  0.17118  0.41756  0.04046  1.0000
  H   H90       1.0  0.17493  0.23515  0.12765  1.0000
  H   H91       1.0  0.17628  0.30917  0.04889  1.0000
  C   C66       1.0  0.37648  0.47323  0.17145  1.0000
  H   H92       1.0  0.41428  0.47647  0.21685  1.0000
  H   H93       1.0  0.35689  0.03363  0.16760  1.0000
  H   H94       1.0  0.16293  0.09714  0.23040  1.0000
  C   C67       1.0  0.01977  0.08948  0.12877  1.0000
  H   H95       1.0  0.25345  0.36447  0.02498  1.0000
  H   H96       1.0  0.33926  0.48930  0.15711  1.0000
  H   H97       1.0  0.11453  0.20664  0.21806  1.0000
  C   C68       1.0  0.20252  0.32093  0.01777  1.0000
  C   C69       1.0  0.43461  0.45843  0.14060  1.0000
  H   H98       1.0  0.40829  0.35844  0.21910  1.0000
  Fe  Fe15      1.0  0.22459  0.02746  0.09159  1.0000
  H   H99       1.0  0.44359  0.42314  0.21314  1.0000
  H   H100      1.0  0.34027  0.17452  0.19496  1.0000
  H   H101      1.0  0.38751  0.48235  0.15503  1.0000
  H   H102      1.0  0.02903  0.07556  0.11461  1.0000
  N   N3        1.0  0.41810  0.44614  0.18723  1.0000
  H   H103      1.0  0.10471  0.15750  0.08160  1.0000
  C   C70       1.0  0.09890  0.14159  0.01519  1.0000
  C   C71       1.0  0.08914  0.14855  0.04315  1.0000
  H   H104      1.0  0.37335  0.19297  0.16659  1.0000
  H   H105      1.0  0.48905  0.32766  0.03467  1.0000
  H   H106      1.0  0.12147  0.45376  0.23160  1.0000
  C   C72       1.0  0.38886  0.17817  0.16142  1.0000
  C   C73       1.0  0.43608  0.01487  0.19603  1.0000
  H   H107      1.0  0.42470  0.08884  0.13237  1.0000
  H   H108      1.0  0.38379  0.22572  0.13271  1.0000
  H   H109      1.0  0.47545  0.45211  0.12824  1.0000
  H   H110      1.0  0.42378  0.01296  0.24857  1.0000
  H   H111      1.0  0.45106  0.02466  0.20857  1.0000
  H   H112      1.0  0.41747  0.22160  0.14407  1.0000
  H   H113      1.0  0.49383  0.23200  0.24335  1.0000
  H   H114      1.0  0.35190  0.39988  0.04224  1.0000
  H   H115      1.0  0.08679  0.09063  0.02656  1.0000
  H   H116      1.0  0.42642  0.38828  0.18597  1.0000
  H   H117      1.0  0.32044  0.11057  0.12358  1.0000
  C   C74       1.0  0.39798  0.18485  0.13307  1.0000
  H   H118      1.0  0.39245  0.09780  0.18282  1.0000
  H   H119      1.0  0.12514  0.16881  0.05507  1.0000
  H   H120      1.0  0.12446  0.13401  0.06342  1.0000
  H   H121      1.0  0.30408  0.02646  0.06135  1.0000
  S   S26       1.0  0.10554  0.21650  0.02055  1.0000
  C   C75       1.0  0.42228  0.42527  0.20814  1.0000
  C   C76       1.0  0.42621  0.47234  0.19886  1.0000
  H   H122      1.0  0.35874  0.14028  0.12970  1.0000
  H   H123      1.0  0.46999  0.24103  0.16300  1.0000
  H   H124      1.0  0.46828  0.47302  0.18834  1.0000
  H   H125      1.0  0.07799  0.16740  0.04286  1.0000
  H   H126      1.0  0.41941  0.13703  0.16615  1.0000
  H   H127      1.0  0.40591  0.18224  0.17473  1.0000
  H   H128      1.0  0.18504  0.06387  0.20194  1.0000
  H   H129      1.0  0.19898  0.46328  0.18949  1.0000
  H   H130      1.0  0.45191  0.43030  0.11286  1.0000
  C   C77       1.0  0.14753  0.01227  0.05676  1.0000
  H   H131      1.0  0.33385  0.17565  0.24341  1.0000
  C   C78       1.0  0.35378  0.14646  0.15012  1.0000
  H   H132      1.0  0.34282  0.16549  0.14779  1.0000
  H   H133      1.0  0.13794  0.01430  0.09770  1.0000
  H   H134      1.0  0.20077  0.47839  0.23601  1.0000
  C   C79       1.0  0.34505  0.15925  0.23402  1.0000
  C   C80       1.0  0.33267  0.30006  0.12244  1.0000
  H   H135      1.0  0.33101  0.31323  0.13979  1.0000
  C   C81       1.0  0.35682  0.16860  0.20802  1.0000
  C   C82       1.0  0.34781  0.46982  0.16273  1.0000
  H   H136      1.0  0.35334  0.36649  0.02996  1.0000
  C   C83       1.0  0.28576  0.31326  0.08481  1.0000
  C   C84       1.0  0.28909  0.29360  0.06168  1.0000
  H   H137      1.0  0.25357  0.05183  0.03888  1.0000
  H   H138      1.0  0.36094  0.27005  0.10927  1.0000
  H   H139      1.0  0.04960  0.17599  0.08852  1.0000
  C   C85       1.0  0.45523  0.45076  0.11995  1.0000
  S   S27       1.0  0.35688  0.09155  0.24539  1.0000
  C   C86       1.0  0.41307  0.39693  0.20100  1.0000
  H   H140      1.0  0.38309  0.17861  0.11840  1.0000
  S   S28       1.0  0.11411  0.28053  0.01455  1.0000
  C   C87       1.0  0.21531  0.48520  0.22205  1.0000
  S   S29       1.0  0.47976  0.37749  0.14027  1.0000
  H   H141      1.0  0.41650  0.06445  0.15680  1.0000
  C   C88       1.0  0.28054  0.36209  0.15554  1.0000
  H   H142      1.0  0.04691  0.12329  0.02147  1.0000
  H   H143      1.0  0.26758  0.32505  0.08077  1.0000
  C   C89       1.0  0.28230  0.34183  0.13335  1.0000
  Fe  Fe16      1.0  0.49641  0.37231  0.18070  1.0000
  S   S30       1.0  0.03532  0.16663  0.14186  1.0000
  C   C90       1.0  0.42027  0.08578  0.15354  1.0000
  H   H144      1.0  0.15785  0.23693  0.09685  1.0000
  C   C91       1.0  0.40252  0.21454  0.12977  1.0000
  H   H145      1.0  0.03173  0.06853  0.01393  1.0000
  H   H146      1.0  0.10693  0.30924  0.24807  1.0000
  C   C92       1.0  0.23319  0.48515  0.17698  1.0000
  C   C93       1.0  0.38896  0.44646  0.18013  1.0000
  H   H147      1.0  0.31607  0.28591  0.12232  1.0000
  N   N4        1.0  0.37883  0.15039  0.16585  1.0000
  H   H148      1.0  0.45375  0.46442  0.10290  1.0000
  Fe  Fe17      1.0  0.15655  0.27130  0.00490  1.0000
  H   H149      1.0  0.18627  0.21576  0.09992  1.0000
  H   H150      1.0  0.42816  0.41956  0.15550  1.0000
  H   H151      1.0  0.30126  0.13872  0.13501  1.0000
  C   C94       1.0  0.26448  0.27648  0.05868  1.0000
  H   H152      1.0  0.28097  0.30130  0.10242  1.0000
  C   C95       1.0  0.47786  0.19691  0.22525  1.0000
  H   H153      1.0  0.26201  0.33927  0.12542  1.0000
  H   H154      1.0  0.28858  0.32275  0.14197  1.0000
  H   H155      1.0  0.46806  0.29871  0.03354  1.0000
  H   H156      1.0  0.14985  0.19437  0.25066  1.0000
  H   H157      1.0  0.29172  0.30418  0.04277  1.0000
  H   H158      1.0  0.21250  0.41244  0.03405  1.0000
  H   H159      1.0  0.41705  0.17478  0.12867  1.0000
  H   H160      1.0  0.19127  0.19669  0.05122  1.0000
  H   H161      1.0  0.40992  0.21866  0.10963  1.0000
  H   H162      1.0  0.37919  0.09463  0.14985  1.0000
  H   H163      1.0  0.40354  0.13350  0.13526  1.0000
  H   H164      1.0  0.37672  0.44008  0.19722  1.0000
  H   H165      1.0  0.32335  0.13485  0.17888  1.0000
  C   C96       1.0  0.39596  0.10187  0.16176  1.0000
  H   H166      1.0  0.45565  0.43490  0.16989  1.0000
  C   C97       1.0  0.15139  0.08570  0.21673  1.0000
  C   C98       1.0  0.19424  0.40751  0.02313  1.0000
  Fe  Fe18      1.0  0.45093  0.12210  0.23384  1.0000
  H   H167      1.0  0.12656  0.01333  0.05045  1.0000
  C   C99       1.0  0.15327  0.17268  0.24983  1.0000
  C   C100      1.0  0.41381  0.37879  0.22503  1.0000
  C   C101      1.0  0.29133  0.01207  0.05076  1.0000
  C   C102      1.0  0.40033  0.13165  0.15679  1.0000
  H   H168      1.0  0.42184  0.48893  0.18525  1.0000
  H   H169      1.0  0.43775  0.09158  0.16535  1.0000
  C   C103      1.0  0.43482  0.43869  0.16381  1.0000
  H   H170      1.0  0.36630  0.12746  0.19979  1.0000
  H   H171      1.0  0.43906  0.47883  0.14701  1.0000
  C   C104      1.0  0.13240  0.47098  0.23944  1.0000
  H   H172      1.0  0.41501  0.45820  0.13085  1.0000
  S   S31       1.0  0.25650  0.49012  0.00888  1.0000
  H   H173      1.0  0.37623  0.48730  0.18820  1.0000
  H   H174      1.0  0.32295  0.38540  0.02765  1.0000
  H   H175      1.0  0.15918  0.45938  0.01015  1.0000
  C   C105      1.0  0.48539  0.22380  0.22566  1.0000
  H   H176      1.0  0.15377  0.46591  0.23976  1.0000
  Fe  Fe19      1.0  0.14854  0.21199  0.01077  1.0000
  H   H177      1.0  0.39958  0.38577  0.24018  1.0000
  H   H178      1.0  0.04080  0.16810  0.02289  1.0000
  H   H179      1.0  0.18964  0.49668  0.01992  1.0000
  H   H180      1.0  0.21145  0.45377  0.01240  1.0000
  H   H181      1.0  0.17276  0.16893  0.24049  1.0000
  H   H182      1.0  0.15183  0.41513  0.03066  1.0000
  H   H183      1.0  0.43400  0.37813  0.23359  1.0000
  H   H184      1.0  0.33566  0.46142  0.17888  1.0000
  H   H185      1.0  0.04242  0.08152  0.04532  1.0000
  H   H186      1.0  0.11103  0.15858  0.00865  1.0000
  S   S32       1.0  0.10906  0.11282  0.23636  1.0000
  H   H187      1.0  0.44973  0.50582  0.23573  1.0000
  H   H188      1.0  0.30073  0.02608  0.01047  1.0000
  H   H189      1.0  0.27278  0.01095  0.06233  1.0000
  H   H190      1.0  0.40050  0.26542  0.23696  1.0000
  H   H191      1.0  0.43214  0.24900  0.23281  1.0000
  C   C106      1.0  0.42113  0.26417  0.24427  1.0000
  C   C107      1.0  0.04905  0.07169  0.02692  1.0000
  C   C108      1.0  0.46142  0.50253  0.21753  1.0000
  C   C109      1.0  0.22447  0.33648  0.01119  1.0000
  H   H192      1.0  0.05762  0.05210  0.03212  1.0000
  H   H193      1.0  0.01062  0.20161  0.00473  1.0000
  C   C110      1.0  0.25289  0.50254  0.18530  1.0000
  H   H194      1.0  0.24931  0.40993  0.01287  1.0000
  C   C111      1.0  0.27223  0.05245  0.02740  1.0000
  C   C112      1.0  0.28353  0.02457  0.02388  1.0000
  C   C113      1.0  0.06988  0.08837  0.01295  1.0000
  H   H195      1.0  0.43081  0.28355  0.24090  1.0000
  H   H196      1.0  0.26768  0.06119  0.00788  1.0000
  C   C114      1.0  0.23439  0.50340  0.23009  1.0000
  H   H197      1.0  0.48272  0.50401  0.22252  1.0000
  H   H198      1.0  0.35675  0.02715  0.25408  1.0000
  S   S33       1.0  0.50713  0.40703  0.20802  1.0000
  Fe  Fe20      1.0  0.00785  0.12131  0.22170  1.0000
  Fe  Fe21      1.0  0.50574  0.34266  0.12920  1.0000
  H   H199      1.0  0.12463  0.34531  0.27839  1.0000
  C   C115      1.0  0.09090  0.30559  0.26254  1.0000
  Fe  Fe22      1.0  0.39174  0.19703  0.49253  1.0000
  Fe  Fe23      1.0  0.43915  0.11884  0.29254  1.0000
  H   H200      1.0  0.48630  0.18821  0.32343  1.0000
  S   S34       1.0  0.44405  0.14375  0.32912  1.0000
  C   C116      1.0  0.35406  0.03473  0.29544  1.0000
  S   S35       1.0  0.02577  0.20047  0.27804  1.0000
  H   H201      1.0  0.40835  0.25754  0.32609  1.0000
  S   S36       1.0  0.41994  0.07936  0.28948  1.0000
  Fe  Fe24      1.0  0.33486  0.21203  0.47304  1.0000
  S   S37       1.0  0.32177  0.16994  0.47288  1.0000
  S   S38       1.0  0.30526  0.24356  0.45842  1.0000
  H   H202      1.0  0.40043  0.09649  0.46444  1.0000
  Fe  Fe25      1.0  0.36121  0.16137  0.45459  1.0000
  S   S39       1.0  0.36178  0.13121  0.42198  1.0000
  S   S40       1.0  0.37384  0.20376  0.45219  1.0000
  Fe  Fe26      1.0  0.11707  0.26772  0.38061  1.0000
  S   S41       1.0  0.11103  0.23764  0.41247  1.0000
  S   S42       1.0  0.11960  0.25761  0.33731  1.0000
  Fe  Fe27      1.0  0.12626  0.31194  0.41963  1.0000
  S   S43       1.0  0.12119  0.28479  0.45418  1.0000
  S   S44       1.0  0.13255  0.35539  0.42796  1.0000
  Fe  Fe28      1.0  0.14683  0.25615  0.43144  1.0000
  S   S45       1.0  0.17945  0.23019  0.44997  1.0000
  Fe  Fe29      1.0  0.08597  0.26928  0.43210  1.0000
  S   S46       1.0  0.04760  0.26044  0.45465  1.0000
  S   S47       1.0  0.15408  0.28458  0.39842  1.0000
  S   S48       1.0  0.08979  0.29802  0.39861  1.0000
  S   S49       1.0  0.47474  0.10736  0.26862  1.0000
  S   S50       1.0  0.17595  0.47916  0.29654  1.0000
  H   H203      1.0  0.03181  0.21746  0.33135  1.0000
  Fe  Fe30      1.0  0.18988  0.46558  0.33619  1.0000
  S   S51       1.0  0.19541  0.42163  0.34307  1.0000
  S   S52       1.0  0.22478  0.49304  0.33728  1.0000
  H   H204      1.0  0.17470  0.13317  0.31616  1.0000
  C   C117      1.0  0.14961  0.37375  0.40409  1.0000
  C   C118      1.0  0.14295  0.40036  0.39977  1.0000
  C   C119      1.0  0.15665  0.41536  0.38092  1.0000
  C   C120      1.0  0.17746  0.40386  0.36677  1.0000
  C   C121      1.0  0.18396  0.37721  0.37107  1.0000
  C   C122      1.0  0.17000  0.36219  0.38959  1.0000
  H   H205      1.0  0.12680  0.40921  0.41065  1.0000
  H   H206      1.0  0.15118  0.43575  0.37738  1.0000
  H   H207      1.0  0.19988  0.36816  0.35999  1.0000
  H   H208      1.0  0.17504  0.34164  0.39273  1.0000
  C   C123      1.0  0.27059  0.23838  0.45434  1.0000
  C   C124      1.0  0.25750  0.21766  0.46696  1.0000
  C   C125      1.0  0.22980  0.21519  0.46485  1.0000
  C   C126      1.0  0.21470  0.23307  0.44978  1.0000
  C   C127      1.0  0.22787  0.25335  0.43644  1.0000
  C   C128      1.0  0.25556  0.25618  0.43901  1.0000
  C   C129      1.0  0.44001  0.21747  0.31457  1.0000
  H   H209      1.0  0.21670  0.26704  0.42441  1.0000
  H   H210      1.0  0.26544  0.27220  0.42900  1.0000
  H   H211      1.0  0.14406  0.37822  0.30308  1.0000
  H   H212      1.0  0.05733  0.34669  0.37971  1.0000
  C   C130      1.0  0.42059  0.14027  0.35441  1.0000
  C   C131      1.0  0.41913  0.15956  0.37413  1.0000
  C   C132      1.0  0.40081  0.15724  0.39472  1.0000
  C   C133      1.0  0.38401  0.13546  0.39578  1.0000
  C   C134      1.0  0.38520  0.11638  0.37586  1.0000
  C   C135      1.0  0.40336  0.11884  0.35513  1.0000
  H   H213      1.0  0.43209  0.17642  0.37338  1.0000
  H   H214      1.0  0.39978  0.17213  0.40987  1.0000
  H   H215      1.0  0.37215  0.09954  0.37658  1.0000
  H   H216      1.0  0.40423  0.10394  0.33997  1.0000
  H   H217      1.0  0.29679  0.08302  0.44289  1.0000
  H   H218      1.0  0.14006  0.42644  0.29285  1.0000
  C   C136      1.0  0.05235  0.21574  0.29434  1.0000
  C   C137      1.0  0.07584  0.22177  0.28122  1.0000
  C   C138      1.0  0.09620  0.23495  0.29456  1.0000
  C   C139      1.0  0.09338  0.24176  0.32115  1.0000
  C   C140      1.0  0.07007  0.23547  0.33437  1.0000
  C   C141      1.0  0.04959  0.22264  0.32093  1.0000
  H   H219      1.0  0.06895  0.37502  0.39746  1.0000
  H   H220      1.0  0.11424  0.23978  0.28425  1.0000
  H   H221      1.0  0.06793  0.24030  0.35496  1.0000
  H   H222      1.0  0.44533  0.17401  0.45492  1.0000
  H   H223      1.0  0.44234  0.22340  0.44972  1.0000
  H   H224      1.0  0.15786  0.32175  0.29727  1.0000
  H   H225      1.0  0.40939  0.17914  0.29363  1.0000
  S   S53       1.0  0.16309  0.49291  0.35851  1.0000
  H   H226      1.0  0.04091  0.16680  0.33105  1.0000
  C   C142      1.0  0.10805  0.34193  0.29237  1.0000
  H   H227      1.0  0.31354  0.09497  0.47162  1.0000
  H   H228      1.0  0.15797  0.13965  0.27573  1.0000
  H   H229      1.0  0.47386  0.13306  0.38400  1.0000
  H   H230      1.0  0.47444  0.15287  0.48237  1.0000
  H   H231      1.0  0.41401  0.22351  0.36249  1.0000
  H   H232      1.0  0.17867  0.18453  0.37428  1.0000
  H   H233      1.0  0.34724  0.05540  0.29222  1.0000
  H   H234      1.0  0.19755  0.30614  0.32053  1.0000
  Fe  Fe31      1.0  0.45428  0.06781  0.26354  1.0000
  H   H235      1.0  0.15575  0.19424  0.39962  1.0000
  H   H236      1.0  0.37955  0.24175  0.39161  1.0000
  H   H237      1.0  0.15941  0.21469  0.37086  1.0000
  H   H238      1.0  0.16893  0.17108  0.28859  1.0000
  H   H239      1.0  0.45418  0.25346  0.48984  1.0000
  H   H240      1.0  0.08554  0.28434  0.26163  1.0000
  H   H241      1.0  0.10957  0.44350  0.30029  1.0000
  H   H242      1.0  0.09129  0.35379  0.28437  1.0000
  C   C143      1.0  0.29680  0.09880  0.45802  1.0000
  H   H243      1.0  0.29993  0.11805  0.44798  1.0000
  C   C144      1.0  0.35921  0.16297  0.30797  1.0000
  H   H244      1.0  0.20888  0.49448  0.46437  1.0000
  H   H245      1.0  0.38638  0.03905  0.26874  1.0000
  H   H246      1.0  0.21914  0.33422  0.40767  1.0000
  H   H247      1.0  0.18632  0.50109  0.42418  1.0000
  H   H248      1.0  0.05026  0.13564  0.34613  1.0000
  H   H249      1.0  0.12577  0.31367  0.33663  1.0000
  C   C145      1.0  0.16120  0.32893  0.31754  1.0000
  H   H250      1.0  0.16879  0.28914  0.33251  1.0000
  S   S54       1.0  0.46974  0.02723  0.27817  1.0000
  N   N5        1.0  0.18403  0.46478  0.44668  1.0000
  C   C146      1.0  0.16269  0.44578  0.45495  1.0000
  H   H251      1.0  0.21993  0.19962  0.47541  1.0000
  C   C147      1.0  0.20208  0.45036  0.42770  1.0000
  C   C148      1.0  0.42161  0.25744  0.27356  1.0000
  C   C149      1.0  0.40867  0.23019  0.27886  1.0000
  C   C150      1.0  0.17243  0.41858  0.46533  1.0000
  C   C151      1.0  0.22455  0.46679  0.41515  1.0000
  H   H252      1.0  0.41661  0.21554  0.26448  1.0000
  C   C152      1.0  0.22391  0.13434  0.49188  1.0000
  H   H253      1.0  0.44249  0.25796  0.28003  1.0000
  C   C153      1.0  0.24356  0.44922  0.39954  1.0000
  H   H254      1.0  0.14936  0.44165  0.43806  1.0000
  H   H255      1.0  0.14951  0.45457  0.47001  1.0000
  C   C154      1.0  0.17694  0.32160  0.48844  1.0000
  H   H256      1.0  0.50364  0.15021  0.35080  1.0000
  H   H257      1.0  0.19045  0.44176  0.41133  1.0000
  H   H258      1.0  0.21208  0.43347  0.43765  1.0000
  C   C155      1.0  0.27054  0.09881  0.47292  1.0000
  H   H259      1.0  0.15738  0.38389  0.48502  1.0000
  H   H260      1.0  0.04908  0.28912  0.34858  1.0000
  H   H261      1.0  0.33801  0.16159  0.30260  1.0000
  H   H262      1.0  0.17872  0.40593  0.44857  1.0000
  H   H263      1.0  0.17215  0.13541  0.47163  1.0000
  H   H264      1.0  0.23620  0.47683  0.43054  1.0000
  H   H265      1.0  0.21652  0.48169  0.40121  1.0000
  H   H266      1.0  0.27503  0.13927  0.48473  1.0000
  C   C156      1.0  0.38163  0.24955  0.37128  1.0000
  H   H267      1.0  0.43089  0.07969  0.45625  1.0000
  H   H268      1.0  0.17250  0.34764  0.31650  1.0000
  H   H269      1.0  0.02617  0.31478  0.35883  1.0000
  H   H270      1.0  0.35770  0.20484  0.31381  1.0000
  H   H271      1.0  0.10098  0.39705  0.28788  1.0000
  C   C157      1.0  0.39751  0.23848  0.32511  1.0000
  H   H272      1.0  0.23285  0.43857  0.38380  1.0000
  H   H273      1.0  0.25895  0.46166  0.39017  1.0000
  H   H274      1.0  0.25346  0.43463  0.41261  1.0000
  N   N6        1.0  0.11510  0.35152  0.31952  1.0000
  H   H275      1.0  0.13675  0.15817  0.37278  1.0000
  H   H276      1.0  0.21849  0.11942  0.47682  1.0000
  C   C158      1.0  0.17123  0.48735  0.43187  1.0000
  H   H277      1.0  0.08082  0.12631  0.30881  1.0000
  H   H278      1.0  0.14469  0.41464  0.49793  1.0000
  H   H279      1.0  0.44820  0.17391  0.42043  1.0000
  H   H280      1.0  0.21770  0.46182  0.47308  1.0000
  H   H281      1.0  0.22876  0.36808  0.41284  1.0000
  C   C159      1.0  0.36966  0.02527  0.27146  1.0000
  H   H282      1.0  0.19722  0.35678  0.44686  1.0000
  H   H283      1.0  0.22947  0.36023  0.46105  1.0000
  H   H284      1.0  0.02181  0.30074  0.42119  1.0000
  H   H285      1.0  0.41837  0.13905  0.45117  1.0000
  H   H286      1.0  0.18509  0.16863  0.47242  1.0000
  C   C160      1.0  0.27020  0.12031  0.49463  1.0000
  H   H287      1.0  0.07096  0.15689  0.29332  1.0000
  H   H288      1.0  0.13644  0.49346  0.45770  1.0000
  H   H289      1.0  0.43936  0.12385  0.47546  1.0000
  C   C161      1.0  0.20027  0.47490  0.46946  1.0000
  N   N7        1.0  0.41136  0.21976  0.30650  1.0000
  H   H290      1.0  0.23500  0.30926  0.45614  1.0000
  C   C162      1.0  0.39939  0.19258  0.30771  1.0000
  H   H291      1.0  0.39396  0.26762  0.37197  1.0000
  H   H292      1.0  0.17101  0.33629  0.47331  1.0000
  H   H293      1.0  0.36669  0.03433  0.31327  1.0000
  C   C163      1.0  0.45599  0.12496  0.43498  1.0000
  C   C164      1.0  0.39450  0.22852  0.35386  1.0000
  H   H294      1.0  0.45138  0.22256  0.41530  1.0000
  C   C165      1.0  0.22966  0.34777  0.42117  1.0000
  H   H295      1.0  0.47720  0.16842  0.38746  1.0000
  C   C166      1.0  0.45887  0.20417  0.29438  1.0000
  H   H296      1.0  0.44180  0.20584  0.33309  1.0000
  H   H297      1.0  0.16066  0.47958  0.41435  1.0000
  H   H298      1.0  0.49514  0.22045  0.31064  1.0000
  H   H299      1.0  0.49966  0.19128  0.29079  1.0000
  H   H300      1.0  0.40299  0.18350  0.32720  1.0000
  H   H301      1.0  0.37754  0.24390  0.31762  1.0000
  H   H302      1.0  0.47105  0.24097  0.43838  1.0000
  H   H303      1.0  0.38747  0.23261  0.27362  1.0000
  C   C167      1.0  0.47652  0.19844  0.44077  1.0000
  H   H304      1.0  0.26031  0.33177  0.48455  1.0000
  H   H305      1.0  0.36162  0.25476  0.36387  1.0000
  S   S55       1.0  0.03538  0.12905  0.25554  1.0000
  C   C168      1.0  0.15040  0.40398  0.47970  1.0000
  C   C169      1.0  0.45918  0.22278  0.43569  1.0000
  H   H306      1.0  0.38182  0.21072  0.35486  1.0000
  C   C170      1.0  0.48668  0.20091  0.30562  1.0000
  H   H307      1.0  0.37038  0.14778  0.29670  1.0000
  H   H308      1.0  0.13087  0.43282  0.32660  1.0000
  H   H309      1.0  0.20176  0.30776  0.44588  1.0000
  N   N8        1.0  0.47521  0.14714  0.43997  1.0000
  C   C171      1.0  0.01580  0.27618  0.45515  1.0000
  H   H310      1.0  0.11811  0.18841  0.36974  1.0000
  C   C172      1.0  0.15179  0.50512  0.44750  1.0000
  H   H311      1.0  0.03318  0.13613  0.31513  1.0000
  H   H312      1.0  0.16694  0.13210  0.35038  1.0000
  H   H313      1.0  0.15914  0.15922  0.49463  1.0000
  H   H314      1.0  0.46672  0.10563  0.43449  1.0000
  C   C173      1.0  0.36942  0.19072  0.30185  1.0000
  H   H315      1.0  0.11711  0.29923  0.29485  1.0000
  C   C174      1.0  0.09027  0.35221  0.33598  1.0000
  C   C175      1.0  0.13479  0.33322  0.33251  1.0000
  C   C176      1.0  0.12727  0.37859  0.31721  1.0000
  C   C177      1.0  0.10860  0.40116  0.30787  1.0000
  C   C178      1.0  0.09293  0.36475  0.36365  1.0000
  C   C179      1.0  0.12322  0.42752  0.30685  1.0000
  C   C180      1.0  0.06620  0.36658  0.37751  1.0000
  H   H316      1.0  0.48468  0.20032  0.46087  1.0000
  H   H317      1.0  0.08292  0.33182  0.33938  1.0000
  H   H318      1.0  0.07402  0.36261  0.32536  1.0000
  H   H319      1.0  0.23173  0.15137  0.48041  1.0000
  H   H320      1.0  0.14023  0.34087  0.35212  1.0000
  H   H321      1.0  0.13624  0.38458  0.33618  1.0000
  H   H322      1.0  0.15466  0.08447  0.34625  1.0000
  H   H323      1.0  0.09155  0.40376  0.32134  1.0000
  H   H324      1.0  0.05245  0.37962  0.36639  1.0000
  H   H325      1.0  0.10602  0.35243  0.37613  1.0000
  H   H326      1.0  0.10106  0.38500  0.36277  1.0000
  H   H327      1.0  0.25071  0.34150  0.42231  1.0000
  N   N9        1.0  0.20628  0.31543  0.48740  1.0000
  H   H328      1.0  0.23161  0.28059  0.49016  1.0000
  C   C181      1.0  0.17873  0.30862  0.33151  1.0000
  C   C182      1.0  0.21706  0.34751  0.44849  1.0000
  C   C183      1.0  0.18614  0.47761  0.49646  1.0000
  H   H329      1.0  0.25459  0.10233  0.45841  1.0000
  H   H330      1.0  0.18345  0.31530  0.35172  1.0000
  H   H331      1.0  0.36122  0.15857  0.32929  1.0000
  H   H332      1.0  0.41088  0.09470  0.43069  1.0000
  H   H333      1.0  0.18813  0.09080  0.33595  1.0000
  H   H334      1.0  0.44831  0.23721  0.31933  1.0000
  C   C184      1.0  0.10009  0.31238  0.29029  1.0000
  H   H335      1.0  0.16288  0.08568  0.31161  1.0000
  H   H336      1.0  0.18946  0.42075  0.47883  1.0000
  N   N10       1.0  0.12407  0.15839  0.31962  1.0000
  C   C185      1.0  0.14069  0.17819  0.33430  1.0000
  C   C186      1.0  0.12569  0.16443  0.29060  1.0000
  C   C187      1.0  0.09570  0.16251  0.32811  1.0000
  C   C188      1.0  0.13180  0.12996  0.32506  1.0000
  C   C189      1.0  0.16140  0.12417  0.33085  1.0000
  C   C190      1.0  0.13709  0.17850  0.36459  1.0000
  C   C191      1.0  0.07453  0.14702  0.31252  1.0000
  C   C192      1.0  0.15312  0.16103  0.27751  1.0000
  S   S56       1.0  0.38115  0.15374  0.49316  1.0000
  C   C193      1.0  0.16701  0.09444  0.33118  1.0000
  C   C194      1.0  0.15913  0.19392  0.37805  1.0000
  C   C195      1.0  0.04817  0.14642  0.32721  1.0000
  H   H337      1.0  0.13613  0.19865  0.32730  1.0000
  H   H338      1.0  0.16200  0.17543  0.33010  1.0000
  H   H339      1.0  0.11241  0.15135  0.27919  1.0000
  H   H340      1.0  0.11851  0.18492  0.28681  1.0000
  H   H341      1.0  0.09027  0.18380  0.32686  1.0000
  H   H342      1.0  0.09323  0.15698  0.34914  1.0000
  H   H343      1.0  0.12076  0.12207  0.34231  1.0000
  H   H344      1.0  0.12571  0.11719  0.30829  1.0000
  H   H345      1.0  0.46055  0.21637  0.27641  1.0000
  S   S57       1.0  0.41680  0.13548  0.25834  1.0000
  C   C196      1.0  0.46009  0.17289  0.43870  1.0000
  C   C197      1.0  0.21530  0.31875  0.45923  1.0000
  H   H346      1.0  0.36558  0.19480  0.28076  1.0000
  C   C198      1.0  0.43272  0.12275  0.45474  1.0000
  H   H347      1.0  0.08378  0.30748  0.30396  1.0000
  H   H348      1.0  0.44640  0.12709  0.41547  1.0000
  H   H349      1.0  0.01980  0.25226  0.36630  1.0000
  H   H350      1.0  0.26804  0.07878  0.48143  1.0000
  H   H351      1.0  0.07810  0.21667  0.26070  1.0000
  C   C199      1.0  0.17739  0.15218  0.48464  1.0000
  C   C200      1.0  0.41793  0.09676  0.45124  1.0000
  H   H352      1.0  0.45184  0.18436  0.28851  1.0000
  H   H353      1.0  0.26873  0.20390  0.47883  1.0000
  H   H354      1.0  0.01325  0.26817  0.32235  1.0000
  C   C201      1.0  0.48696  0.14302  0.46714  1.0000
  H   H355      1.0  0.01123  0.24198  0.40927  1.0000
  H   H356      1.0  0.16684  0.48785  0.49494  1.0000
  H   H357      1.0  0.01354  0.19324  0.41466  1.0000
  H   H358      1.0  0.13280  0.40196  0.46684  1.0000
  H   H359      1.0  0.19915  0.27433  0.47960  1.0000
  H   H360      1.0  0.41068  0.27329  0.28413  1.0000
  H   H361      1.0  0.16536  0.30381  0.48302  1.0000
  H   H362      1.0  0.07322  0.31752  0.25714  1.0000
  H   H363      1.0  0.49767  0.27537  0.49541  1.0000
  H   H364      1.0  0.49287  0.19889  0.42631  1.0000
  H   H365      1.0  0.33644  0.02216  0.29864  1.0000
  H   H366      1.0  0.22908  0.08390  0.50384  1.0000
  H   H367      1.0  0.03501  0.31140  0.32465  1.0000
  C   C202      1.0  0.03097  0.30035  0.34307  1.0000
  C   C203      1.0  0.48730  0.14910  0.39019  1.0000
  H   H368      1.0  0.50665  0.12585  0.42040  1.0000
  C   C204      1.0  0.49642  0.14541  0.41908  1.0000
  H   H369      1.0  0.48699  0.12163  0.47250  1.0000
  C   C205      1.0  0.46974  0.24365  0.50074  1.0000
  H   H370      1.0  0.12547  0.47479  0.25983  1.0000
  H   H371      1.0  0.12830  0.34536  0.49729  1.0000
  C   C206      1.0  0.49450  0.25604  0.50393  1.0000
  C   C207      1.0  0.21065  0.28651  0.49362  1.0000
  C   C208      1.0  0.00782  0.28160  0.33880  1.0000
  C   C209      1.0  0.00787  0.29455  0.43604  1.0000
  H   H372      1.0  0.21726  0.35398  0.50178  1.0000
  H   H373      1.0  0.25941  0.04346  0.55742  1.0000
  H   H374      1.0  0.12742  0.31318  0.51275  1.0000
  H   H375      1.0  0.25969  0.34577  0.54335  1.0000
  H   H376      1.0  0.43865  0.50556  0.72897  1.0000
  H   H377      1.0  0.12203  0.03035  0.71259  1.0000
  C   C210      1.0  0.39557  0.49918  0.73345  1.0000
  S   S58       1.0  0.32427  0.14620  0.54664  1.0000
  H   H378      1.0  0.21766  0.09950  0.53278  1.0000
  H   H379      1.0  0.36619  0.44108  0.71546  1.0000
  H   H380      1.0  0.48950  0.30631  0.62667  1.0000
  C   C211      1.0  0.01432  0.23441  0.68681  1.0000
  H   H381      1.0  0.27677  0.17040  0.51576  1.0000
  H   H382      1.0  0.27530  0.17846  0.56402  1.0000
  C   C212      1.0  0.47346  0.29886  0.61381  1.0000
  H   H383      1.0  0.14260  0.05880  0.74319  1.0000
  H   H384      1.0  0.23148  0.24446  0.52227  1.0000
  C   C213      1.0  0.25743  0.17004  0.52602  1.0000
  H   H385      1.0  0.24087  0.18821  0.56129  1.0000
  H   H386      1.0  0.33761  0.05553  0.51397  1.0000
  C   C214      1.0  0.25237  0.32883  0.50465  1.0000
  C   C215      1.0  0.32067  0.05574  0.55285  1.0000
  C   C216      1.0  0.33131  0.06771  0.53029  1.0000
  C   C217      1.0  0.33356  0.09540  0.52860  1.0000
  C   C218      1.0  0.32468  0.11134  0.54926  1.0000
  C   C219      1.0  0.31442  0.09938  0.57196  1.0000
  C   C220      1.0  0.31259  0.07168  0.57385  1.0000
  C   C221      1.0  0.26004  0.18694  0.55071  1.0000
  H   H387      1.0  0.49119  0.30913  0.56643  1.0000
  H   H388      1.0  0.30757  0.11157  0.58805  1.0000
  H   H389      1.0  0.30433  0.06272  0.59128  1.0000
  H   H390      1.0  0.25785  0.30862  0.51130  1.0000
  H   H391      1.0  0.12802  0.34261  0.53264  1.0000
  C   C222      1.0  0.46521  0.21865  0.51163  1.0000
  H   H392      1.0  0.34265  0.49093  0.65014  1.0000
  H   H393      1.0  0.22301  0.48421  0.51783  1.0000
  H   H394      1.0  0.34551  0.48825  0.74810  1.0000
  H   H395      1.0  0.35680  0.46632  0.62876  1.0000
  C   C223      1.0  0.20269  0.27689  0.52135  1.0000
  H   H396      1.0  0.07451  0.47773  0.70583  1.0000
  H   H397      1.0  0.20452  0.24126  0.54523  1.0000
  H   H398      1.0  0.19896  0.23530  0.51081  1.0000
  C   C224      1.0  0.20294  0.49306  0.51599  1.0000
  C   C225      1.0  0.50177  0.29199  0.57537  1.0000
  H   H399      1.0  0.42835  0.46202  0.73106  1.0000
  H   H400      1.0  0.02377  0.27962  0.73441  1.0000
  H   H401      1.0  0.40857  0.42023  0.72411  1.0000
  C   C226      1.0  0.24494  0.05389  0.54459  1.0000
  H   H402      1.0  0.36502  0.50089  0.69219  1.0000
  C   C227      1.0  0.44342  0.28311  0.56457  1.0000
  C   C228      1.0  0.20992  0.24770  0.52507  1.0000
  H   H403      1.0  0.26622  0.20722  0.54512  1.0000
  N   N11       1.0  0.24482  0.12318  0.50998  1.0000
  H   H404      1.0  0.43608  0.32954  0.64050  1.0000
  Fe  Fe32      1.0  0.34289  0.16614  0.51135  1.0000
  S   S59       1.0  0.31620  0.02108  0.55333  1.0000
  H   H405      1.0  0.17294  0.35297  0.51795  1.0000
  S   S60       1.0  0.35388  0.20918  0.51328  1.0000
  H   H406      1.0  0.03505  0.05208  0.72802  1.0000
  H   H407      1.0  0.33409  0.47982  0.71557  1.0000
  H   H408      1.0  0.18258  0.45778  0.50505  1.0000
  C   C229      1.0  0.41690  0.46108  0.71238  1.0000
  C   C230      1.0  0.01885  0.34339  0.64938  1.0000
  H   H409      1.0  0.46012  0.31731  0.66402  1.0000
  C   C231      1.0  0.42008  0.26766  0.55355  1.0000
  H   H410      1.0  0.44143  0.39818  0.69634  1.0000
  H   H411      1.0  0.48225  0.18752  0.53512  1.0000
  N   N12       1.0  0.39105  0.47608  0.71520  1.0000
  H   H412      1.0  0.40737  0.28097  0.54156  1.0000
  H   H413      1.0  0.13964  0.50474  0.62572  1.0000
  H   H414      1.0  0.44980  0.42890  0.68047  1.0000
  H   H415      1.0  0.21599  0.32979  0.52632  1.0000
  H   H416      1.0  0.11902  0.50451  0.67068  1.0000
  H   H417      1.0  0.22598  0.05564  0.55548  1.0000
  C   C232      1.0  0.13555  0.33348  0.51424  1.0000
  H   H418      1.0  0.43524  0.29928  0.57682  1.0000
  C   C233      1.0  0.41546  0.43104  0.70636  1.0000
  C   C234      1.0  0.46225  0.26472  0.58036  1.0000
  H   H419      1.0  0.40796  0.25929  0.56972  1.0000
  C   C235      1.0  0.26627  0.34843  0.52268  1.0000
  H   H420      1.0  0.39199  0.45659  0.66046  1.0000
  H   H421      1.0  0.18878  0.12727  0.51675  1.0000
  C   C236      1.0  0.23549  0.09684  0.52028  1.0000
  C   C237      1.0  0.04124  0.01631  0.75065  1.0000
  H   H422      1.0  0.47058  0.25068  0.56564  1.0000
  H   H423      1.0  0.21288  0.28817  0.53693  1.0000
  H   H424      1.0  0.02681  0.22007  0.67580  1.0000
  H   H425      1.0  0.42684  0.30492  0.66439  1.0000
  H   H426      1.0  0.42709  0.25127  0.54080  1.0000
  H   H427      1.0  0.02028  0.35290  0.66899  1.0000
  H   H428      1.0  0.17187  0.32046  0.53181  1.0000
  H   H429      1.0  0.43305  0.28427  0.62115  1.0000
  H   H430      1.0  0.35963  0.45244  0.67511  1.0000
  H   H431      1.0  0.19340  0.49296  0.53566  1.0000
  H   H432      1.0  0.26213  0.36908  0.51636  1.0000
  H   H433      1.0  0.45412  0.29201  0.54770  1.0000
  H   H434      1.0  0.24204  0.04177  0.52667  1.0000
  C   C238      1.0  0.32415  0.45225  0.74597  1.0000
  C   C239      1.0  0.44308  0.31181  0.65143  1.0000
  C   C240      1.0  0.06868  0.49427  0.71899  1.0000
  C   C241      1.0  0.37411  0.46703  0.66779  1.0000
  C   C242      1.0  0.03546  0.04359  0.74755  1.0000
  C   C243      1.0  0.11212  0.01890  0.72852  1.0000
  H   H435      1.0  0.02748  0.24704  0.69881  1.0000
  H   H436      1.0  0.28796  0.34500  0.52181  1.0000
  H   H437      1.0  0.02121  0.30359  0.66331  1.0000
  C   C244      1.0  0.45094  0.28974  0.63241  1.0000
  C   C245      1.0  0.25555  0.08118  0.53739  1.0000
  C   C246      1.0  0.22195  0.33281  0.50558  1.0000
  C   C247      1.0  0.24972  0.14124  0.53301  1.0000
  S   S61       1.0  0.28887  0.01798  0.62816  1.0000
  C   C248      1.0  0.38196  0.48716  0.68918  1.0000
  H   H438      1.0  0.20111  0.16044  0.51844  1.0000
  H   H439      1.0  0.24250  0.17964  0.51327  1.0000
  H   H440      1.0  0.49805  0.22309  0.58490  1.0000
  H   H441      1.0  0.42960  0.47063  0.69724  1.0000
  H   H442      1.0  0.32028  0.43567  0.73227  1.0000
  H   H443      1.0  0.27456  0.07817  0.52702  1.0000
  H   H444      1.0  0.23228  0.14172  0.54635  1.0000
  H   H445      1.0  0.26623  0.13341  0.54525  1.0000
  H   H446      1.0  0.48111  0.01869  0.57885  1.0000
  H   H447      1.0  0.07621  0.48993  0.73904  1.0000
  H   H448      1.0  0.25941  0.09176  0.55604  1.0000
  H   H449      1.0  0.09252  0.02841  0.73142  1.0000
  H   H450      1.0  0.50626  0.27877  0.55855  1.0000
  H   H451      1.0  0.37814  0.45040  0.74636  1.0000
  C   C249      1.0  0.44266  0.41991  0.69907  1.0000
  H   H452      1.0  0.18099  0.27857  0.52397  1.0000
  H   H453      1.0  0.45711  0.27250  0.64443  1.0000
  H   H454      1.0  0.40172  0.42653  0.69016  1.0000
  H   H455      1.0  0.45723  0.42390  0.71487  1.0000
  H   H456      1.0  0.50625  0.00989  0.55527  1.0000
  H   H457      1.0  0.46629  0.31667  0.60300  1.0000
  H   H458      1.0  0.45038  0.25222  0.59393  1.0000
  C   C250      1.0  0.48570  0.20654  0.52606  1.0000
  N   N13       1.0  0.48418  0.27831  0.59503  1.0000
  C   C251      1.0  0.37037  0.45866  0.72765  1.0000
  C   C252      1.0  0.34333  0.47196  0.73375  1.0000
  H   H459      1.0  0.04679  0.49541  0.71991  1.0000
  C   C253      1.0  0.36142  0.48101  0.64426  1.0000
  H   H460      1.0  0.03897  0.34212  0.64073  1.0000
  H   H461      1.0  0.09372  0.06665  0.74931  1.0000
  C   C254      1.0  0.49929  0.25791  0.61073  1.0000
  H   H462      1.0  0.16347  0.50417  0.65204  1.0000
  H   H463      1.0  0.34162  0.10442  0.51108  1.0000
  H   H464      1.0  0.39766  0.49952  0.68023  1.0000
  H   H465      1.0  0.49897  0.01144  0.68955  1.0000
  H   H466      1.0  0.37501  0.49596  0.63582  1.0000
  C   C255      1.0  0.16576  0.33254  0.51471  1.0000
  C   C256      1.0  0.00822  0.28428  0.74825  1.0000
  H   H467      1.0  0.48594  0.24769  0.62472  1.0000
  S   S62       1.0  0.43461  0.20155  0.50774  1.0000
  H   H468      1.0  0.28714  0.11650  0.50800  1.0000
  H   H469      1.0  0.01223  0.26194  0.65475  1.0000
  H   H470      1.0  0.49064  0.00969  0.62741  1.0000
  H   H471      1.0  0.30511  0.46240  0.75035  1.0000
  N   N14       1.0  0.12845  0.01991  0.75332  1.0000
  H   H472      1.0  0.15995  0.00794  0.72645  1.0000
  H   H473      1.0  0.39774  0.49203  0.75403  1.0000
  C   C257      1.0  0.19774  0.14345  0.50514  1.0000
  H   H474      1.0  0.07245  0.24572  0.88365  1.0000
  H   H475      1.0  0.05247  0.30789  0.85402  1.0000
  H   H476      1.0  0.05448  0.24992  0.79478  1.0000
  C   C258      1.0  0.11261  0.27260  0.90563  1.0000
  S   S63       1.0  0.06867  0.24881  0.96079  1.0000
  S   S64       1.0  0.14640  0.23923  0.97585  1.0000
  C   C259      1.0  0.48688  0.31608  0.90555  1.0000
  S   S65       1.0  0.03871  0.16514  0.79733  1.0000
  S   S66       1.0  0.05148  0.16373  0.87080  1.0000
  C   C260      1.0  0.09165  0.12421  0.97105  1.0000
  C   C261      1.0  0.04278  0.33007  0.80789  1.0000
  H   H477      1.0  0.03035  0.33914  0.82351  1.0000
  H   H478      1.0  0.38642  0.44561  0.86267  1.0000
  S   S67       1.0  0.38489  0.45254  0.80007  1.0000
  C   C262      1.0  0.21912  0.40583  0.98190  1.0000
  H   H479      1.0  0.05793  0.15978  0.96531  1.0000
  H   H480      1.0  0.12304  0.38475  0.97130  1.0000
  H   H481      1.0  0.15309  0.41973  0.98804  1.0000
  H   H482      1.0  0.48798  0.45740  0.86562  1.0000
  C   C263      1.0  0.08620  0.22226  0.78928  1.0000
  H   H483      1.0  0.10239  0.10565  0.97609  1.0000
  H   H484      1.0  0.13293  0.28063  0.90700  1.0000
  C   C264      1.0  0.47108  0.39864  0.83685  1.0000
  H   H485      1.0  0.47297  0.45134  0.83493  1.0000
  H   H486      1.0  0.02556  0.19838  0.97275  1.0000
  H   H487      1.0  0.44395  0.40457  0.88543  1.0000
  H   H488      1.0  0.48349  0.28362  0.98505  1.0000
  H   H489      1.0  0.42161  0.41923  0.84239  1.0000
  H   H490      1.0  0.11337  0.25142  0.91132  1.0000
  H   H491      1.0  0.09981  0.28346  0.91977  1.0000
  H   H492      1.0  0.41667  0.41030  0.78008  1.0000
  C   C265      1.0  0.14050  0.37529  0.96188  1.0000
  H   H493      1.0  0.45439  0.43746  0.89023  1.0000
  C   C266      1.0  0.06371  0.22469  0.93631  1.0000
  C   C267      1.0  0.03931  0.22350  0.92322  1.0000
  C   C268      1.0  0.03515  0.20490  0.90309  1.0000
  C   C269      1.0  0.05552  0.18762  0.89572  1.0000
  C   C270      1.0  0.07981  0.18879  0.90891  1.0000
  C   C271      1.0  0.08389  0.20718  0.92916  1.0000
  H   H494      1.0  0.02354  0.23691  0.92880  1.0000
  C   C272      1.0  0.13244  0.04876  0.75986  1.0000
  H   H495      1.0  0.09571  0.17563  0.90318  1.0000
  H   H496      1.0  0.10285  0.20818  0.93891  1.0000
  H   H497      1.0  0.24954  0.43624  0.98929  1.0000
  C   C273      1.0  0.46029  0.47284  0.78147  1.0000
  C   C274      1.0  0.43401  0.47421  0.79044  1.0000
  C   C275      1.0  0.41818  0.45168  0.78987  1.0000
  H   H498      1.0  0.07598  0.21259  0.77258  1.0000
  H   H499      1.0  0.48594  0.38569  0.88742  1.0000
  H   H500      1.0  0.13698  0.35364  0.96083  1.0000
  C   C276      1.0  0.26891  0.40093  0.97668  1.0000
  H   H501      1.0  0.33226  0.44429  0.76470  1.0000
  N   N15       1.0  0.47596  0.41673  0.85982  1.0000
  H   H502      1.0  0.26759  0.37912  0.97886  1.0000
  H   H503      1.0  0.16220  0.37158  0.99765  1.0000
  H   H504      1.0  0.40693  0.45294  0.89055  1.0000
  H   H505      1.0  0.09725  0.20686  0.80042  1.0000
  C   C277      1.0  0.42727  0.43327  0.85807  1.0000
  C   C278      1.0  0.03404  0.25483  0.85002  1.0000
  H   H506      1.0  0.11565  0.26424  0.86452  1.0000
  H   H507      1.0  0.13111  0.11067  0.93483  1.0000
  Fe  Fe33      1.0  0.36417  0.49065  0.81165  1.0000
  H   H508      1.0  0.19491  0.50155  0.98512  1.0000
  H   H509      1.0  0.02728  0.06077  0.81143  1.0000
  S   S68       1.0  0.01241  0.23162  0.76245  1.0000
  H   H510      1.0  0.13704  0.14368  0.92288  1.0000
  H   H511      1.0  0.07767  0.17808  0.98706  1.0000
  H   H512      1.0  0.17289  0.41837  0.95946  1.0000
  H   H513      1.0  0.18181  0.36952  0.96815  1.0000
  H   H514      1.0  0.49622  0.27673  0.94001  1.0000
  H   H515      1.0  0.04439  0.21143  0.99998  1.0000
  H   H516      1.0  0.21845  0.41007  0.96039  1.0000
  H   H517      1.0  0.07671  0.11880  0.95590  1.0000
  H   H518      1.0  0.09596  0.26094  0.82331  1.0000
  H   H519      1.0  0.21016  0.45420  0.97756  1.0000
  H   H520      1.0  0.05192  0.22022  0.81383  1.0000
  H   H521      1.0  0.47062  0.30144  0.90594  1.0000
  C   C279      1.0  0.27354  0.49066  0.97800  1.0000
  H   H522      1.0  0.48347  0.32616  0.94626  1.0000
  Fe  Fe34      1.0  0.02107  0.16466  0.83796  1.0000
  C   C280      1.0  0.11267  0.14210  0.95789  1.0000
  H   H523      1.0  0.49233  0.31710  0.98730  1.0000
  H   H524      1.0  0.46863  0.36011  0.85698  1.0000
  H   H525      1.0  0.10024  0.23697  0.78121  1.0000
  H   H526      1.0  0.03539  0.23409  0.85730  1.0000
  C   C281      1.0  0.03833  0.16882  0.00135  1.0000
  H   H527      1.0  0.08126  0.30201  0.83534  1.0000
  H   H528      1.0  0.14582  0.05114  0.77689  1.0000
  C   C282      1.0  0.29772  0.47763  0.97400  1.0000
  H   H529      1.0  0.13025  0.14384  0.97074  1.0000
  C   C283      1.0  0.24670  0.41471  0.99184  1.0000
  S   S69       1.0  0.02255  0.09438  0.76395  1.0000
  C   C284      1.0  0.03071  0.04850  0.79439  1.0000
  C   C285      1.0  0.42886  0.42777  0.78064  1.0000
  H   H530      1.0  0.43704  0.37595  0.85194  1.0000
  H   H531      1.0  0.49009  0.39304  0.82724  1.0000
  S   S70       1.0  0.32011  0.48946  0.81731  1.0000
  C   C286      1.0  0.06573  0.23573  0.80692  1.0000
  C   C287      1.0  0.16544  0.38038  0.97793  1.0000
  H   H532      1.0  0.32957  0.46938  0.94676  1.0000
  C   C288      1.0  0.10226  0.27568  0.87757  1.0000
  C   C289      1.0  0.03606  0.02113  0.79747  1.0000
  C   C290      1.0  0.49526  0.40319  0.87806  1.0000
  H   H533      1.0  0.47223  0.34994  0.81000  1.0000
  C   C291      1.0  0.31082  0.47941  0.94946  1.0000
  H   H534      1.0  0.49035  0.42774  0.91351  1.0000
  H   H535      1.0  0.08763  0.23271  0.84237  1.0000
  S   S71       1.0  0.50416  0.44774  0.76164  1.0000
  H   H536      1.0  0.43223  0.45243  0.84875  1.0000
  C   C292      1.0  0.17378  0.46541  0.99518  1.0000
  H   H537      1.0  0.06165  0.27878  0.88906  1.0000
  C   C293      1.0  0.19901  0.44780  0.99537  1.0000
  H   H538      1.0  0.47867  0.33540  0.89902  1.0000
  H   H539      1.0  0.30647  0.46636  0.98988  1.0000
  C   C294      1.0  0.45528  0.42628  0.77218  1.0000
  H   H540      1.0  0.13195  0.02591  0.80855  1.0000
  C   C295      1.0  0.40283  0.43801  0.87513  1.0000
  S   S72       1.0  0.31805  0.49674  0.89827  1.0000
  H   H541      1.0  0.01619  0.20377  0.89341  1.0000
  H   H542      1.0  0.26795  0.40622  0.95550  1.0000
  H   H543      1.0  0.10370  0.29693  0.87238  1.0000
  N   N16       1.0  0.06140  0.26644  0.84809  1.0000
  H   H544      1.0  0.16410  0.46427  0.97562  1.0000
  C   C296      1.0  0.07888  0.24935  0.83076  1.0000
  C   C297      1.0  0.07323  0.26611  0.87538  1.0000
  C   C298      1.0  0.06083  0.29472  0.83855  1.0000
  C   C299      1.0  0.27573  0.50701  0.93244  1.0000
  H   H545      1.0  0.09604  0.05618  0.78308  1.0000
  C   C300      1.0  0.29998  0.49411  0.92847  1.0000
  C   C301      1.0  0.12200  0.13048  0.93176  1.0000
  H   H546      1.0  0.05729  0.29236  0.79569  1.0000
  C   C302      1.0  0.18068  0.49436  0.00014  1.0000
  C   C303      1.0  0.48673  0.44252  0.84960  1.0000
  H   H547      1.0  0.12635  0.09331  0.79244  1.0000
  H   H548      1.0  0.10521  0.12878  0.91782  1.0000
  Fe  Fe35      1.0  0.10431  0.24633  0.98796  1.0000
  H   H549      1.0  0.03631  0.01262  0.81698  1.0000
  C   C304      1.0  0.26269  0.50531  0.95700  1.0000
  C   C305      1.0  0.45680  0.37234  0.84319  1.0000
  H   H550      1.0  0.14278  0.38298  0.94155  1.0000
  H   H551      1.0  0.10491  0.16221  0.95408  1.0000
  H   H552      1.0  0.28831  0.40743  0.98445  1.0000
  C   C306      1.0  0.03006  0.05999  0.76934  1.0000
  C   C307      1.0  0.49917  0.31899  0.93281  1.0000
  C   C308      1.0  0.04591  0.30034  0.81254  1.0000
  H   H553      1.0  0.03288  0.33359  0.78872  1.0000
  C   C309      1.0  0.17121  0.41049  0.97986  1.0000
  C   C310      1.0  0.45076  0.42248  0.87471  1.0000
  Fe  Fe36      1.0  0.01111  0.13133  0.78870  1.0000
  H   H554      1.0  0.02466  0.25317  0.83040  1.0000
  H   H555      1.0  0.06235  0.33985  0.80744  1.0000
  H   H556      1.0  0.44155  0.36740  0.80339  1.0000
  C   C311      1.0  0.06398  0.16095  0.98637  1.0000
  H   H557      1.0  0.47237  0.49040  0.78165  1.0000
  H   H558      1.0  0.09322  0.01344  0.77624  1.0000
  H   H559      1.0  0.46331  0.40776  0.76510  1.0000
  C   C312      1.0  0.47111  0.44880  0.77263  1.0000
  H   H560      1.0  0.44164  0.33778  0.82316  1.0000
  C   C313      1.0  0.45282  0.35596  0.81834  1.0000
  N   N17       1.0  0.19540  0.41810  0.99542  1.0000
  H   H561      1.0  0.45966  0.40911  0.82145  1.0000
  H   H562      1.0  0.42596  0.49269  0.79766  1.0000
  H   H563      1.0  0.39632  0.41929  0.88448  1.0000
  H   H564      1.0  0.04337  0.11188  0.98887  1.0000
  H   H565      1.0  0.02214  0.15511  0.99601  1.0000
  N   N18       1.0  0.07802  0.13572  0.99491  1.0000
  C   C314      1.0  0.01407  0.26997  0.86775  1.0000
  S   S73       1.0  0.18695  0.30209  0.99317  1.0000
  C   C315      1.0  0.17929  0.01608  0.76271  1.0000
  H   H566      1.0  0.23220  0.33587  0.99137  1.0000
  H   H567      1.0  0.21883  0.38398  0.98387  1.0000
  H   H568      1.0  0.01237  0.29100  0.86178  1.0000
  C   C316      1.0  0.11394  0.09331  0.77446  1.0000
  H   H569      1.0  0.09543  0.10450  0.77871  1.0000
  C   C317      1.0  0.50050  0.29683  0.98927  1.0000
  H   H570      1.0  0.02005  0.26898  0.88867  1.0000
  H   H571      1.0  0.07660  0.07699  0.99552  1.0000
  C   C318      1.0  0.10709  0.06507  0.76648  1.0000
  H   H572      1.0  0.17594  0.01667  0.78419  1.0000
  H   H573      1.0  0.12456  0.10355  0.75832  1.0000
  C   C319      1.0  0.02924  0.19676  0.99419  1.0000
  H   H574      1.0  0.50200  0.30966  0.89097  1.0000
  H   H575      1.0  0.02580  0.29190  0.81249  1.0000
  H   H576      1.0  0.16252  0.50675  0.99915  1.0000
  H   H577      1.0  0.18451  0.03630  0.75598  1.0000
  C   C320      1.0  0.50645  0.42024  0.90068  1.0000
  H   H578      1.0  0.08937  0.00836  0.82439  1.0000
  C   C321      1.0  0.05832  0.11560  0.00449  1.0000
  H   H579      1.0  0.25696  0.91803  0.04450  1.0000
  S   S74       1.0  0.17601  0.81587  0.02009  1.0000
  H   H580      1.0  0.11040  0.58684  0.19211  1.0000
  C   C322      1.0  0.49294  0.95593  0.24663  1.0000
  H   H581      1.0  0.17336  0.51334  0.15026  1.0000
  H   H582      1.0  0.02757  0.66057  0.13160  1.0000
  S   S75       1.0  0.19685  0.88151  0.05461  1.0000
  C   C323      1.0  0.01666  0.79455  0.03556  1.0000
  C   C324      1.0  0.10013  0.57987  0.20999  1.0000
  H   H583      1.0  0.25149  0.75700  0.00834  1.0000
  C   C325      1.0  0.14321  0.91292  0.09406  1.0000
  H   H584      1.0  0.07148  0.97484  0.17950  1.0000
  C   C326      1.0  0.14962  0.00117  0.08463  1.0000
  H   H585      1.0  0.13550  0.52736  0.17936  1.0000
  H   H586      1.0  0.19269  0.55059  0.23262  1.0000
  C   C327      1.0  0.32889  0.98778  0.03211  1.0000
  H   H587      1.0  0.14327  0.87187  0.08174  1.0000
  H   H588      1.0  0.03681  0.67557  0.17740  1.0000
  H   H589      1.0  0.26711  0.50985  0.17123  1.0000
  H   H590      1.0  0.15595  0.92790  0.15475  1.0000
  H   H591      1.0  0.26275  0.92545  0.01020  1.0000
  C   C328      1.0  0.21182  0.97084  0.05413  1.0000
  C   C329      1.0  0.21635  0.95576  0.07671  1.0000
  C   C330      1.0  0.21167  0.92841  0.07653  1.0000
  C   C331      1.0  0.20220  0.91592  0.05385  1.0000
  C   C332      1.0  0.19758  0.93098  0.03123  1.0000
  C   C333      1.0  0.20258  0.95834  0.03134  1.0000
  H   H592      1.0  0.22375  0.96505  0.09426  1.0000
  H   H593      1.0  0.21550  0.91681  0.09402  1.0000
  H   H594      1.0  0.33475  0.72245  0.02220  1.0000
  C   C334      1.0  0.17853  0.56094  0.24561  1.0000
  H   H595      1.0  0.15230  0.96095  0.16817  1.0000
  C   C335      1.0  0.01050  0.75335  0.12260  1.0000
  C   C336      1.0  0.09921  0.96436  0.14857  1.0000
  H   H596      1.0  0.31730  0.97686  0.13142  1.0000
  H   H597      1.0  0.27152  0.67815  0.02397  1.0000
  C   C337      1.0  0.31291  0.97811  0.07732  1.0000
  H   H598      1.0  0.24569  0.72784  0.02811  1.0000
  C   C338      1.0  0.06260  0.79671  0.01964  1.0000
  H   H599      1.0  0.12166  0.97036  0.07425  1.0000
  C   C339      1.0  0.13044  0.88562  0.09312  1.0000
  C   C340      1.0  0.12568  0.93284  0.10953  1.0000
  N   N19       1.0  0.13652  0.96041  0.11288  1.0000
  H   H600      1.0  0.01912  0.71833  0.05609  1.0000
  H   H601      1.0  0.26643  0.96663  0.04919  1.0000
  H   H602      1.0  0.14601  0.91926  0.07338  1.0000
  H   H603      1.0  0.02163  0.70938  0.14636  1.0000
  H   H604      1.0  0.27417  0.96344  0.09120  1.0000
  H   H605      1.0  0.32354  0.95891  0.07792  1.0000
  H   H606      1.0  0.04559  0.70320  0.10879  1.0000
  C   C341      1.0  0.42269  0.99250  0.21111  1.0000
  H   H607      1.0  0.32574  0.54117  0.02034  1.0000
  H   H608      1.0  0.31140  0.63226  0.02932  1.0000
  H   H609      1.0  0.19920  0.96985  0.01371  1.0000
  H   H610      1.0  0.15524  0.58443  0.21795  1.0000
  H   H611      1.0  0.09990  0.99595  0.17756  1.0000
  H   H612      1.0  0.12168  0.92341  0.12877  1.0000
  C   C342      1.0  0.01256  0.77095  0.02184  1.0000
  H   H613      1.0  0.10274  0.98728  0.11357  1.0000
  H   H614      1.0  0.06459  0.60253  0.20126  1.0000
  C   C343      1.0  0.04148  0.80725  0.03449  1.0000
  H   H615      1.0  0.20479  0.93485  0.15177  1.0000
  H   H616      1.0  0.12803  0.87745  0.11324  1.0000
  H   H617      1.0  0.05906  0.57419  0.22187  1.0000
  H   H618      1.0  0.01721  0.79549  0.12615  1.0000
  H   H619      1.0  0.35111  0.95991  0.18619  1.0000
  H   H620      1.0  0.46459  0.72599  0.01669  1.0000
  C   C344      1.0  0.18205  0.53264  0.15587  1.0000
  Fe  Fe37      1.0  0.18088  0.86018  0.01891  1.0000
  H   H621      1.0  0.38238  0.71805  0.02979  1.0000
  C   C345      1.0  0.16293  0.96032  0.12652  1.0000
  H   H622      1.0  0.30519  0.68107  0.03381  1.0000
  H   H623      1.0  0.17795  0.95007  0.11432  1.0000
  C   C346      1.0  0.16377  0.94830  0.15442  1.0000
  H   H624      1.0  0.11054  0.95112  0.16176  1.0000
  H   H625      1.0  0.30711  0.56848  0.00679  1.0000
  C   C347      1.0  0.14661  0.54315  0.18961  1.0000
  H   H626      1.0  0.29245  0.72051  0.01483  1.0000
  C   C348      1.0  0.14033  0.97197  0.08574  1.0000
  H   H627      1.0  0.27729  0.62931  0.01897  1.0000
  C   C349      1.0  0.33767  0.96846  0.20126  1.0000
  C   C350      1.0  0.01107  0.66845  0.14371  1.0000
  H   H628      1.0  0.16283  0.91049  0.10346  1.0000
  H   H629      1.0  0.14160  0.56147  0.17864  1.0000
  H   H630      1.0  0.20040  0.96742  0.16603  1.0000
  N   N20       1.0  0.13789  0.54533  0.21790  1.0000
  H   H631      1.0  0.45665  0.51828  0.20302  1.0000
  H   H632      1.0  0.34545  0.68818  0.02044  1.0000
  C   C351      1.0  0.29166  0.66987  0.02102  1.0000
  H   H633      1.0  0.10618  0.93393  0.09940  1.0000
  H   H634      1.0  0.07366  0.99902  0.15352  1.0000
  H   H635      1.0  0.30690  0.94417  0.12145  1.0000
  H   H636      1.0  0.05695  0.68756  0.04845  1.0000
  H   H637      1.0  0.15555  0.96069  0.07456  1.0000
  H   H638      1.0  0.07736  0.70750  0.06986  1.0000
  H   H639      1.0  0.06516  0.56983  0.18712  1.0000
  C   C352      1.0  0.37456  0.71638  0.00949  1.0000
  C   C353      1.0  0.03539  0.71768  0.07053  1.0000
  H   H640      1.0  0.30234  0.92931  0.05582  1.0000
  H   H641      1.0  0.17037  0.98084  0.12863  1.0000
  H   H642      1.0  0.11090  0.88669  0.08327  1.0000
  H   H643      1.0  0.03920  0.73837  0.07659  1.0000
  H   H644      1.0  0.12730  0.99452  0.13709  1.0000
  H   H645      1.0  0.48347  0.99503  0.23176  1.0000
  H   H646      1.0  0.44619  0.00679  0.17838  1.0000
  C   C354      1.0  0.17641  0.53865  0.18476  1.0000
  H   H647      1.0  0.27964  0.89812  0.02581  1.0000
  C   C355      1.0  0.34572  0.70762  0.01038  1.0000
  C   C356      1.0  0.29135  0.64124  0.03070  1.0000
  H   H648      1.0  0.03062  0.67907  0.08877  1.0000
  H   H649      1.0  0.10465  0.59396  0.22604  1.0000
  H   H650      1.0  0.28221  0.99634  0.10209  1.0000
  C   C357      1.0  0.08521  0.98488  0.16575  1.0000
  C   C358      1.0  0.15195  0.56766  0.23176  1.0000
  C   C359      1.0  0.05852  0.77301  0.00610  1.0000
  S   S76       1.0  0.09323  0.81427  0.01814  1.0000
  C   C360      1.0  0.25333  0.51171  0.21156  1.0000
  H   H651      1.0  0.19225  0.93840  0.18478  1.0000
  H   H652      1.0  0.16333  0.51409  0.23336  1.0000
  C   C361      1.0  0.35313  0.98521  0.22082  1.0000
  H   H653      1.0  0.43827  0.97787  0.21610  1.0000
  C   C362      1.0  0.19209  0.94718  0.16478  1.0000
  C   C363      1.0  0.49979  0.72861  0.04142  1.0000
  C   C364      1.0  0.29476  0.93667  0.03675  1.0000
  H   H654      1.0  0.08381  0.95235  0.13873  1.0000
  H   H655      1.0  0.28498  0.64068  0.05159  1.0000
  C   C365      1.0  0.03373  0.76031  0.00718  1.0000
  H   H656      1.0  0.19040  0.92151  0.01361  1.0000
  H   H657      1.0  0.20374  0.53139  0.15272  1.0000
  C   C366      1.0  0.14211  0.51970  0.23268  1.0000
  S   S77       1.0  0.21854  0.00505  0.05347  1.0000
  H   H658      1.0  0.17402  0.54848  0.14297  1.0000
  H   H659      1.0  0.06472  0.72112  0.03964  1.0000
  H   H660      1.0  0.40838  0.98315  0.19759  1.0000
  H   H661      1.0  0.02129  0.64360  0.17714  1.0000
  C   C367      1.0  0.35276  0.96922  0.03797  1.0000
  C   C368      1.0  0.06014  0.70774  0.05634  1.0000
  C   C369      1.0  0.10854  0.55128  0.21794  1.0000
  C   C370      1.0  0.07043  0.58159  0.20473  1.0000
  H   H662      1.0  0.49666  0.94781  0.22733  1.0000
  H   H663      1.0  0.46764  0.75651  0.03467  1.0000
  H   H664      1.0  0.19696  0.59929  0.23941  1.0000
  H   H665      1.0  0.32711  0.95227  0.21155  1.0000
  C   C371      1.0  0.11691  0.97778  0.12751  1.0000
  H   H666      1.0  0.18404  0.52191  0.19646  1.0000
  H   H667      1.0  0.13606  0.52238  0.25362  1.0000
  H   H668      1.0  0.36257  0.97546  0.05647  1.0000
  H   H669      1.0  0.17066  0.00233  0.09060  1.0000
  C   C372      1.0  0.02892  0.70015  0.09486  1.0000
  H   H670      1.0  0.34685  0.94834  0.04032  1.0000
  H   H671      1.0  0.04426  0.82557  0.04504  1.0000
  C   C373      1.0  0.27211  0.91858  0.02876  1.0000
  C   C374      1.0  0.47878  0.74112  0.02365  1.0000
  C   C375      1.0  0.01830  0.66492  0.17268  1.0000
  C   C376      1.0  0.29036  0.97637  0.09793  1.0000
  H   H672      1.0  0.28440  0.96576  0.13881  1.0000
  H   H673      1.0  0.26820  0.52575  0.21744  1.0000
  H   H674      1.0  0.03194  0.74984  0.11949  1.0000
  C   C377      1.0  0.30048  0.96505  0.12394  1.0000
  H   H675      1.0  0.32729  0.99291  0.08481  1.0000
  H   H676      1.0  0.09998  0.54764  0.23782  1.0000
  C   C378      1.0  0.28545  0.96582  0.03833  1.0000
  H   H677      1.0  0.33854  0.99381  0.23471  1.0000
  H   H678      1.0  0.09806  0.53761  0.20443  1.0000
  H   H679      1.0  0.18752  0.55679  0.18980  1.0000
  H   H680      1.0  0.13933  0.57570  0.24778  1.0000
  H   H681      1.0  0.28008  0.97140  0.01789  1.0000
  C   C379      1.0  0.48533  0.98277  0.24907  1.0000
  H   H682      1.0  0.32281  0.98111  0.19106  1.0000
  H   H683      1.0  0.38404  0.95508  0.22185  1.0000
  H   H684      1.0  0.36253  0.00125  0.20947  1.0000
  N   N21       1.0  0.30480  0.98531  0.04963  1.0000
  C   C380      1.0  0.24389  0.73646  0.00811  1.0000
  H   H685      1.0  0.15884  0.99973  0.04275  1.0000
  H   H686      1.0  0.31032  0.93464  0.02151  1.0000
  C   C381      1.0  0.37369  0.96834  0.23602  1.0000
  H   H687      1.0  0.39049  0.95762  0.02109  1.0000
  H   H688      1.0  0.38054  0.99103  0.01342  1.0000
  C   C382      1.0  0.37336  0.97048  0.01603  1.0000
  H   H689      1.0  0.32322  0.98513  0.01112  1.0000
  H   H690      1.0  0.49983  0.69141  0.02163  1.0000
  H   H691      1.0  0.48941  0.72034  0.05873  1.0000
  H   H692      1.0  0.48814  0.75060  0.00630  1.0000
  C   C383      1.0  0.40864  0.00322  0.23608  1.0000
  H   H693      1.0  0.49366  0.66929  0.10698  1.0000
  H   H694      1.0  0.42364  0.95279  0.24687  1.0000
  H   H695      1.0  0.36200  0.95484  0.24871  1.0000
  N   N22       1.0  0.39354  0.98329  0.25223  1.0000
  H   H696      1.0  0.39114  0.91140  0.44021  1.0000
  S   S78       1.0  0.45322  0.79276  0.47588  1.0000
  C   C384      1.0  0.44860  0.73164  0.42565  1.0000
  C   C385      1.0  0.45109  0.86870  0.48660  1.0000
  H   H697      1.0  0.41987  0.91067  0.40708  1.0000
  H   H698      1.0  0.01779  0.61897  0.35771  1.0000
  S   S79       1.0  0.10873  0.51350  0.30788  1.0000
  H   H699      1.0  0.45563  0.89003  0.48663  1.0000
  C   C386      1.0  0.46438  0.73892  0.36780  1.0000
  C   C387      1.0  0.24684  0.64490  0.50106  1.0000
  S   S80       1.0  0.45390  0.82309  0.35487  1.0000
  S   S81       1.0  0.49074  0.83303  0.28896  1.0000
  H   H700      1.0  0.10309  0.59986  0.34470  1.0000
  C   C388      1.0  0.39341  0.85943  0.43846  1.0000
  C   C389      1.0  0.45793  0.75894  0.32247  1.0000
  C   C390      1.0  0.30370  0.71717  0.46742  1.0000
  H   H701      1.0  0.30464  0.64067  0.49117  1.0000
  S   S82       1.0  0.18383  0.53978  0.31881  1.0000
  C   C391      1.0  0.24425  0.54049  0.47446  1.0000
  H   H702      1.0  0.12050  0.58898  0.40159  1.0000
  H   H703      1.0  0.43766  0.91688  0.27822  1.0000
  C   C392      1.0  0.21843  0.54478  0.42480  1.0000
  C   C393      1.0  0.20828  0.55762  0.44724  1.0000
  C   C394      1.0  0.22105  0.55552  0.47188  1.0000
  C   C395      1.0  0.43368  0.71655  0.44700  1.0000
  H   H704      1.0  0.20589  0.63973  0.42177  1.0000
  H   H705      1.0  0.19030  0.56919  0.44561  1.0000
  H   H706      1.0  0.21280  0.56532  0.48893  1.0000
  H   H707      1.0  0.45290  0.75511  0.37731  1.0000
  C   C396      1.0  0.28879  0.63245  0.47866  1.0000
  H   H708      1.0  0.42253  0.91760  0.49170  1.0000
  H   H709      1.0  0.46791  0.77019  0.30657  1.0000
  H   H710      1.0  0.01368  0.63798  0.39813  1.0000
  C   C397      1.0  0.42481  0.92562  0.29371  1.0000
  C   C398      1.0  0.08614  0.66214  0.33245  1.0000
  Fe  Fe38      1.0  0.49193  0.83276  0.33330  1.0000
  C   C399      1.0  0.43000  0.89123  0.40566  1.0000
  C   C400      1.0  0.09862  0.58952  0.28348  1.0000
  H   H711      1.0  0.38365  0.94727  0.48579  1.0000
  C   C401      1.0  0.06817  0.54416  0.28894  1.0000
  C   C402      1.0  0.09493  0.54341  0.29619  1.0000
  C   C403      1.0  0.11011  0.56622  0.29354  1.0000
  H   H712      1.0  0.38315  0.89941  0.47173  1.0000
  H   H713      1.0  0.15166  0.53772  0.41933  1.0000
  H   H714      1.0  0.02474  0.55554  0.36073  1.0000
  H   H715      1.0  0.33608  0.82365  0.45228  1.0000
  C   C404      1.0  0.49086  0.95043  0.29365  1.0000
  C   C405      1.0  0.45294  0.80136  0.44231  1.0000
  C   C406      1.0  0.43062  0.79747  0.42673  1.0000
  C   C407      1.0  0.43118  0.80423  0.39991  1.0000
  C   C408      1.0  0.45407  0.81479  0.38850  1.0000
  C   C409      1.0  0.47640  0.81869  0.40408  1.0000
  C   C410      1.0  0.47587  0.81186  0.43088  1.0000
  H   H716      1.0  0.41295  0.78919  0.43533  1.0000
  H   H717      1.0  0.41381  0.80121  0.38793  1.0000
  H   H718      1.0  0.41444  0.96486  0.48426  1.0000
  C   C411      1.0  0.45518  0.89500  0.38946  1.0000
  C   C412      1.0  0.48339  0.97732  0.29611  1.0000
  C   C413      1.0  0.05658  0.56757  0.27922  1.0000
  C   C414      1.0  0.13738  0.52455  0.42935  1.0000
  H   H719      1.0  0.21348  0.60561  0.41489  1.0000
  H   H720      1.0  0.43366  0.74238  0.41374  1.0000
  C   C415      1.0  0.02037  0.56605  0.34205  1.0000
  N   N23       1.0  0.48237  0.72559  0.38747  1.0000
  N   N24       1.0  0.26509  0.65090  0.47835  1.0000
  H   H721      1.0  0.03644  0.59856  0.37957  1.0000
  C   C416      1.0  0.27483  0.67890  0.48191  1.0000
  H   H722      1.0  0.03353  0.66521  0.36291  1.0000
  C   C417      1.0  0.25100  0.64949  0.45229  1.0000
  C   C418      1.0  0.23779  0.62286  0.44544  1.0000
  C   C419      1.0  0.41723  0.92397  0.47152  1.0000
  C   C420      1.0  0.29792  0.68776  0.46379  1.0000
  H   H723      1.0  0.04437  0.63672  0.41585  1.0000
  H   H724      1.0  0.40845  0.86687  0.49321  1.0000
  H   H725      1.0  0.35799  0.86550  0.46326  1.0000
  H   H726      1.0  0.28158  0.68190  0.50256  1.0000
  H   H727      1.0  0.47097  0.67091  0.37313  1.0000
  H   H728      1.0  0.38966  0.92817  0.27047  1.0000
  H   H729      1.0  0.47769  0.70030  0.42154  1.0000
  H   H730      1.0  0.29767  0.63092  0.45867  1.0000
  S   S83       1.0  0.37541  0.77509  0.48413  1.0000
  C   C421      1.0  0.38032  0.99668  0.27547  1.0000
  H   H731      1.0  0.25848  0.69336  0.47871  1.0000
  H   H732      1.0  0.23583  0.66543  0.45072  1.0000
  H   H733      1.0  0.26498  0.65346  0.43594  1.0000
  H   H734      1.0  0.22381  0.61645  0.46091  1.0000
  H   H735      1.0  0.25306  0.60733  0.44243  1.0000
  H   H736      1.0  0.49262  0.93808  0.31091  1.0000
  H   H737      1.0  0.43542  0.92805  0.46013  1.0000
  H   H738      1.0  0.29331  0.68464  0.44277  1.0000
  H   H739      1.0  0.31638  0.67675  0.46846  1.0000
  H   H740      1.0  0.17489  0.54788  0.26276  1.0000
  C   C422      1.0  0.09210  0.66903  0.30382  1.0000
  H   H741      1.0  0.27257  0.51643  0.45357  1.0000
  H   H742      1.0  0.23536  0.63095  0.40334  1.0000
  H   H743      1.0  0.45001  0.90243  0.36955  1.0000
  H   H744      1.0  0.47184  0.69109  0.34385  1.0000
  H   H745      1.0  0.37766  0.83731  0.47262  1.0000
  H   H746      1.0  0.39671  0.95798  0.45440  1.0000
  H   H747      1.0  0.21050  0.58016  0.26616  1.0000
  H   H748      1.0  0.32131  0.72268  0.45562  1.0000
  H   H749      1.0  0.41647  0.90927  0.30565  1.0000
  C   C423      1.0  0.07176  0.59039  0.27654  1.0000
  H   H750      1.0  0.49307  0.73903  0.33477  1.0000
  N   N25       1.0  0.05874  0.63037  0.36180  1.0000
  C   C424      1.0  0.06606  0.63918  0.33439  1.0000
  C   C425      1.0  0.47795  0.75196  0.34388  1.0000
  C   C426      1.0  0.04746  0.65420  0.37598  1.0000
  C   C427      1.0  0.08247  0.62076  0.37717  1.0000
  C   C428      1.0  0.09813  0.59701  0.36570  1.0000
  H   H751      1.0  0.30798  0.72161  0.48835  1.0000
  H   H752      1.0  0.04293  0.68524  0.42203  1.0000
  H   H753      1.0  0.26805  0.59386  0.48035  1.0000
  H   H754      1.0  0.16285  0.51702  0.46208  1.0000
  H   H755      1.0  0.04786  0.64540  0.32359  1.0000
  H   H756      1.0  0.07435  0.62268  0.32271  1.0000
  H   H757      1.0  0.48889  0.76475  0.40328  1.0000
  H   H758      1.0  0.11062  0.60695  0.28110  1.0000
  H   H759      1.0  0.03595  0.56793  0.27366  1.0000
  H   H760      1.0  0.06339  0.66844  0.38083  1.0000
  H   H761      1.0  0.09653  0.63724  0.38039  1.0000
  H   H762      1.0  0.07645  0.61456  0.39723  1.0000
  H   H763      1.0  0.08654  0.57863  0.36814  1.0000
  C   C429      1.0  0.03944  0.58899  0.33795  1.0000
  H   H764      1.0  0.42929  0.97431  0.27378  1.0000
  Fe  Fe39      1.0  0.15197  0.50916  0.31886  1.0000
  H   H765      1.0  0.05943  0.58058  0.33551  1.0000
  S   S84       1.0  0.05836  0.62002  0.26360  1.0000
  H   H766      1.0  0.07820  0.68036  0.34174  1.0000
  H   H767      1.0  0.10147  0.65199  0.29366  1.0000
  H   H768      1.0  0.13727  0.60999  0.37808  1.0000
  H   H769      1.0  0.44171  0.77143  0.33051  1.0000
  H   H770      1.0  0.44913  0.72493  0.36068  1.0000
  C   C430      1.0  0.50318  0.66273  0.34709  1.0000
  C   C431      1.0  0.40010  0.90267  0.45821  1.0000
  H   H771      1.0  0.03413  0.59878  0.31917  1.0000
  H   H772      1.0  0.47957  0.98541  0.31541  1.0000
  H   H773      1.0  0.41735  0.87737  0.39449  1.0000
  H   H774      1.0  0.38400  0.87014  0.42176  1.0000
  S   S85       1.0  0.20156  0.54833  0.39408  1.0000
  H   H775      1.0  0.13076  0.56583  0.29899  1.0000
  H   H776      1.0  0.40336  0.84194  0.42973  1.0000
  C   C432      1.0  0.22221  0.62507  0.41980  1.0000
  H   H777      1.0  0.49401  0.82713  0.39549  1.0000
  C   C433      1.0  0.35240  0.83097  0.43965  1.0000
  C   C434      1.0  0.48051  0.99373  0.27387  1.0000
  H   H778      1.0  0.43700  0.93816  0.30678  1.0000
  H   H779      1.0  0.44944  0.74071  0.31388  1.0000
  Fe  Fe40      1.0  0.01527  0.63273  0.26798  1.0000
  C   C435      1.0  0.25455  0.52794  0.45195  1.0000
  H   H780      1.0  0.45199  0.89277  0.44176  1.0000
  C   C436      1.0  0.12416  0.59261  0.38037  1.0000
  C   C437      1.0  0.02492  0.67452  0.41581  1.0000
  C   C438      1.0  0.03235  0.64868  0.40202  1.0000
  H   H781      1.0  0.02246  0.55174  0.32565  1.0000
  H   H782      1.0  0.44630  0.86045  0.43021  1.0000
  C   C439      1.0  0.42258  0.86287  0.47685  1.0000
  N   N26       1.0  0.41350  0.87670  0.45197  1.0000
  C   C440      1.0  0.49909  0.70410  0.37504  1.0000
  H   H783      1.0  0.10588  0.68600  0.30294  1.0000
  H   H784      1.0  0.49194  0.64729  0.33646  1.0000
  H   H785      1.0  0.42198  0.73072  0.45908  1.0000
  H   H786      1.0  0.46590  0.87590  0.38714  1.0000
  C   C441      1.0  0.43650  0.87999  0.43330  1.0000
  C   C442      1.0  0.30971  0.58726  0.48549  1.0000
  C   C443      1.0  0.46525  0.71264  0.40815  1.0000
  H   H787      1.0  0.13459  0.57504  0.37215  1.0000
  C   C444      1.0  0.37034  0.84902  0.45566  1.0000
  H   H788      1.0  0.21069  0.66464  0.48627  1.0000
  H   H789      1.0  0.41987  0.70210  0.43818  1.0000
  C   C445      1.0  0.49973  0.74569  0.40106  1.0000
  H   H790      1.0  0.45083  0.69899  0.39898  1.0000
  H   H791      1.0  0.34361  0.84189  0.42282  1.0000
  H   H792      1.0  0.42233  0.84103  0.47411  1.0000
  H   H793      1.0  0.44769  0.70604  0.46023  1.0000
  H   H794      1.0  0.36367  0.81359  0.43223  1.0000
  H   H795      1.0  0.46122  0.74626  0.43574  1.0000
  H   H796      1.0  0.10509  0.65667  0.34198  1.0000
  C   C446      1.0  0.03754  0.60945  0.36056  1.0000
  C   C447      1.0  0.28484  0.60408  0.48963  1.0000
  H   H797      1.0  0.39075  0.95060  0.29791  1.0000
  H   H798      1.0  0.12363  0.53706  0.44105  1.0000
  C   C448      1.0  0.48397  0.68236  0.35983  1.0000
  H   H799      1.0  0.48729  0.77063  0.35025  1.0000
  H   H800      1.0  0.07367  0.67459  0.29327  1.0000
  H   H801      1.0  0.46568  0.85875  0.47351  1.0000
  Fe  Fe41      1.0  0.19698  0.52165  0.35752  1.0000
  H   H802      1.0  0.05632  0.52653  0.29087  1.0000
  C   C449      1.0  0.41348  0.96365  0.26296  1.0000
  C   C450      1.0  0.40242  0.94198  0.28155  1.0000
  C   C451      1.0  0.24186  0.53017  0.42731  1.0000
  H   H803      1.0  0.49326  0.81483  0.44284  1.0000
  C   C452      1.0  0.40199  0.95005  0.47409  1.0000
  Fe  Fe42      1.0  0.20876  0.50846  0.29852  1.0000
  H   H804      1.0  0.46844  0.90952  0.39897  1.0000
  H   H805      1.0  0.25036  0.52076  0.41018  1.0000
  H   H806      1.0  0.28665  0.72943  0.46089  1.0000
  C   C453      1.0  0.49593  0.93955  0.26888  1.0000
  H   H807      1.0  0.36370  0.98444  0.28292  1.0000
  Fe  Fe43      1.0  0.41602  0.78400  0.49937  1.0000
  H   H808      1.0  0.31347  0.58429  0.46420  1.0000
  C   C454      1.0  0.19192  0.58581  0.25590  1.0000
  H   H809      1.0  0.32711  0.59682  0.49466  1.0000
  H   H810      1.0  0.01283  0.67022  0.43352  1.0000
  H   H811      1.0  0.50443  0.73919  0.42150  1.0000
  H   H812      1.0  0.12578  0.51380  0.41430  1.0000
  S   S86       1.0  0.23467  0.51742  0.26241  1.0000
  S   S87       1.0  0.01109  0.67460  0.28218  1.0000
  H   H813      1.0  0.30714  0.56758  0.49478  1.0000
  H   H814      1.0  0.23903  0.62452  0.49986  1.0000
  H   H815      1.0  0.01315  0.68744  0.40250  1.0000
  H   H816      1.0  0.17887  0.59628  0.27009  1.0000
  S   S88       1.0  0.50636  0.90595  0.26450  1.0000
  H   H817      1.0  0.39447  0.99832  0.29220  1.0000
  C   C455      1.0  0.22272  0.66374  0.50443  1.0000
  Fe  Fe44      1.0  0.30369  0.94368  0.61386  1.0000
  S   S89       1.0  0.28833  0.95780  0.65270  1.0000
  S   S90       1.0  0.31442  0.90039  0.61456  1.0000
  Fe  Fe45      1.0  0.31779  0.99032  0.64801  1.0000
  C   C456      1.0  0.01166  0.82046  0.62923  1.0000
  Fe  Fe46      1.0  0.26086  0.98332  0.62936  1.0000
  C   C457      1.0  0.45571  0.85821  0.51441  1.0000
  S   S91       1.0  0.33490  0.97455  0.61069  1.0000
  S   S92       1.0  0.27428  0.96700  0.59031  1.0000
  C   C458      1.0  0.14352  0.69310  0.74171  1.0000
  S   S93       1.0  0.40192  0.81381  0.52915  1.0000
  H   H818      1.0  0.02192  0.73227  0.59248  1.0000
  Fe  Fe47      1.0  0.37421  0.74362  0.51563  1.0000
  S   S94       1.0  0.41613  0.75037  0.52835  1.0000
  C   C459      1.0  0.39762  0.89399  0.63662  1.0000
  Fe  Fe48      1.0  0.39868  0.77948  0.55675  1.0000
  S   S95       1.0  0.40867  0.78025  0.59986  1.0000
  S   S96       1.0  0.35668  0.77028  0.54627  1.0000
  Fe  Fe49      1.0  0.45008  0.89375  0.72165  1.0000
  S   S97       1.0  0.46108  0.85227  0.71111  1.0000
  S   S98       1.0  0.40583  0.89799  0.72224  1.0000
  Fe  Fe50      1.0  0.49048  0.87033  0.68384  1.0000
  H   H819      1.0  0.07531  0.53577  0.72384  1.0000
  S   S99       1.0  0.47740  0.91185  0.69222  1.0000
  Fe  Fe51      1.0  0.06675  0.65637  0.66167  1.0000
  S   S100      1.0  0.04008  0.65738  0.69700  1.0000
  S   S101      1.0  0.11039  0.64956  0.66859  1.0000
  Fe  Fe52      1.0  0.02401  0.69504  0.67859  1.0000
  H   H820      1.0  0.04138  0.84897  0.64060  1.0000
  S   S102      1.0  0.05211  0.69464  0.64454  1.0000
  Fe  Fe53      1.0  0.21243  0.57204  0.58570  1.0000
  S   S103      1.0  0.23717  0.53515  0.58091  1.0000
  S   S104      1.0  0.16816  0.57013  0.59094  1.0000
  Fe  Fe54      1.0  0.25895  0.60822  0.57531  1.0000
  S   S105      1.0  0.28667  0.57411  0.56911  1.0000
  S   S106      1.0  0.26954  0.65156  0.57701  1.0000
  Fe  Fe55      1.0  0.25360  0.55613  0.54522  1.0000
  H   H821      1.0  0.07551  0.71116  0.71404  1.0000
  Fe  Fe56      1.0  0.26755  0.55671  0.60548  1.0000
  S   S107      1.0  0.29525  0.54125  0.63823  1.0000
  S   S108      1.0  0.22741  0.59174  0.54912  1.0000
  S   S109      1.0  0.24130  0.59185  0.61237  1.0000
  C   C460      1.0  0.02044  0.84888  0.63407  1.0000
  S   S110      1.0  0.08748  0.92370  0.72376  1.0000
  Fe  Fe57      1.0  0.36131  0.80240  0.51626  1.0000
  H   H822      1.0  0.04740  0.53347  0.68582  1.0000
  S   S111      1.0  0.06464  0.85060  0.70062  1.0000
  C   C461      1.0  0.29351  0.54258  0.67339  1.0000
  C   C462      1.0  0.27028  0.54890  0.68704  1.0000
  C   C463      1.0  0.26991  0.54875  0.71486  1.0000
  C   C464      1.0  0.29266  0.54223  0.72956  1.0000
  C   C465      1.0  0.31604  0.53658  0.71588  1.0000
  C   C466      1.0  0.31641  0.53676  0.68807  1.0000
  H   H823      1.0  0.37584  0.87862  0.54061  1.0000
  C   C467      1.0  0.08408  0.72327  0.73012  1.0000
  C   C468      1.0  0.04866  0.54669  0.62819  1.0000
  C   C469      1.0  0.15301  0.59360  0.61171  1.0000
  C   C470      1.0  0.16672  0.60508  0.63259  1.0000
  C   C471      1.0  0.15359  0.62254  0.64978  1.0000
  C   C472      1.0  0.12683  0.62882  0.64597  1.0000
  C   C473      1.0  0.11332  0.61772  0.62480  1.0000
  C   C474      1.0  0.12628  0.59995  0.60791  1.0000
  H   H824      1.0  0.18723  0.60007  0.63582  1.0000
  H   H825      1.0  0.16415  0.63101  0.66616  1.0000
  H   H826      1.0  0.09287  0.62278  0.62139  1.0000
  H   H827      1.0  0.11561  0.59121  0.59173  1.0000
  C   C475      1.0  0.03264  0.76471  0.70306  1.0000
  C   C476      1.0  0.03095  0.78102  0.72545  1.0000
  C   C477      1.0  0.04153  0.80686  0.72549  1.0000
  C   C478      1.0  0.05357  0.81708  0.70290  1.0000
  C   C479      1.0  0.05553  0.80064  0.68063  1.0000
  C   C480      1.0  0.04523  0.77470  0.68068  1.0000
  H   H828      1.0  0.06470  0.80826  0.66300  1.0000
  H   H829      1.0  0.35393  0.79032  0.69869  1.0000
  C   C481      1.0  0.43386  0.80149  0.61033  1.0000
  C   C482      1.0  0.44835  0.81686  0.59259  1.0000
  C   C483      1.0  0.46778  0.83424  0.60194  1.0000
  C   C484      1.0  0.47234  0.83670  0.62901  1.0000
  C   C485      1.0  0.45835  0.82077  0.64650  1.0000
  C   C486      1.0  0.43922  0.80320  0.63724  1.0000
  H   H830      1.0  0.44467  0.81524  0.57175  1.0000
  H   H831      1.0  0.41862  0.52535  0.70726  1.0000
  H   H832      1.0  0.46250  0.82171  0.66714  1.0000
  H   H833      1.0  0.42837  0.79107  0.65098  1.0000
  C   C487      1.0  0.33723  0.68754  0.52914  1.0000
  C   C488      1.0  0.32016  0.70357  0.54383  1.0000
  C   C489      1.0  0.29983  0.69220  0.55879  1.0000
  C   C490      1.0  0.29630  0.66473  0.55914  1.0000
  C   C491      1.0  0.31359  0.64859  0.54482  1.0000
  C   C492      1.0  0.33406  0.65999  0.52994  1.0000
  H   H834      1.0  0.32218  0.72480  0.54317  1.0000
  H   H835      1.0  0.28650  0.70482  0.56980  1.0000
  H   H836      1.0  0.31105  0.62739  0.54498  1.0000
  H   H837      1.0  0.33384  0.53224  0.72677  1.0000
  C   C493      1.0  0.31729  0.88221  0.58534  1.0000
  C   C494      1.0  0.30746  0.89172  0.56143  1.0000
  C   C495      1.0  0.31111  0.87679  0.53836  1.0000
  C   C496      1.0  0.32499  0.85268  0.53917  1.0000
  C   C497      1.0  0.33448  0.84318  0.56319  1.0000
  C   C498      1.0  0.33026  0.85771  0.58623  1.0000
  H   H838      1.0  0.29731  0.91060  0.56066  1.0000
  C   C499      1.0  0.34320  0.66461  0.66796  1.0000
  H   H839      1.0  0.34519  0.82466  0.56406  1.0000
  H   H840      1.0  0.33749  0.85008  0.60474  1.0000
  C   C500      1.0  0.36505  0.97200  0.69008  1.0000
  C   C501      1.0  0.35492  0.94685  0.68517  1.0000
  C   C502      1.0  0.36760  0.92434  0.69525  1.0000
  C   C503      1.0  0.39118  0.92670  0.70933  1.0000
  C   C504      1.0  0.40190  0.95173  0.71369  1.0000
  C   C505      1.0  0.38863  0.97442  0.70435  1.0000
  H   H841      1.0  0.33704  0.94467  0.67401  1.0000
  H   H842      1.0  0.35917  0.90504  0.69193  1.0000
  H   H843      1.0  0.43195  0.75158  0.74139  1.0000
  H   H844      1.0  0.36824  0.83431  0.73759  1.0000
  C   C506      1.0  0.20317  0.96794  0.66508  1.0000
  C   C507      1.0  0.17604  0.96216  0.66588  1.0000
  C   C508      1.0  0.16486  0.94942  0.68785  1.0000
  C   C509      1.0  0.18072  0.94277  0.70939  1.0000
  C   C510      1.0  0.20783  0.94843  0.70850  1.0000
  C   C511      1.0  0.21901  0.96095  0.68649  1.0000
  H   H845      1.0  0.14403  0.94481  0.68813  1.0000
  H   H846      1.0  0.22027  0.94333  0.72505  1.0000
  H   H847      1.0  0.23982  0.96560  0.68630  1.0000
  C   C512      1.0  0.34733  0.60140  0.73144  1.0000
  H   H848      1.0  0.02545  0.81158  0.61470  1.0000
  C   C513      1.0  0.41802  0.97877  0.63891  1.0000
  C   C514      1.0  0.45561  0.77207  0.71336  1.0000
  H   H849      1.0  0.04643  0.76269  0.66316  1.0000
  Fe  Fe58      1.0  0.49196  0.85531  0.74233  1.0000
  H   H850      1.0  0.37632  0.77387  0.73907  1.0000
  C   C515      1.0  0.06209  0.56374  0.64965  1.0000
  H   H851      1.0  0.25171  0.55335  0.72510  1.0000
  C   C516      1.0  0.43034  0.77003  0.72970  1.0000
  H   H852      1.0  0.14504  0.75238  0.73970  1.0000
  H   H853      1.0  0.03989  0.69426  0.74555  1.0000
  H   H854      1.0  0.09091  0.98137  0.73066  1.0000
  H   H855      1.0  0.02121  0.77367  0.74290  1.0000
  H   H856      1.0  0.21576  0.65319  0.54545  1.0000
  C   C517      1.0  0.09477  0.99211  0.69011  1.0000
  C   C518      1.0  0.40383  0.93675  0.61568  1.0000
  Fe  Fe59      1.0  0.12541  0.91490  0.74523  1.0000
  C   C519      1.0  0.39323  0.85188  0.66360  1.0000
  H   H857      1.0  0.05900  0.57552  0.70855  1.0000
  C   C520      1.0  0.43589  0.89931  0.60721  1.0000
  H   H858      1.0  0.07464  0.61504  0.73294  1.0000
  H   H859      1.0  0.04211  0.76119  0.59731  1.0000
  H   H860      1.0  0.33961  0.58093  0.60369  1.0000
  H   H861      1.0  0.43901  0.55221  0.74188  1.0000
  H   H862      1.0  0.08978  0.97187  0.68341  1.0000
  C   C521      1.0  0.32268  0.61764  0.61883  1.0000
  C   C522      1.0  0.11209  0.74733  0.69918  1.0000
  H   H863      1.0  0.09464  0.52404  0.63490  1.0000
  H   H864      1.0  0.19605  0.63495  0.52198  1.0000
  H   H865      1.0  0.10189  0.51808  0.70865  1.0000
  H   H866      1.0  0.36740  0.59335  0.73545  1.0000
  H   H867      1.0  0.01404  0.80949  0.64777  1.0000
  H   H868      1.0  0.11185  0.55451  0.63655  1.0000
  C   C523      1.0  0.42695  0.79455  0.74766  1.0000
  C   C524      1.0  0.15487  0.66609  0.73400  1.0000
  S   S112      1.0  0.01830  0.73240  0.70408  1.0000
  N   N27       1.0  0.22698  0.88167  0.65092  1.0000
  C   C525      1.0  0.25102  0.89599  0.66100  1.0000
  C   C526      1.0  0.21304  0.89809  0.63015  1.0000
  C   C527      1.0  0.20809  0.87849  0.67375  1.0000
  C   C528      1.0  0.23373  0.85448  0.64062  1.0000
  C   C529      1.0  0.25514  0.85298  0.61892  1.0000
  C   C530      1.0  0.26730  0.88159  0.68261  1.0000
  C   C531      1.0  0.18071  0.86640  0.66714  1.0000
  C   C532      1.0  0.23030  0.91522  0.61164  1.0000
  C   C533      1.0  0.21372  0.92663  0.58916  1.0000
  C   C534      1.0  0.26288  0.82436  0.61294  1.0000
  C   C535      1.0  0.29177  0.89743  0.69017  1.0000
  C   C536      1.0  0.16236  0.86699  0.69101  1.0000
  H   H869      1.0  0.24505  0.91568  0.66884  1.0000
  H   H870      1.0  0.26507  0.90043  0.64490  1.0000
  H   H871      1.0  0.20044  0.88526  0.61765  1.0000
  H   H872      1.0  0.19923  0.91259  0.63952  1.0000
  H   H873      1.0  0.20450  0.89801  0.68330  1.0000
  H   H874      1.0  0.21672  0.86553  0.68920  1.0000
  H   H875      1.0  0.23986  0.84124  0.65703  1.0000
  H   H876      1.0  0.21591  0.84504  0.63211  1.0000
  H   H877      1.0  0.27339  0.86324  0.62481  1.0000
  H   H878      1.0  0.24750  0.86162  0.60039  1.0000
  H   H879      1.0  0.25552  0.87901  0.70079  1.0000
  H   H880      1.0  0.27423  0.86196  0.67567  1.0000
  H   H881      1.0  0.18298  0.84544  0.66108  1.0000
  H   H882      1.0  0.17057  0.87738  0.65116  1.0000
  H   H883      1.0  0.23857  0.93205  0.62284  1.0000
  H   H884      1.0  0.24710  0.90418  0.60302  1.0000
  H   H885      1.0  0.20508  0.91053  0.57719  1.0000
  H   H886      1.0  0.19763  0.93943  0.59703  1.0000
  H   H887      1.0  0.22629  0.93884  0.57611  1.0000
  H   H888      1.0  0.24545  0.81295  0.60632  1.0000
  H   H889      1.0  0.27791  0.82404  0.59698  1.0000
  H   H890      1.0  0.27164  0.81475  0.63056  1.0000
  H   H891      1.0  0.30308  0.88673  0.70560  1.0000
  H   H892      1.0  0.30496  0.90012  0.67292  1.0000
  H   H893      1.0  0.28599  0.91713  0.69799  1.0000
  H   H894      1.0  0.14346  0.85706  0.68622  1.0000
  H   H895      1.0  0.17152  0.85671  0.70804  1.0000
  H   H896      1.0  0.15773  0.88773  0.69657  1.0000
  H   H897      1.0  0.16365  0.96750  0.64936  1.0000
  S   S113      1.0  0.21653  0.98423  0.63733  1.0000
  H   H898      1.0  0.41031  0.89930  0.65365  1.0000
  H   H899      1.0  0.47598  0.86328  0.52091  1.0000
  H   H900      1.0  0.07129  0.58096  0.63959  1.0000
  H   H901      1.0  0.01878  0.86084  0.61582  1.0000
  H   H902      1.0  0.30601  0.66262  0.64692  1.0000
  H   H903      1.0  0.40356  0.55265  0.74525  1.0000
  H   H904      1.0  0.44629  0.89542  0.62616  1.0000
  S   S114      1.0  0.03933  0.63139  0.63801  1.0000
  C   C537      1.0  0.34229  0.60261  0.60144  1.0000
  H   H905      1.0  0.46094  0.93460  0.60531  1.0000
  H   H906      1.0  0.37972  0.85658  0.62413  1.0000
  C   C538      1.0  0.10237  0.73350  0.67382  1.0000
  H   H907      1.0  0.04148  0.52771  0.63639  1.0000
  H   H908      1.0  0.35906  0.62040  0.69560  1.0000
  H   H909      1.0  0.08085  0.73017  0.67529  1.0000
  C   C539      1.0  0.39010  0.89856  0.58945  1.0000
  H   H910      1.0  0.01530  0.57542  0.72263  1.0000
  C   C540      1.0  0.45356  0.91913  0.59183  1.0000
  Fe  Fe60      1.0  0.02183  0.66978  0.62416  1.0000
  H   H911      1.0  0.41355  0.76836  0.71583  1.0000
  C   C541      1.0  0.47751  0.90528  0.57965  1.0000
  H   H912      1.0  0.01617  0.53068  0.74306  1.0000
  H   H913      1.0  0.11223  0.71417  0.67038  1.0000
  H   H914      1.0  0.07147  0.74124  0.73093  1.0000
  H   H915      1.0  0.39654  0.99383  0.70822  1.0000
  C   C542      1.0  0.12633  0.52334  0.66222  1.0000
  C   C543      1.0  0.50314  0.97471  0.66622  1.0000
  C   C544      1.0  0.46921  0.98426  0.70185  1.0000
  H   H916      1.0  0.11609  0.69053  0.70912  1.0000
  H   H917      1.0  0.16846  0.66799  0.71693  1.0000
  H   H918      1.0  0.44304  0.92940  0.57576  1.0000
  H   H919      1.0  0.38312  0.90773  0.52163  1.0000
  H   H920      1.0  0.34811  0.58700  0.69185  1.0000
  H   H921      1.0  0.40630  0.94316  0.65802  1.0000
  S   S115      1.0  0.16788  0.92740  0.73787  1.0000
  C   C545      1.0  0.02500  0.56115  0.61606  1.0000
  S   S116      1.0  0.33140  0.83508  0.51006  1.0000
  H   H922      1.0  0.09876  0.74085  0.63199  1.0000
  H   H923      1.0  0.06274  0.54245  0.61197  1.0000
  H   H924      1.0  0.15719  0.53447  0.63458  1.0000
  H   H925      1.0  0.09896  0.76488  0.70154  1.0000
  H   H926      1.0  0.48940  0.89530  0.59509  1.0000
  H   H927      1.0  0.13871  0.65232  0.72871  1.0000
  H   H928      1.0  0.45478  0.78972  0.70042  1.0000
  H   H929      1.0  0.13227  0.75514  0.69531  1.0000
  H   H930      1.0  0.37521  0.86017  0.67305  1.0000
  H   H931      1.0  0.25245  0.55344  0.67618  1.0000
  H   H932      1.0  0.04575  0.57198  0.66193  1.0000
  C   C546      1.0  0.31543  0.61549  0.69537  1.0000
  C   C547      1.0  0.28141  0.62020  0.66149  1.0000
  H   H933      1.0  0.34726  0.64746  0.51869  1.0000
  H   H934      1.0  0.25816  0.64544  0.51982  1.0000
  C   C548      1.0  0.26086  0.63074  0.68177  1.0000
  H   H935      1.0  0.33259  0.58697  0.73880  1.0000
  H   H936      1.0  0.45557  0.96935  0.69354  1.0000
  H   H937      1.0  0.09774  0.77034  0.65178  1.0000
  C   C549      1.0  0.23266  0.62406  0.67349  1.0000
  H   H938      1.0  0.30948  0.63071  0.71007  1.0000
  H   H939      1.0  0.30296  0.59788  0.69972  1.0000
  H   H940      1.0  0.27814  0.59853  0.65935  1.0000
  S   S117      1.0  0.01400  0.67372  0.58055  1.0000
  H   H941      1.0  0.47320  0.77353  0.72632  1.0000
  H   H942      1.0  0.30319  0.66542  0.68133  1.0000
  H   H943      1.0  0.39050  0.81788  0.71496  1.0000
  H   H944      1.0  0.26196  0.65254  0.68356  1.0000
  H   H945      1.0  0.26402  0.62187  0.70148  1.0000
  H   H946      1.0  0.33458  0.53255  0.67775  1.0000
  C   C550      1.0  0.20465  0.65452  0.52665  1.0000
  H   H947      1.0  0.47904  0.84595  0.58820  1.0000
  H   H948      1.0  0.43037  0.98556  0.62221  1.0000
  H   H949      1.0  0.12373  0.97797  0.71752  1.0000
  Fe  Fe61      1.0  0.01124  0.63443  0.67203  1.0000
  C   C551      1.0  0.42151  0.53995  0.74658  1.0000
  H   H950      1.0  0.21844  0.63161  0.68837  1.0000
  H   H951      1.0  0.22785  0.63342  0.65430  1.0000
  H   H952      1.0  0.23019  0.60231  0.67193  1.0000
  C   C552      1.0  0.31438  0.65488  0.66570  1.0000
  C   C553      1.0  0.37714  0.90053  0.54131  1.0000
  H   H953      1.0  0.33229  0.70594  0.67468  1.0000
  H   H954      1.0  0.39056  0.87668  0.58741  1.0000
  C   C554      1.0  0.10326  0.53845  0.64886  1.0000
  H   H955      1.0  0.10889  0.56122  0.69818  1.0000
  H   H956      1.0  0.35745  0.90908  0.54595  1.0000
  H   H957      1.0  0.45786  0.75428  0.70078  1.0000
  H   H958      1.0  0.41664  0.90099  0.55552  1.0000
  H   H959      1.0  0.03133  0.58000  0.60686  1.0000
  H   H960      1.0  0.41068  0.85644  0.67594  1.0000
  C   C555      1.0  0.41752  0.94859  0.64019  1.0000
  C   C556      1.0  0.12862  0.70603  0.71831  1.0000
  H   H961      1.0  0.13584  0.53516  0.67781  1.0000
  H   H962      1.0  0.03964  0.81917  0.74277  1.0000
  H   H963      1.0  0.43652  0.87996  0.59682  1.0000
  H   H964      1.0  0.10549  0.61393  0.71525  1.0000
  S   S118      1.0  0.34828  0.00035  0.67861  1.0000
  N   N28       1.0  0.40745  0.90736  0.61189  1.0000
  Fe  Fe62      1.0  0.30423  0.99980  0.59081  1.0000
  C   C557      1.0  0.32664  0.61023  0.64815  1.0000
  H   H965      1.0  0.18819  0.66890  0.52930  1.0000
  H   H966      1.0  0.34802  0.61222  0.65224  1.0000
  H   H967      1.0  0.39129  0.83007  0.66235  1.0000
  H   H968      1.0  0.41987  0.95362  0.72497  1.0000
  C   C558      1.0  0.02632  0.75241  0.58503  1.0000
  H   H969      1.0  0.30254  0.61238  0.61220  1.0000
  H   H970      1.0  0.34625  0.82502  0.69600  1.0000
  H   H971      1.0  0.39762  0.98679  0.63671  1.0000
  C   C559      1.0  0.09470  0.57027  0.68424  1.0000
  Fe  Fe63      1.0  0.07696  0.88069  0.73243  1.0000
  C   C560      1.0  0.39726  0.90917  0.56181  1.0000
  C   C561      1.0  0.34394  0.60607  0.70194  1.0000
  H   H972      1.0  0.27590  0.62920  0.64226  1.0000
  H   H973      1.0  0.41503  0.85490  0.62755  1.0000
  H   H974      1.0  0.30374  0.88422  0.51981  1.0000
  N   N29       1.0  0.31010  0.62544  0.66775  1.0000
  C   C562      1.0  0.39671  0.86334  0.63603  1.0000
  C   C563      1.0  0.07514  0.58758  0.70028  1.0000
  H   H975      1.0  0.34494  0.62023  0.74241  1.0000
  H   H976      1.0  0.41036  0.94807  0.59827  1.0000
  N   N30       1.0  0.11222  0.73060  0.72383  1.0000
  H   H977      1.0  0.33896  0.69771  0.64066  1.0000
  H   H978      1.0  0.37729  0.90112  0.64160  1.0000
  S   S119      1.0  0.11622  0.87195  0.75099  1.0000
  H   H979      1.0  0.47109  0.89034  0.56508  1.0000
  H   H980      1.0  0.45396  0.83635  0.51483  1.0000
  H   H981      1.0  0.36912  0.90397  0.59363  1.0000
  H   H982      1.0  0.38238  0.94156  0.61758  1.0000
  H   H983      1.0  0.43796  0.94106  0.64270  1.0000
  H   H984      1.0  0.00830  0.85812  0.64983  1.0000
  C   C564      1.0  0.34971  0.80857  0.71011  1.0000
  H   H985      1.0  0.14431  0.71026  0.70351  1.0000
  H   H986      1.0  0.35667  0.65407  0.65431  1.0000
  H   H987      1.0  0.42793  0.81200  0.73460  1.0000
  H   H988      1.0  0.32271  0.58870  0.65018  1.0000
  C   C565      1.0  0.10597  0.99086  0.71795  1.0000
  C   C566      1.0  0.08895  0.60177  0.72284  1.0000
  H   H989      1.0  0.36578  0.70073  0.66360  1.0000
  H   H990      1.0  0.36292  0.60786  0.60656  1.0000
  H   H991      1.0  0.33892  0.60793  0.58054  1.0000
  S   S120      1.0  0.49490  0.86028  0.64080  1.0000
  H   H992      1.0  0.10686  0.58408  0.67227  1.0000
  N   N31       1.0  0.08222  0.54974  0.66676  1.0000
  C   C567      1.0  0.34504  0.69405  0.66134  1.0000
  H   H993      1.0  0.39778  0.93105  0.56133  1.0000
  H   H994      1.0  0.35029  0.66210  0.68842  1.0000
  H   H995      1.0  0.33146  0.80583  0.72191  1.0000
  H   H996      1.0  0.28100  0.60482  0.51113  1.0000
  H   H997      1.0  0.32572  0.63906  0.61537  1.0000
  C   C568      1.0  0.06844  0.52805  0.68193  1.0000
  H   H998      1.0  0.12878  0.75321  0.64630  1.0000
  H   H999      1.0  0.06624  0.60292  0.68732  1.0000
  C   C569      1.0  0.10725  0.75063  0.64956  1.0000
  H   H1000     1.0  0.49015  0.91994  0.56946  1.0000
  C   C570      1.0  0.37307  0.81526  0.72785  1.0000
  H   H1001     1.0  0.03366  0.75064  0.56454  1.0000
  H   H1002     1.0  0.08764  0.68687  0.75312  1.0000
  H   H1003     1.0  0.44130  0.86697  0.52842  1.0000
  H   H1004     1.0  0.09672  0.58725  0.73733  1.0000
  S   S121      1.0  0.36134  0.70137  0.50816  1.0000
  H   H1005     1.0  0.42629  0.98673  0.65743  1.0000
  C   C571      1.0  0.37756  0.79348  0.74885  1.0000
  H   H1006     1.0  0.10891  0.78705  0.73613  1.0000
  S   S122      1.0  0.26071  0.53600  0.50525  1.0000
  C   C572      1.0  0.41985  0.51687  0.72731  1.0000
  H   H1007     1.0  0.48889  0.95966  0.65921  1.0000
  C   C573      1.0  0.08016  0.52033  0.70910  1.0000
  C   C574      1.0  0.15461  0.00620  0.74768  1.0000
  H   H1008     1.0  0.48829  0.97647  0.61729  1.0000
  H   H1009     1.0  0.10959  0.00045  0.67633  1.0000
  C   C575      1.0  0.12449  0.74698  0.74537  1.0000
  H   H1010     1.0  0.48610  0.98441  0.56962  1.0000
  H   H1011     1.0  0.48178  0.97465  0.71705  1.0000
  H   H1012     1.0  0.16029  0.70583  0.74767  1.0000
  H   H1013     1.0  0.40664  0.84929  0.74964  1.0000
  H   H1014     1.0  0.20823  0.99835  0.73622  1.0000
  H   H1015     1.0  0.16605  0.65749  0.75075  1.0000
  H   H1016     1.0  0.07651  0.00443  0.68963  1.0000
  H   H1017     1.0  0.37812  0.51265  0.73355  1.0000
  H   H1018     1.0  0.04504  0.00414  0.73360  1.0000
  H   H1019     1.0  0.20478  0.51396  0.50957  1.0000
  H   H1020     1.0  0.22927  0.68397  0.50958  1.0000
  C   C576      1.0  0.10962  0.77295  0.75283  1.0000
  H   H1021     1.0  0.01595  0.54860  0.60068  1.0000
  H   H1022     1.0  0.45717  0.99995  0.71143  1.0000
  C   C577      1.0  0.50283  0.99229  0.62162  1.0000
  C   C578      1.0  0.48629  0.99634  0.68020  1.0000
  H   H1023     1.0  0.15298  0.98451  0.75129  1.0000
  H   H1024     1.0  0.00976  0.56541  0.63125  1.0000
  C   C579      1.0  0.14787  0.51624  0.64234  1.0000
  H   H1025     1.0  0.06737  0.50982  0.66974  1.0000
  C   C580      1.0  0.49614  0.00347  0.57356  1.0000
  H   H1026     1.0  0.47279  0.00643  0.66623  1.0000
  H   H1027     1.0  0.37608  0.61005  0.90708  1.0000
  H   H1028     1.0  0.02733  0.89656  0.86846  1.0000
  C   C581      1.0  0.27317  0.77631  0.94028  1.0000
  S   S123      1.0  0.49786  0.81922  0.76841  1.0000
  Fe  Fe64      1.0  0.19260  0.81736  0.97865  1.0000
  S   S124      1.0  0.19913  0.86127  0.97870  1.0000
  S   S125      1.0  0.22318  0.79044  0.95777  1.0000
  Fe  Fe65      1.0  0.15727  0.86427  0.96401  1.0000
  S   S126      1.0  0.14332  0.89430  0.93393  1.0000
  S   S127      1.0  0.15138  0.82057  0.96116  1.0000
  Fe  Fe66      1.0  0.09693  0.88417  0.78872  1.0000
  C   C582      1.0  0.04204  0.88136  0.86238  1.0000
  S   S128      1.0  0.10301  0.85574  0.82272  1.0000
  H   H1029     1.0  0.28737  0.57970  0.91980  1.0000
  H   H1030     1.0  0.41900  0.53604  0.88940  1.0000
  H   H1031     1.0  0.04752  0.69301  0.78007  1.0000
  S   S129      1.0  0.10939  0.92634  0.78480  1.0000
  Fe  Fe67      1.0  0.41735  0.77509  0.89440  1.0000
  S   S130      1.0  0.42278  0.77561  0.93829  1.0000
  S   S131      1.0  0.42944  0.81201  0.87255  1.0000
  Fe  Fe68      1.0  0.38959  0.72199  0.89580  1.0000
  S   S132      1.0  0.39377  0.71869  0.93956  1.0000
  S   S133      1.0  0.36265  0.69402  0.87405  1.0000
  Fe  Fe69      1.0  0.38044  0.76139  0.94017  1.0000
  S   S134      1.0  0.34924  0.77897  0.96829  1.0000
  Fe  Fe70      1.0  0.43572  0.73321  0.93312  1.0000
  S   S135      1.0  0.47110  0.71138  0.95218  1.0000
  S   S136      1.0  0.37459  0.76391  0.89680  1.0000
  S   S137      1.0  0.43198  0.73344  0.88892  1.0000
  Fe  Fe71      1.0  0.36707  0.54801  0.82957  1.0000
  S   S138      1.0  0.32337  0.55100  0.83645  1.0000
  S   S139      1.0  0.39785  0.57843  0.84005  1.0000
  Fe  Fe72      1.0  0.32036  0.52950  0.79720  1.0000
  C   C583      1.0  0.07966  0.70720  0.75560  1.0000
  H   H1032     1.0  0.42381  0.76989  0.79194  1.0000
  H   H1033     1.0  0.26708  0.51843  0.91662  1.0000
  C   C584      1.0  0.37301  0.66209  0.86458  1.0000
  C   C585      1.0  0.39914  0.65356  0.86777  1.0000
  C   C586      1.0  0.40655  0.62784  0.86012  1.0000
  C   C587      1.0  0.38788  0.61049  0.84945  1.0000
  C   C588      1.0  0.36174  0.61901  0.84640  1.0000
  C   C589      1.0  0.35440  0.64479  0.85377  1.0000
  H   H1034     1.0  0.41364  0.66679  0.87600  1.0000
  H   H1035     1.0  0.42684  0.62136  0.86243  1.0000
  H   H1036     1.0  0.34732  0.60593  0.83788  1.0000
  H   H1037     1.0  0.33426  0.65143  0.85089  1.0000
  C   C590      1.0  0.40747  0.86961  0.78655  1.0000
  H   H1038     1.0  0.50323  0.75958  0.95599  1.0000
  C   C591      1.0  0.13253  0.88344  0.90293  1.0000
  C   C592      1.0  0.12825  0.85666  0.89800  1.0000
  C   C593      1.0  0.11959  0.84843  0.87316  1.0000
  C   C594      1.0  0.11486  0.86696  0.85316  1.0000
  C   C595      1.0  0.11908  0.89378  0.85806  1.0000
  C   C596      1.0  0.12789  0.90199  0.88292  1.0000
  H   H1039     1.0  0.13128  0.84232  0.91340  1.0000
  H   H1040     1.0  0.11623  0.82766  0.86948  1.0000
  H   H1041     1.0  0.11534  0.90821  0.84278  1.0000
  H   H1042     1.0  0.13105  0.92278  0.88665  1.0000
  C   C597      1.0  0.25855  0.79009  0.95956  1.0000
  C   C598      1.0  0.32901  0.57515  0.90858  1.0000
  H   H1043     1.0  0.38595  0.87395  0.78582  1.0000
  C   C599      1.0  0.31467  0.78473  0.96316  1.0000
  C   C600      1.0  0.30008  0.79873  0.98228  1.0000
  C   C601      1.0  0.27233  0.80171  0.98034  1.0000
  C   C602      1.0  0.50595  0.71735  0.95210  1.0000
  C   C603      1.0  0.38573  0.55563  0.90811  1.0000
  H   H1044     1.0  0.06977  0.91627  0.99557  1.0000
  H   H1045     1.0  0.41351  0.86633  0.80725  1.0000
  C   C604      1.0  0.35614  0.59703  0.94388  1.0000
  H   H1046     1.0  0.04099  0.72443  0.76448  1.0000
  C   C605      1.0  0.47940  0.81710  0.79772  1.0000
  C   C606      1.0  0.47380  0.79221  0.80865  1.0000
  C   C607      1.0  0.45848  0.79015  0.83169  1.0000
  C   C608      1.0  0.44907  0.81304  0.84402  1.0000
  C   C609      1.0  0.45538  0.83784  0.83350  1.0000
  C   C610      1.0  0.47033  0.83989  0.81037  1.0000
  H   H1047     1.0  0.42363  0.53257  0.76705  1.0000
  H   H1048     1.0  0.45386  0.77094  0.83979  1.0000
  H   H1049     1.0  0.44834  0.85562  0.84311  1.0000
  H   H1050     1.0  0.47479  0.85914  0.80232  1.0000
  N   N32       1.0  0.05330  0.84958  0.93206  1.0000
  H   H1051     1.0  0.41762  0.53154  0.92455  1.0000
  C   C611      1.0  0.06550  0.82388  0.92262  1.0000
  C   C612      1.0  0.05374  0.86913  0.90948  1.0000
  H   H1052     1.0  0.31656  0.65956  0.94280  1.0000
  S   S140      1.0  0.29084  0.54201  0.76478  1.0000
  C   C613      1.0  0.02485  0.84569  0.94004  1.0000
  H   H1053     1.0  0.03609  0.87335  0.84298  1.0000
  C   C614      1.0  0.07904  0.80597  0.94345  1.0000
  C   C615      1.0  0.08705  0.77925  0.93187  1.0000
  C   C616      1.0  0.04154  0.00476  0.77568  1.0000
  S   S141      1.0  0.47886  0.89579  0.75520  1.0000
  H   H1054     1.0  0.05681  0.84355  0.87437  1.0000
  H   H1055     1.0  0.09034  0.86403  0.94725  1.0000
  C   C617      1.0  0.30199  0.67616  0.90678  1.0000
  H   H1056     1.0  0.05057  0.81191  0.91194  1.0000
  H   H1057     1.0  0.08143  0.82792  0.90812  1.0000
  H   H1058     1.0  0.07425  0.87631  0.90604  1.0000
  H   H1059     1.0  0.10046  0.97500  0.81787  1.0000
  H   H1060     1.0  0.28862  0.58375  0.87146  1.0000
  H   H1061     1.0  0.14391  0.79250  0.76983  1.0000
  H   H1062     1.0  0.48587  0.72464  0.86964  1.0000
  C   C618      1.0  0.40386  0.77145  0.78280  1.0000
  H   H1063     1.0  0.44490  0.79587  0.76015  1.0000
  H   H1064     1.0  0.30610  0.60950  0.92338  1.0000
  H   H1065     1.0  0.37602  0.55752  0.88871  1.0000
  H   H1066     1.0  0.36845  0.64922  0.95277  1.0000
  H   H1067     1.0  0.09722  0.81557  0.95064  1.0000
  H   H1068     1.0  0.12654  0.73549  0.76381  1.0000
  H   H1069     1.0  0.36285  0.77031  0.79777  1.0000
  H   H1070     1.0  0.10045  0.78198  0.91479  1.0000
  H   H1071     1.0  0.09762  0.76742  0.94702  1.0000
  H   H1072     1.0  0.31428  0.66262  0.89466  1.0000
  C   C619      1.0  0.07773  0.89759  0.98721  1.0000
  H   H1073     1.0  0.30848  0.61328  0.87396  1.0000
  H   H1074     1.0  0.12379  0.77458  0.79331  1.0000
  H   H1075     1.0  0.11246  0.80572  0.78016  1.0000
  H   H1076     1.0  0.04180  0.88701  0.91431  1.0000
  H   H1077     1.0  0.07448  0.76446  0.99473  1.0000
  C   C620      1.0  0.29337  0.60104  0.88396  1.0000
  H   H1078     1.0  0.38524  0.78786  0.81883  1.0000
  N   N33       1.0  0.21212  0.84445  0.87713  1.0000
  C   C621      1.0  0.23328  0.82902  0.86280  1.0000
  C   C622      1.0  0.19406  0.85730  0.85718  1.0000
  C   C623      1.0  0.22540  0.86478  0.89419  1.0000
  C   C624      1.0  0.19578  0.82663  0.89442  1.0000
  C   C625      1.0  0.18324  0.80239  0.88061  1.0000
  C   C626      1.0  0.25150  0.81149  0.88030  1.0000
  C   C627      1.0  0.20677  0.88478  0.90804  1.0000
  C   C628      1.0  0.20655  0.87903  0.83968  1.0000
  C   C629      1.0  0.18595  0.89110  0.82114  1.0000
  C   C630      1.0  0.16740  0.78566  0.89996  1.0000
  C   C631      1.0  0.27193  0.79662  0.86373  1.0000
  C   C632      1.0  0.22238  0.90512  0.92371  1.0000
  H   H1079     1.0  0.24652  0.84273  0.85196  1.0000
  H   H1080     1.0  0.22441  0.81629  0.84737  1.0000
  H   H1081     1.0  0.18614  0.84225  0.84343  1.0000
  H   H1082     1.0  0.17627  0.86586  0.86693  1.0000
  H   H1083     1.0  0.24036  0.87606  0.88277  1.0000
  H   H1084     1.0  0.23671  0.85489  0.91022  1.0000
  H   H1085     1.0  0.20754  0.81946  0.91148  1.0000
  H   H1086     1.0  0.17923  0.83793  0.90341  1.0000
  H   H1087     1.0  0.19855  0.78935  0.87185  1.0000
  H   H1088     1.0  0.16945  0.80876  0.86488  1.0000
  H   H1089     1.0  0.26250  0.82363  0.89468  1.0000
  H   H1090     1.0  0.24003  0.79653  0.89133  1.0000
  H   H1091     1.0  0.19386  0.87424  0.92204  1.0000
  H   H1092     1.0  0.19418  0.89579  0.89390  1.0000
  H   H1093     1.0  0.21469  0.89536  0.85162  1.0000
  H   H1094     1.0  0.22266  0.87064  0.82741  1.0000
  H   H1095     1.0  0.19542  0.90592  0.80810  1.0000
  H   H1096     1.0  0.17689  0.87565  0.80861  1.0000
  H   H1097     1.0  0.17012  0.90122  0.83252  1.0000
  H   H1098     1.0  0.15979  0.76784  0.88986  1.0000
  H   H1099     1.0  0.18001  0.77914  0.91665  1.0000
  H   H1100     1.0  0.15027  0.79709  0.90760  1.0000
  H   H1101     1.0  0.28465  0.81072  0.85284  1.0000
  H   H1102     1.0  0.28477  0.78447  0.87678  1.0000
  H   H1103     1.0  0.26202  0.78326  0.84958  1.0000
  H   H1104     1.0  0.23496  0.89519  0.93869  1.0000
  H   H1105     1.0  0.23499  0.91710  0.91043  1.0000
  H   H1106     1.0  0.20840  0.91860  0.93403  1.0000
  H   H1107     1.0  0.37195  0.74538  0.83816  1.0000
  C   C633      1.0  0.30101  0.77404  0.94179  1.0000
  H   H1108     1.0  0.39525  0.51367  0.90346  1.0000
  C   C634      1.0  0.40246  0.81986  0.78172  1.0000
  C   C635      1.0  0.29828  0.69850  0.95139  1.0000
  C   C636      1.0  0.30324  0.59186  0.91083  1.0000
  H   H1109     1.0  0.09776  0.90153  0.97921  1.0000
  H   H1110     1.0  0.26285  0.76701  0.92422  1.0000
  H   H1111     1.0  0.39731  0.57360  0.91231  1.0000
  H   H1112     1.0  0.27515  0.61315  0.88637  1.0000
  H   H1113     1.0  0.48271  0.85200  0.93650  1.0000
  C   C637      1.0  0.31470  0.67945  0.93377  1.0000
  H   H1114     1.0  0.31185  0.76333  0.92683  1.0000
  H   H1115     1.0  0.06163  0.89083  0.86003  1.0000
  H   H1116     1.0  0.30038  0.71873  0.94299  1.0000
  C   C638      1.0  0.29958  0.67140  0.99154  1.0000
  N   N34       1.0  0.34417  0.57159  0.93388  1.0000
  H   H1117     1.0  0.34614  0.62723  0.91408  1.0000
  H   H1118     1.0  0.08900  0.71666  0.77281  1.0000
  H   H1119     1.0  0.31029  0.80707  0.99895  1.0000
  H   H1120     1.0  0.11117  0.98441  0.76958  1.0000
  H   H1121     1.0  0.07920  0.88269  0.00325  1.0000
  H   H1122     1.0  0.38495  0.72764  0.81037  1.0000
  C   C639      1.0  0.01978  0.82756  0.96405  1.0000
  C   C640      1.0  0.04343  0.85896  0.88256  1.0000
  Fe  Fe73      1.0  0.07068  0.93364  0.76399  1.0000
  C   C641      1.0  0.48956  0.81153  0.92314  1.0000
  H   H1123     1.0  0.05901  0.90349  0.95013  1.0000
  H   H1124     1.0  0.41445  0.81652  0.79976  1.0000
  H   H1125     1.0  0.02377  0.80665  0.95871  1.0000
  C   C642      1.0  0.47131  0.83372  0.93272  1.0000
  H   H1126     1.0  0.48099  0.77451  0.79904  1.0000
  C   C643      1.0  0.37953  0.64063  0.93598  1.0000
  C   C644      1.0  0.05022  0.70462  0.76174  1.0000
  S   S142      1.0  0.36409  0.52920  0.78963  1.0000
  H   H1127     1.0  0.48708  0.82350  0.88243  1.0000
  H   H1128     1.0  0.35569  0.53120  0.92574  1.0000
  H   H1129     1.0  0.37399  0.59259  0.95593  1.0000
  H   H1130     1.0  0.31404  0.54408  0.94646  1.0000
  H   H1131     1.0  0.03952  0.88566  0.97400  1.0000
  H   H1132     1.0  0.24406  0.51555  0.95977  1.0000
  H   H1133     1.0  0.39903  0.63323  0.94292  1.0000
  H   H1134     1.0  0.06633  0.80236  0.96063  1.0000
  H   H1135     1.0  0.26152  0.81225  0.99544  1.0000
  H   H1136     1.0  0.47733  0.79357  0.92087  1.0000
  H   H1137     1.0  0.37682  0.54765  0.94827  1.0000
  H   H1138     1.0  0.33828  0.72380  0.97163  1.0000
  C   C645      1.0  0.33420  0.70503  0.98236  1.0000
  H   H1139     1.0  0.34232  0.60730  0.95758  1.0000
  H   H1140     1.0  0.35231  0.56675  0.98788  1.0000
  H   H1141     1.0  0.34158  0.58393  0.89299  1.0000
  H   H1142     1.0  0.48717  0.77518  0.88076  1.0000
  H   H1143     1.0  0.33483  0.68749  0.93050  1.0000
  C   C646      1.0  0.20323  0.99827  0.75748  1.0000
  H   H1144     1.0  0.45571  0.83801  0.91795  1.0000
  H   H1145     1.0  0.46151  0.82760  0.95128  1.0000
  C   C647      1.0  0.32512  0.56126  0.95434  1.0000
  H   H1146     1.0  0.32325  0.55550  0.90055  1.0000
  S   S143      1.0  0.05694  0.89132  0.77073  1.0000
  H   H1147     1.0  0.28192  0.66760  0.90857  1.0000
  S   S144      1.0  0.04841  0.97023  0.78105  1.0000
  H   H1148     1.0  0.30990  0.57649  0.95911  1.0000
  H   H1149     1.0  0.40692  0.74579  0.83174  1.0000
  C   C648      1.0  0.38710  0.74581  0.82237  1.0000
  H   H1150     1.0  0.06929  0.76815  0.92560  1.0000
  C   C649      1.0  0.36395  0.61827  0.92320  1.0000
  H   H1151     1.0  0.30076  0.69554  0.89650  1.0000
  Fe  Fe74      1.0  0.32699  0.51077  0.85582  1.0000
  H   H1152     1.0  0.27717  0.69317  0.94859  1.0000
  C   C650      1.0  0.36517  0.55060  0.92999  1.0000
  H   H1153     1.0  0.28312  0.66179  0.98069  1.0000
  H   H1154     1.0  0.25481  0.72791  0.96831  1.0000
  H   H1155     1.0  0.01343  0.83692  0.92365  1.0000
  C   C651      1.0  0.06957  0.86117  0.95405  1.0000
  C   C652      1.0  0.11364  0.00561  0.77469  1.0000
  H   H1156     1.0  0.07113  0.84743  0.97100  1.0000
  C   C653      1.0  0.38330  0.77061  0.80553  1.0000
  H   H1157     1.0  0.38303  0.65660  0.92144  1.0000
  C   C654      1.0  0.05954  0.88785  0.96541  1.0000
  H   H1158     1.0  0.03092  0.74206  0.99652  1.0000
  H   H1159     1.0  0.41817  0.88711  0.77892  1.0000
  H   H1160     1.0  0.22265  0.73727  0.00268  1.0000
  S   S145      1.0  0.13992  0.86728  0.00429  1.0000
  H   H1161     1.0  0.29635  0.73988  0.98663  1.0000
  H   H1162     1.0  0.43586  0.84380  0.76826  1.0000
  C   C655      1.0  0.31653  0.54915  0.00216  1.0000
  C   C656      1.0  0.40557  0.53275  0.90637  1.0000
  C   C657      1.0  0.33754  0.55232  0.98081  1.0000
  H   H1163     1.0  0.13066  0.69025  0.75904  1.0000
  H   H1164     1.0  0.38206  0.82431  0.78876  1.0000
  H   H1165     1.0  0.02338  0.85048  0.88428  1.0000
  H   H1166     1.0  0.34743  0.53278  0.97834  1.0000
  H   H1167     1.0  0.03203  0.83304  0.98118  1.0000
  H   H1168     1.0  0.22057  0.00564  0.76855  1.0000
  C   C658      1.0  0.28928  0.72022  0.99330  1.0000
  H   H1169     1.0  0.14396  0.99269  0.80251  1.0000
  C   C659      1.0  0.12340  0.78718  0.77542  1.0000
  H   H1170     1.0  0.38689  0.70180  0.99862  1.0000
  H   H1171     1.0  0.19921  0.97765  0.76385  1.0000
  H   H1172     1.0  0.08911  0.76885  0.75929  1.0000
  H   H1173     1.0  0.35999  0.79441  0.76192  1.0000
  C   C660      1.0  0.41403  0.84548  0.76964  1.0000
  N   N35       1.0  0.40258  0.79527  0.76480  1.0000
  H   H1174     1.0  0.25128  0.69924  0.98886  1.0000
  H   H1175     1.0  0.50424  0.80781  0.93884  1.0000
  H   H1176     1.0  0.36485  0.96340  0.99721  1.0000
  H   H1177     1.0  0.01508  0.86510  0.94376  1.0000
  H   H1178     1.0  0.40113  0.75287  0.77149  1.0000
  C   C661      1.0  0.50314  0.81917  0.89678  1.0000
  Fe  Fe75      1.0  0.13531  0.82312  0.00253  1.0000
  C   C662      1.0  0.12627  0.00578  0.80233  1.0000
  H   H1179     1.0  0.31696  0.65811  0.98851  1.0000
  H   H1180     1.0  0.11681  0.99454  0.84246  1.0000
  H   H1181     1.0  0.37627  0.73604  0.99987  1.0000
  C   C663      1.0  0.10701  0.99526  0.82296  1.0000
  C   C664      1.0  0.25906  0.71967  0.98814  1.0000
  H   H1182     1.0  0.30107  0.53512  0.99575  1.0000
  H   H1183     1.0  0.34650  0.68966  0.97259  1.0000
  N   N36       1.0  0.30519  0.69851  0.98029  1.0000
  S   S146      1.0  0.37109  0.50930  0.85060  1.0000
  H   H1184     1.0  0.91457  0.17297  0.18955  1.0000
  H   H1185     1.0  0.52642  0.40888  0.10988  1.0000
  H   H1186     1.0  0.71933  0.09148  0.05008  1.0000
  C   C665      1.0  0.53801  0.48065  0.22058  1.0000
  C   C666      1.0  0.97629  0.11129  0.14241  1.0000
  S   S147      1.0  0.96801  0.10097  0.22534  1.0000
  H   H1187     1.0  0.58883  0.35593  0.21527  1.0000
  C   C667      1.0  0.94755  0.13578  0.10999  1.0000
  S   S148      1.0  0.82163  0.03887  0.07965  1.0000
  H   H1188     1.0  0.94082  0.08322  0.11305  1.0000
  H   H1189     1.0  0.63091  0.33247  0.13913  1.0000
  S   S149      1.0  0.84064  0.03347  0.15530  1.0000
  H   H1190     1.0  0.53018  0.44519  0.24299  1.0000
  S   S150      1.0  0.52388  0.33873  0.16949  1.0000
  C   C668      1.0  0.97141  0.15430  0.10465  1.0000
  H   H1191     1.0  0.93563  0.12048  0.17524  1.0000
  H   H1192     1.0  0.94893  0.18585  0.08558  1.0000
  S   S151      1.0  0.59600  0.26803  0.02438  1.0000
  H   H1193     1.0  0.68108  0.50073  0.01724  1.0000
  C   C669      1.0  0.54450  0.41787  0.11828  1.0000
  H   H1194     1.0  0.77475  0.01018  0.06039  1.0000
  H   H1195     1.0  0.72715  0.13437  0.03402  1.0000
  H   H1196     1.0  0.64415  0.37089  0.16697  1.0000
  H   H1197     1.0  0.98703  0.09700  0.10277  1.0000
  H   H1198     1.0  0.94364  0.17541  0.15017  1.0000
  C   C670      1.0  0.51866  0.43998  0.20256  1.0000
  H   H1199     1.0  0.55980  0.41853  0.10264  1.0000
  C   C671      1.0  0.81497  0.05224  0.02743  1.0000
  C   C672      1.0  0.80537  0.03692  0.04849  1.0000
  Fe  Fe76      1.0  0.82585  0.01435  0.11781  1.0000
  H   H1200     1.0  0.96206  0.16105  0.06332  1.0000
  H   H1201     1.0  0.62686  0.35690  0.19439  1.0000
  H   H1202     1.0  0.83231  0.06428  0.03032  1.0000
  H   H1203     1.0  0.86889  0.07478  0.11295  1.0000
  C   C673      1.0  0.90281  0.09754  0.12573  1.0000
  C   C674      1.0  0.93102  0.03389  0.17703  1.0000
  C   C675      1.0  0.91533  0.05071  0.19234  1.0000
  C   C676      1.0  0.92709  0.07094  0.20715  1.0000
  C   C677      1.0  0.95456  0.07482  0.20659  1.0000
  C   C678      1.0  0.97029  0.05802  0.19123  1.0000
  C   C679      1.0  0.95855  0.03762  0.17654  1.0000
  H   H1204     1.0  0.89415  0.04803  0.19291  1.0000
  H   H1205     1.0  0.99148  0.06064  0.19083  1.0000
  H   H1206     1.0  0.70091  0.41215  0.01616  1.0000
  C   C680      1.0  0.57930  0.29146  0.04426  1.0000
  C   C681      1.0  0.58073  0.31857  0.03917  1.0000
  C   C682      1.0  0.56575  0.33651  0.05430  1.0000
  C   C683      1.0  0.54955  0.32757  0.07490  1.0000
  C   C684      1.0  0.54854  0.30050  0.08036  1.0000
  C   C685      1.0  0.56326  0.28252  0.06498  1.0000
  C   C686      1.0  0.96606  0.17266  0.08136  1.0000
  H   H1207     1.0  0.56669  0.35743  0.05000  1.0000
  H   H1208     1.0  0.75265  0.00989  0.01673  1.0000
  H   H1209     1.0  0.56208  0.26156  0.06906  1.0000
  N   N37       1.0  0.59231  0.39794  0.17562  1.0000
  C   C687      1.0  0.61587  0.41359  0.18482  1.0000
  C   C688      1.0  0.60104  0.37243  0.16250  1.0000
  C   C689      1.0  0.57795  0.41453  0.15535  1.0000
  C   C690      1.0  0.57335  0.39239  0.19775  1.0000
  H   H1210     1.0  0.53616  0.29336  0.09616  1.0000
  C   C691      1.0  0.60977  0.44065  0.19809  1.0000
  C   C692      1.0  0.55419  0.40119  0.14145  1.0000
  H   H1211     1.0  0.94520  0.18964  0.19639  1.0000
  H   H1212     1.0  0.64502  0.44105  0.22277  1.0000
  H   H1213     1.0  0.71291  0.04475  0.06377  1.0000
  H   H1214     1.0  0.98366  0.18520  0.07780  1.0000
  C   C693      1.0  0.93579  0.13358  0.15756  1.0000
  H   H1215     1.0  0.62933  0.41740  0.16790  1.0000
  H   H1216     1.0  0.62785  0.40214  0.19914  1.0000
  H   H1217     1.0  0.58488  0.35756  0.16334  1.0000
  H   H1218     1.0  0.60474  0.37568  0.14111  1.0000
  H   H1219     1.0  0.59208  0.42111  0.13988  1.0000
  H   H1220     1.0  0.56967  0.43280  0.16436  1.0000
  H   H1221     1.0  0.56466  0.41109  0.20527  1.0000
  H   H1222     1.0  0.55623  0.38095  0.19047  1.0000
  C   C694      1.0  0.63025  0.33140  0.16093  1.0000
  H   H1223     1.0  0.96967  0.15874  0.16797  1.0000
  H   H1224     1.0  0.60036  0.45468  0.18413  1.0000
  S   S152      1.0  0.91700  0.00851  0.15773  1.0000
  H   H1225     1.0  0.53742  0.39904  0.15533  1.0000
  H   H1226     1.0  0.55926  0.38133  0.13373  1.0000
  H   H1227     1.0  0.94603  0.12293  0.09231  1.0000
  C   C695      1.0  0.52909  0.45438  0.22380  1.0000
  H   H1228     1.0  0.50906  0.44169  0.16157  1.0000
  H   H1229     1.0  0.53964  0.43826  0.12468  1.0000
  H   H1230     1.0  0.68472  0.17516  0.03204  1.0000
  H   H1231     1.0  0.97640  0.10226  0.16233  1.0000
  H   H1232     1.0  0.89906  0.06678  0.09585  1.0000
  H   H1233     1.0  0.54577  0.49139  0.23721  1.0000
  H   H1234     1.0  0.89405  0.05552  0.12924  1.0000
  H   H1235     1.0  0.64907  0.32248  0.16798  1.0000
  H   H1236     1.0  0.97082  0.02466  0.16477  1.0000
  C   C696      1.0  0.89057  0.07208  0.11528  1.0000
  C   C697      1.0  0.77016  0.02168  0.01956  1.0000
  C   C698      1.0  0.93298  0.09415  0.13036  1.0000
  H   H1237     1.0  0.89861  0.11360  0.11144  1.0000
  H   H1238     1.0  0.76250  0.10516  0.02285  1.0000
  H   H1239     1.0  0.91478  0.08372  0.21910  1.0000
  C   C699      1.0  0.71642  0.08431  0.00730  1.0000
  H   H1240     1.0  0.71904  0.18261  0.03888  1.0000
  H   H1241     1.0  0.59324  0.32563  0.02346  1.0000
  H   H1242     1.0  0.98938  0.14257  0.09986  1.0000
  H   H1243     1.0  0.53377  0.48441  0.10916  1.0000
  C   C700      1.0  0.63507  0.45369  0.20784  1.0000
  C   C701      1.0  0.52586  0.47870  0.17483  1.0000
  S   S153      1.0  0.53034  0.35090  0.09258  1.0000
  C   C702      1.0  0.70677  0.05145  0.04389  1.0000
  C   C703      1.0  0.94805  0.16030  0.16542  1.0000
  H   H1244     1.0  0.94064  0.15614  0.20746  1.0000
  C   C704      1.0  0.78282  0.02159  0.04434  1.0000
  H   H1245     1.0  0.63014  0.47297  0.21714  1.0000
  H   H1246     1.0  0.55838  0.39496  0.25049  1.0000
  H   H1247     1.0  0.70994  0.03488  0.02990  1.0000
  H   H1248     1.0  0.74420  0.06933  0.03722  1.0000
  H   H1249     1.0  0.68542  0.05665  0.04447  1.0000
  C   C705      1.0  0.93630  0.17031  0.19128  1.0000
  C   C706      1.0  0.53622  0.49316  0.19608  1.0000
  H   H1250     1.0  0.98924  0.12872  0.14458  1.0000
  H   H1251     1.0  0.80849  0.12147  0.01587  1.0000
  H   H1252     1.0  0.93541  0.08057  0.14742  1.0000
  H   H1253     1.0  0.91478  0.13837  0.15332  1.0000
  H   H1254     1.0  0.61376  0.31832  0.16698  1.0000
  H   H1255     1.0  0.64887  0.45734  0.19125  1.0000
  N   N38       1.0  0.94849  0.11923  0.13477  1.0000
  C   C707      1.0  0.99011  0.09137  0.12361  1.0000
  H   H1256     1.0  0.52396  0.48818  0.15591  1.0000
  H   H1257     1.0  0.66511  0.41146  0.01409  1.0000
  H   H1258     1.0  0.59660  0.43823  0.21535  1.0000
  H   H1259     1.0  0.97623  0.16680  0.12175  1.0000
  C   C708      1.0  0.51737  0.45228  0.17796  1.0000
  H   H1260     1.0  0.52796  0.30015  0.02278  1.0000
  H   H1261     1.0  0.89265  0.10214  0.14456  1.0000
  H   H1262     1.0  0.92923  0.14812  0.10978  1.0000
  C   C709      1.0  0.62670  0.35897  0.17275  1.0000
  C   C710      1.0  0.55095  0.49332  0.09896  1.0000
  H   H1263     1.0  0.56758  0.47888  0.09930  1.0000
  H   H1264     1.0  0.98188  0.07126  0.12664  1.0000
  C   C711      1.0  0.72314  0.07539  0.03575  1.0000
  S   S154      1.0  0.00326  0.16450  0.21255  1.0000
  H   H1265     1.0  0.71449  0.50148  0.00573  1.0000
  H   H1266     1.0  0.50824  0.27093  0.02313  1.0000
  H   H1267     1.0  0.60217  0.38576  0.22970  1.0000
  H   H1268     1.0  0.74864  0.00783  0.25313  1.0000
  H   H1269     1.0  0.69532  0.12679  0.02208  1.0000
  S   S155      1.0  0.78846  0.00987  0.21261  1.0000
  C   C712      1.0  0.58428  0.37651  0.22135  1.0000
  H   H1270     1.0  0.69449  0.08456  0.00590  1.0000
  C   C713      1.0  0.50804  0.29242  0.01853  1.0000
  C   C714      1.0  0.70398  0.18067  0.02317  1.0000
  C   C715      1.0  0.71559  0.13225  0.01553  1.0000
  H   H1271     1.0  0.54554  0.36496  0.23620  1.0000
  H   H1272     1.0  0.76874  0.15017  0.00874  1.0000
  H   H1273     1.0  0.70159  0.20022  0.01342  1.0000
  C   C716      1.0  0.56372  0.37487  0.24332  1.0000
  H   H1274     1.0  0.54517  0.49735  0.07828  1.0000
  H   H1275     1.0  0.92800  0.23144  0.34144  1.0000
  H   H1276     1.0  0.99649  0.21130  0.37205  1.0000
  H   H1277     1.0  0.00302  0.25421  0.48912  1.0000
  H   H1278     1.0  0.77466  0.29255  0.40210  1.0000
  H   H1279     1.0  0.75726  0.24959  0.49321  1.0000
  C   C717      1.0  0.94482  0.28882  0.36065  1.0000
  S   S156      1.0  0.86626  0.40983  0.46618  1.0000
  S   S157      1.0  0.85866  0.33335  0.45771  1.0000
  C   C718      1.0  0.97072  0.23883  0.33719  1.0000
  Fe  Fe77      1.0  0.89509  0.31807  0.47871  1.0000
  H   H1280     1.0  0.52173  0.12932  0.37315  1.0000
  C   C719      1.0  0.96293  0.29631  0.45469  1.0000
  C   C720      1.0  0.98155  0.30419  0.43561  1.0000
  H   H1281     1.0  0.93711  0.25118  0.37975  1.0000
  H   H1282     1.0  0.76809  0.33869  0.42141  1.0000
  C   C721      1.0  0.98205  0.22493  0.38173  1.0000
  H   H1283     1.0  0.97545  0.31766  0.42021  1.0000
  H   H1284     1.0  0.69026  0.14523  0.48457  1.0000
  N   N39       1.0  0.97705  0.24880  0.36443  1.0000
  H   H1285     1.0  0.80276  0.33617  0.42593  1.0000
  H   H1286     1.0  0.87741  0.38094  0.37984  1.0000
  C   C722      1.0  0.80199  0.46853  0.43995  1.0000
  C   C723      1.0  0.82665  0.46794  0.42760  1.0000
  C   C724      1.0  0.84631  0.45023  0.43632  1.0000
  C   C725      1.0  0.84130  0.43258  0.45704  1.0000
  C   C726      1.0  0.81684  0.43353  0.46977  1.0000
  C   C727      1.0  0.79728  0.45154  0.46128  1.0000
  H   H1287     1.0  0.83059  0.48112  0.41130  1.0000
  H   H1288     1.0  0.86536  0.44991  0.42664  1.0000
  C   C728      1.0  0.78155  0.37362  0.46272  1.0000
  H   H1289     1.0  0.77837  0.45232  0.47117  1.0000
  H   H1290     1.0  0.77005  0.33361  0.37488  1.0000
  C   C729      1.0  0.74917  0.26802  0.50050  1.0000
  C   C730      1.0  0.78862  0.33001  0.38602  1.0000
  H   H1291     1.0  0.79146  0.28994  0.37092  1.0000
  S   S158      1.0  0.92900  0.30570  0.45069  1.0000
  C   C731      1.0  0.76372  0.38517  0.48415  1.0000
  H   H1292     1.0  0.95966  0.27173  0.39600  1.0000
  H   H1293     1.0  0.95921  0.20192  0.29836  1.0000
  C   C732      1.0  0.86407  0.38736  0.39597  1.0000
  C   C733      1.0  0.94172  0.21291  0.30603  1.0000
  H   H1294     1.0  0.78648  0.37809  0.36965  1.0000
  H   H1295     1.0  0.81317  0.42069  0.48634  1.0000
  C   C734      1.0  0.77429  0.38538  0.43540  1.0000
  H   H1296     1.0  0.92425  0.19982  0.30466  1.0000
  C   C735      1.0  0.77724  0.41661  0.38488  1.0000
  H   H1297     1.0  0.65513  0.14283  0.48960  1.0000
  H   H1298     1.0  0.74381  0.41889  0.35789  1.0000
  C   C736      1.0  0.83696  0.37469  0.39258  1.0000
  H   H1299     1.0  0.81904  0.40489  0.41712  1.0000
  C   C737      1.0  0.78737  0.34479  0.41270  1.0000
  H   H1300     1.0  0.82667  0.37513  0.43318  1.0000
  C   C738      1.0  0.51590  0.15210  0.47160  1.0000
  Fe  Fe78      1.0  0.86194  0.36886  0.48395  1.0000
  C   C739      1.0  0.76468  0.42546  0.35900  1.0000
  H   H1301     1.0  0.98785  0.22744  0.32925  1.0000
  H   H1302     1.0  0.76493  0.44740  0.35775  1.0000
  H   H1303     1.0  0.82943  0.38064  0.37301  1.0000
  C   C740      1.0  0.77694  0.38596  0.38763  1.0000
  H   H1304     1.0  0.77132  0.37923  0.50370  1.0000
  C   C741      1.0  0.52459  0.14748  0.49999  1.0000
  H   H1305     1.0  0.79771  0.42431  0.38506  1.0000
  C   C742      1.0  0.81791  0.38313  0.41484  1.0000
  H   H1306     1.0  0.96777  0.25535  0.32315  1.0000
  H   H1307     1.0  0.93813  0.23059  0.29353  1.0000
  C   C743      1.0  0.76469  0.29103  0.49935  1.0000
  H   H1308     1.0  0.80222  0.37826  0.46798  1.0000
  C   C744      1.0  0.97116  0.27866  0.47431  1.0000
  H   H1309     1.0  0.84010  0.35297  0.39320  1.0000
  H   H1310     1.0  0.80527  0.33652  0.37357  1.0000
  S   S159      1.0  0.77656  0.48991  0.42899  1.0000
  H   H1311     1.0  0.92382  0.30711  0.39343  1.0000
  H   H1312     1.0  0.96362  0.21343  0.38458  1.0000
  H   H1313     1.0  0.52973  0.14052  0.45907  1.0000
  H   H1314     1.0  0.75268  0.38240  0.43247  1.0000
  C   C745      1.0  0.99727  0.26851  0.47434  1.0000
  H   H1315     1.0  0.77935  0.35182  0.46330  1.0000
  H   H1316     1.0  0.99060  0.29356  0.33246  1.0000
  H   H1317     1.0  0.81024  0.29547  0.40045  1.0000
  H   H1318     1.0  0.91346  0.31835  0.36150  1.0000
  H   H1319     1.0  0.77591  0.41741  0.34201  1.0000
  N   N40       1.0  0.78954  0.37465  0.41215  1.0000
  H   H1320     1.0  0.94010  0.28394  0.33998  1.0000
  H   H1321     1.0  0.76339  0.40710  0.48330  1.0000
  H   H1322     1.0  0.00237  0.27882  0.38113  1.0000
  H   H1323     1.0  0.75595  0.37952  0.38647  1.0000
  H   H1324     1.0  0.97783  0.24213  0.42144  1.0000
  C   C746      1.0  0.91989  0.30073  0.37294  1.0000
  C   C747      1.0  0.67403  0.13150  0.48979  1.0000
  H   H1325     1.0  0.70635  0.09070  0.50147  1.0000
  H   H1326     1.0  0.87309  0.38125  0.41494  1.0000
  H   H1327     1.0  0.94850  0.20243  0.34609  1.0000
  H   H1328     1.0  0.96017  0.30435  0.36123  1.0000
  C   C748      1.0  0.79141  0.30018  0.39020  1.0000
  C   C749      1.0  0.94608  0.22096  0.33465  1.0000
  H   H1329     1.0  0.86238  0.40927  0.39540  1.0000
  H   H1330     1.0  0.51200  0.16035  0.42235  1.0000
  H   H1331     1.0  0.90356  0.28617  0.37302  1.0000
  H   H1332     1.0  0.76588  0.42634  0.40086  1.0000
  C   C750      1.0  0.99253  0.23073  0.40984  1.0000
  C   C751      1.0  0.95434  0.26426  0.37620  1.0000
  H   H1333     1.0  0.77709  0.40706  0.43717  1.0000
  H   H1334     1.0  0.95708  0.27195  0.48882  1.0000
  S   S160      1.0  0.79688  0.28956  0.48472  1.0000
  H   H1335     1.0  0.52447  0.16499  0.37537  1.0000
  H   H1336     1.0  0.00554  0.21004  0.44484  1.0000
  Fe  Fe79      1.0  0.83375  0.31547  0.49003  1.0000
  S   S161      1.0  0.79803  0.50385  0.35573  1.0000
  S   S162      1.0  0.89887  0.35427  0.50399  1.0000
  H   H1337     1.0  0.51841  0.17334  0.46701  1.0000
  H   H1338     1.0  0.57181  0.36324  0.26003  1.0000
  H   H1339     1.0  0.97986  0.19331  0.42698  1.0000
  H   H1340     1.0  0.67287  0.11558  0.47483  1.0000
  C   C752      1.0  0.51083  0.14838  0.37134  1.0000
  H   H1341     1.0  0.74324  0.37772  0.48195  1.0000
  C   C753      1.0  0.99815  0.20515  0.42488  1.0000
  C   C754      1.0  0.00202  0.26519  0.36397  1.0000
  H   H1342     1.0  0.54496  0.15505  0.50280  1.0000
  H   H1343     1.0  0.63697  0.37016  0.59368  1.0000
  S   S163      1.0  0.52922  0.33001  0.70397  1.0000
  H   H1344     1.0  0.82594  0.32886  0.61418  1.0000
  Fe  Fe80      1.0  0.67151  0.05365  0.64974  1.0000
  S   S164      1.0  0.71499  0.04711  0.64452  1.0000
  S   S165      1.0  0.65760  0.09582  0.65555  1.0000
  H   H1345     1.0  0.80873  0.31098  0.66953  1.0000
  C   C755      1.0  0.72310  0.26866  0.51063  1.0000
  C   C756      1.0  0.56433  0.01150  0.64063  1.0000
  H   H1346     1.0  0.76814  0.38715  0.57240  1.0000
  Fe  Fe81      1.0  0.62584  0.21115  0.55995  1.0000
  S   S166      1.0  0.62131  0.23532  0.52285  1.0000
  S   S167      1.0  0.63364  0.16719  0.55571  1.0000
  Fe  Fe82      1.0  0.61516  0.25834  0.59546  1.0000
  S   S168      1.0  0.60896  0.28513  0.56087  1.0000
  S   S169      1.0  0.61976  0.27422  0.63703  1.0000
  Fe  Fe83      1.0  0.58509  0.25185  0.54322  1.0000
  H   H1347     1.0  0.52542  0.02563  0.65265  1.0000
  Fe  Fe84      1.0  0.64580  0.26610  0.54378  1.0000
  S   S170      1.0  0.67849  0.29517  0.53075  1.0000
  S   S171      1.0  0.58885  0.22643  0.57938  1.0000
  S   S172      1.0  0.65262  0.24048  0.57922  1.0000
  Fe  Fe85      1.0  0.96595  0.44366  0.72414  1.0000
  S   S173      1.0  0.93338  0.44108  0.69431  1.0000
  C   C757      1.0  0.97908  0.27023  0.68234  1.0000
  S   S174      1.0  0.92642  0.37870  0.71211  1.0000
  Fe  Fe86      1.0  0.95150  0.40171  0.68421  1.0000
  S   S175      1.0  0.95918  0.39035  0.64200  1.0000
  S   S176      1.0  0.98569  0.40509  0.71222  1.0000
  H   H1348     1.0  0.76527  0.33249  0.50779  1.0000
  H   H1349     1.0  0.88314  0.43653  0.52692  1.0000
  H   H1350     1.0  0.87736  0.40088  0.61987  1.0000
  H   H1351     1.0  0.80248  0.34310  0.65483  1.0000
  Fe  Fe87      1.0  0.87108  0.33438  0.53212  1.0000
  S   S177      1.0  0.87066  0.33215  0.57661  1.0000
  H   H1352     1.0  0.64109  0.04326  0.54304  1.0000
  C   C758      1.0  0.93439  0.37413  0.62416  1.0000
  C   C759      1.0  0.93663  0.37245  0.59676  1.0000
  C   C760      1.0  0.91705  0.35983  0.58191  1.0000
  C   C761      1.0  0.89538  0.34843  0.59448  1.0000
  C   C762      1.0  0.89335  0.34971  0.62195  1.0000
  C   C763      1.0  0.91271  0.36273  0.63677  1.0000
  H   H1353     1.0  0.95348  0.38108  0.58694  1.0000
  H   H1354     1.0  0.91890  0.35869  0.56077  1.0000
  H   H1355     1.0  0.87670  0.34076  0.63176  1.0000
  H   H1356     1.0  0.91089  0.36387  0.65788  1.0000
  C   C764      1.0  0.71189  0.29251  0.51926  1.0000
  C   C765      1.0  0.72753  0.31546  0.51833  1.0000
  H   H1357     1.0  0.84858  0.44083  0.65620  1.0000
  H   H1358     1.0  0.83596  0.23291  0.56061  1.0000
  C   C766      1.0  0.73577  0.07427  0.54099  1.0000
  H   H1359     1.0  0.68107  0.18528  0.74639  1.0000
  H   H1360     1.0  0.64830  0.33143  0.56669  1.0000
  H   H1361     1.0  0.77586  0.31634  0.62477  1.0000
  H   H1362     1.0  0.73756  0.08655  0.59302  1.0000
  H   H1363     1.0  0.63626  0.10715  0.74220  1.0000
  C   C767      1.0  0.64984  0.11543  0.62791  1.0000
  C   C768      1.0  0.64843  0.14303  0.63056  1.0000
  C   C769      1.0  0.64305  0.15920  0.60865  1.0000
  C   C770      1.0  0.63866  0.14775  0.58407  1.0000
  C   C771      1.0  0.63916  0.12014  0.58167  1.0000
  C   C772      1.0  0.64506  0.10399  0.60342  1.0000
  H   H1364     1.0  0.65189  0.15200  0.64951  1.0000
  H   H1365     1.0  0.64251  0.18048  0.61072  1.0000
  H   H1366     1.0  0.63496  0.11127  0.56284  1.0000
  H   H1367     1.0  0.64564  0.08272  0.60133  1.0000
  C   C773      1.0  0.55436  0.31336  0.68627  1.0000
  C   C774      1.0  0.58040  0.31239  0.69536  1.0000
  C   C775      1.0  0.60011  0.29972  0.68034  1.0000
  C   C776      1.0  0.59403  0.28825  0.65599  1.0000
  C   C777      1.0  0.56796  0.28888  0.64709  1.0000
  C   C778      1.0  0.54817  0.30129  0.66224  1.0000
  H   H1368     1.0  0.58535  0.32141  0.71395  1.0000
  H   H1369     1.0  0.62022  0.29905  0.68749  1.0000
  H   H1370     1.0  0.56319  0.27961  0.62865  1.0000
  C   C779      1.0  0.79141  0.32167  0.57269  1.0000
  H   H1371     1.0  0.53505  0.38737  0.66896  1.0000
  C   C780      1.0  0.54847  0.37885  0.65386  1.0000
  H   H1372     1.0  0.53815  0.20133  0.60104  1.0000
  C   C781      1.0  0.85230  0.44251  0.75318  1.0000
  H   H1373     1.0  0.94626  0.48249  0.64101  1.0000
  N   N41       1.0  0.71033  0.08975  0.54387  1.0000
  H   H1374     1.0  0.51449  0.26751  0.62320  1.0000
  C   C782      1.0  0.83758  0.25124  0.54869  1.0000
  H   H1375     1.0  0.67835  0.13650  0.53119  1.0000
  C   C783      1.0  0.98002  0.31660  0.66569  1.0000
  C   C784      1.0  0.72200  0.12022  0.61352  1.0000
  H   H1376     1.0  0.83332  0.29741  0.62891  1.0000
  C   C785      1.0  0.81353  0.26913  0.55314  1.0000
  Fe  Fe88      1.0  0.54025  0.35553  0.73890  1.0000
  H   H1377     1.0  0.81244  0.32667  0.56862  1.0000
  H   H1378     1.0  0.90347  0.45988  0.64200  1.0000
  H   H1379     1.0  0.69278  0.12000  0.56841  1.0000
  H   H1380     1.0  0.52891  0.33969  0.56474  1.0000
  H   H1381     1.0  0.86124  0.47291  0.62999  1.0000
  H   H1382     1.0  0.54503  0.22869  0.62260  1.0000
  H   H1383     1.0  0.69428  0.05770  0.56695  1.0000
  N   N42       1.0  0.78959  0.29689  0.58920  1.0000
  C   C786      1.0  0.77629  0.36886  0.56338  1.0000
  N   N43       1.0  0.96468  0.29112  0.66636  1.0000
  H   H1384     1.0  0.79113  0.35504  0.60031  1.0000
  C   C787      1.0  0.86544  0.42501  0.56438  1.0000
  S   S178      1.0  0.98958  0.48177  0.73170  1.0000
  H   H1385     1.0  0.90241  0.41510  0.58318  1.0000
  H   H1386     1.0  0.96063  0.50312  0.68591  1.0000
  S   S179      1.0  0.54571  0.26096  0.52201  1.0000
  S   S180      1.0  0.86686  0.42001  0.73092  1.0000
  C   C788      1.0  0.65317  0.33148  0.58795  1.0000
  H   H1387     1.0  0.94059  0.43996  0.59811  1.0000
  H   H1388     1.0  0.52803  0.30180  0.65533  1.0000
  H   H1389     1.0  0.75878  0.34380  0.59230  1.0000
  C   C789      1.0  0.77871  0.34721  0.58419  1.0000
  H   H1390     1.0  0.73352  0.31191  0.57685  1.0000
  H   H1391     1.0  0.78278  0.31806  0.55297  1.0000
  C   C790      1.0  0.71502  0.27630  0.58983  1.0000
  H   H1392     1.0  0.69601  0.28692  0.59300  1.0000
  H   H1393     1.0  0.52626  0.31240  0.60514  1.0000
  H   H1394     1.0  0.81499  0.42221  0.75351  1.0000
  C   C791      1.0  0.81609  0.32578  0.65517  1.0000
  H   H1395     1.0  0.73345  0.11005  0.73940  1.0000
  H   H1396     1.0  0.65405  0.01877  0.52061  1.0000
  H   H1397     1.0  0.70904  0.19415  0.72636  1.0000
  H   H1398     1.0  0.92297  0.30302  0.62832  1.0000
  H   H1399     1.0  0.79594  0.37344  0.55485  1.0000
  H   H1400     1.0  0.72521  0.11147  0.63329  1.0000
  H   H1401     1.0  0.67543  0.36762  0.67392  1.0000
  H   H1402     1.0  0.96030  0.44946  0.64173  1.0000
  C   C792      1.0  0.51059  0.21877  0.52899  1.0000
  H   H1403     1.0  0.73838  0.06023  0.55764  1.0000
  H   H1404     1.0  0.91376  0.31302  0.74191  1.0000
  H   H1405     1.0  0.76231  0.27810  0.56225  1.0000
  H   H1406     1.0  0.85568  0.40693  0.57195  1.0000
  C   C793      1.0  0.95893  0.28085  0.63911  1.0000
  C   C794      1.0  0.79149  0.30238  0.61829  1.0000
  C   C795      1.0  0.63440  0.35026  0.60239  1.0000
  H   H1407     1.0  0.71710  0.26087  0.60526  1.0000
  C   C796      1.0  0.81230  0.27865  0.58209  1.0000
  C   C797      1.0  0.73910  0.02551  0.74580  1.0000
  C   C798      1.0  0.99823  0.25125  0.66756  1.0000
  H   H1408     1.0  0.54247  0.28539  0.58863  1.0000
  H   H1409     1.0  0.90087  0.32295  0.71037  1.0000
  C   C799      1.0  0.94033  0.28764  0.59325  1.0000
  H   H1410     1.0  0.52614  0.20899  0.53996  1.0000
  H   H1411     1.0  0.54602  0.39023  0.63534  1.0000
  H   H1412     1.0  0.89383  0.49861  0.60636  1.0000
  H   H1413     1.0  0.88252  0.48648  0.57484  1.0000
  C   C800      1.0  0.51294  0.23562  0.59474  1.0000
  H   H1414     1.0  0.73797  0.30400  0.61124  1.0000
  C   C801      1.0  0.64282  0.08622  0.74123  1.0000
  C   C802      1.0  0.78561  0.07277  0.53588  1.0000
  H   H1415     1.0  0.81221  0.26078  0.59496  1.0000
  H   H1416     1.0  0.62921  0.05055  0.72137  1.0000
  H   H1417     1.0  0.90059  0.44771  0.57116  1.0000
  H   H1418     1.0  0.00514  0.32524  0.73582  1.0000
  Fe  Fe89      1.0  0.91122  0.41839  0.72517  1.0000
  H   H1419     1.0  0.66161  0.33565  0.67978  1.0000
  C   C803      1.0  0.65921  0.03241  0.53686  1.0000
  H   H1420     1.0  0.91419  0.42739  0.63448  1.0000
  H   H1421     1.0  0.94765  0.26203  0.64057  1.0000
  H   H1422     1.0  0.83866  0.24562  0.52761  1.0000
  H   H1423     1.0  0.72624  0.12555  0.56094  1.0000
  C   C804      1.0  0.68852  0.07054  0.55008  1.0000
  H   H1424     1.0  0.69744  0.04007  0.52035  1.0000
  H   H1425     1.0  0.61822  0.35191  0.68622  1.0000
  H   H1426     1.0  0.92866  0.30125  0.58056  1.0000
  S   S181      1.0  0.83437  0.35234  0.51449  1.0000
  S   S182      1.0  0.74225  0.02132  0.71112  1.0000
  S   S183      1.0  0.66034  0.02286  0.61991  1.0000
  H   H1427     1.0  0.76495  0.26243  0.59350  1.0000
  H   H1428     1.0  0.73918  0.13281  0.60850  1.0000
  C   C805      1.0  0.90743  0.44625  0.62525  1.0000
  H   H1429     1.0  0.96793  0.33281  0.65688  1.0000
  S   S184      1.0  0.55570  0.39643  0.73169  1.0000
  H   H1430     1.0  0.95021  0.32299  0.71222  1.0000
  H   H1431     1.0  0.85753  0.41215  0.52457  1.0000
  H   H1432     1.0  0.52629  0.01958  0.59796  1.0000
  H   H1433     1.0  0.71422  0.26656  0.57032  1.0000
  C   C806      1.0  0.57695  0.03702  0.65043  1.0000
  H   H1434     1.0  0.57947  0.03643  0.67210  1.0000
  H   H1435     1.0  0.83582  0.33260  0.66172  1.0000
  H   H1436     1.0  0.92984  0.26844  0.59425  1.0000
  H   H1437     1.0  0.67197  0.06291  0.51067  1.0000
  H   H1438     1.0  0.60331  0.07294  0.73145  1.0000
  C   C807      1.0  0.87661  0.49096  0.59533  1.0000
  H   H1439     1.0  0.95333  0.31883  0.61837  1.0000
  C   C808      1.0  0.72074  0.09331  0.70235  1.0000
  C   C809      1.0  0.93207  0.45635  0.61005  1.0000
  C   C810      1.0  0.94320  0.29960  0.62066  1.0000
  H   H1440     1.0  0.77953  0.03785  0.75021  1.0000
  H   H1441     1.0  0.85909  0.38118  0.66182  1.0000
  C   C811      1.0  0.74958  0.09390  0.69345  1.0000
  H   H1442     1.0  0.59678  0.03936  0.64133  1.0000
  Fe  Fe90      1.0  0.71124  0.01861  0.67836  1.0000
  H   H1443     1.0  0.68510  0.44033  0.62991  1.0000
  H   H1444     1.0  0.85609  0.26161  0.55401  1.0000
  H   H1445     1.0  0.56098  0.32766  0.57478  1.0000
  C   C812      1.0  0.68276  0.13083  0.73526  1.0000
  H   H1446     1.0  0.67093  0.08604  0.70956  1.0000
  C   C813      1.0  0.52903  0.21748  0.61278  1.0000
  H   H1447     1.0  0.67052  0.08116  0.55682  1.0000
  H   H1448     1.0  0.76446  0.10305  0.55646  1.0000
  H   H1449     1.0  0.97737  0.27563  0.62850  1.0000
  H   H1450     1.0  0.71238  0.07410  0.69609  1.0000
  H   H1451     1.0  0.70974  0.10925  0.69199  1.0000
  H   H1452     1.0  0.73503  0.06150  0.52323  1.0000
  H   H1453     1.0  0.99029  0.27969  0.69850  1.0000
  C   C814      1.0  0.99766  0.31024  0.74898  1.0000
  C   C815      1.0  0.86691  0.42005  0.62258  1.0000
  H   H1454     1.0  0.66572  0.38135  0.71930  1.0000
  H   H1455     1.0  0.70389  0.13272  0.61433  1.0000
  H   H1456     1.0  0.95004  0.28860  0.72102  1.0000
  C   C816      1.0  0.93976  0.30404  0.70930  1.0000
  C   C817      1.0  0.86531  0.46644  0.60950  1.0000
  H   H1457     1.0  0.62343  0.08085  0.70335  1.0000
  H   H1458     1.0  0.75851  0.11337  0.69790  1.0000
  H   H1459     1.0  0.76112  0.07803  0.70341  1.0000
  H   H1460     1.0  0.75070  0.09053  0.67194  1.0000
  C   C818      1.0  0.67178  0.08374  0.73127  1.0000
  H   H1461     1.0  0.67849  0.06299  0.73482  1.0000
  H   H1462     1.0  0.84730  0.41775  0.61304  1.0000
  C   C819      1.0  0.76433  0.28213  0.58363  1.0000
  H   H1463     1.0  0.65188  0.44932  0.63922  1.0000
  C   C820      1.0  0.73791  0.29583  0.59111  1.0000
  H   H1464     1.0  0.79601  0.25737  0.54763  1.0000
  H   H1465     1.0  0.68444  0.35091  0.71899  1.0000
  H   H1466     1.0  0.76267  0.36253  0.54756  1.0000
  H   H1467     1.0  0.88966  0.40267  0.53667  1.0000
  H   H1468     1.0  0.70276  0.08516  0.60031  1.0000
  H   H1469     1.0  0.81507  0.28629  0.53964  1.0000
  S   S185      1.0  0.66813  0.02655  0.68475  1.0000
  H   H1470     1.0  0.67400  0.33786  0.59012  1.0000
  H   H1471     1.0  0.65117  0.31100  0.59561  1.0000
  H   H1472     1.0  0.93243  0.09672  0.74740  1.0000
  H   H1473     1.0  0.54443  0.31246  0.54748  1.0000
  C   C821      1.0  0.93849  0.29676  0.67962  1.0000
  H   H1474     1.0  0.71141  0.25083  0.51106  1.0000
  H   H1475     1.0  0.96473  0.25680  0.69222  1.0000
  H   H1476     1.0  0.92523  0.27935  0.67768  1.0000
  H   H1477     1.0  0.00561  0.30767  0.63151  1.0000
  C   C822      1.0  0.86113  0.42319  0.65241  1.0000
  H   H1478     1.0  0.67351  0.39318  0.62968  1.0000
  H   H1479     1.0  0.92813  0.31360  0.66987  1.0000
  H   H1480     1.0  0.66723  0.40830  0.66139  1.0000
  H   H1481     1.0  0.57779  0.37076  0.68313  1.0000
  H   H1482     1.0  0.66666  0.02045  0.55366  1.0000
  H   H1483     1.0  0.78778  0.28392  0.62967  1.0000
  Fe  Fe91      1.0  0.95915  0.38419  0.74124  1.0000
  C   C823      1.0  0.87462  0.41875  0.53648  1.0000
  H   H1484     1.0  0.84076  0.40233  0.68370  1.0000
  C   C824      1.0  0.81836  0.31356  0.62780  1.0000
  H   H1485     1.0  0.58191  0.40143  0.66599  1.0000
  C   C825      1.0  0.71890  0.09815  0.59332  1.0000
  H   H1486     1.0  0.61394  0.34346  0.59855  1.0000
  H   H1487     1.0  0.71917  0.33406  0.52485  1.0000
  H   H1488     1.0  0.83154  0.28855  0.58556  1.0000
  H   H1489     1.0  0.80366  0.08496  0.53379  1.0000
  C   C826      1.0  0.91210  0.30726  0.72093  1.0000
  H   H1490     1.0  0.90112  0.28836  0.71981  1.0000
  H   H1491     1.0  0.54264  0.35802  0.65046  1.0000
  H   H1492     1.0  0.65827  0.43432  0.60750  1.0000
  N   N44       1.0  0.62536  0.37056  0.64846  1.0000
  C   C827      1.0  0.64016  0.35026  0.63230  1.0000
  C   C828      1.0  0.63150  0.36693  0.67738  1.0000
  C   C829      1.0  0.59617  0.36594  0.64424  1.0000
  C   C830      1.0  0.63128  0.39847  0.63981  1.0000
  C   C831      1.0  0.66054  0.40699  0.64069  1.0000
  C   C832      1.0  0.57702  0.38029  0.66349  1.0000
  C   C833      1.0  0.65972  0.35702  0.68462  1.0000
  C   C834      1.0  0.88911  0.43271  0.58208  1.0000
  C   C835      1.0  0.66404  0.43442  0.62856  1.0000
  C   C836      1.0  0.84633  0.39908  0.66286  1.0000
  H   H1493     1.0  0.63566  0.33004  0.63976  1.0000
  H   H1494     1.0  0.66181  0.35224  0.63450  1.0000
  H   H1495     1.0  0.62724  0.38550  0.68845  1.0000
  H   H1496     1.0  0.56461  0.05443  0.64499  1.0000
  H   H1497     1.0  0.59165  0.34446  0.64568  1.0000
  H   H1498     1.0  0.59033  0.37186  0.62397  1.0000
  H   H1499     1.0  0.62361  0.40219  0.61967  1.0000
  H   H1500     1.0  0.62049  0.41291  0.65235  1.0000
  C   C837      1.0  0.76140  0.09077  0.53871  1.0000
  N   N45       1.0  0.88241  0.44189  0.60956  1.0000
  C   C838      1.0  0.69295  0.17954  0.72890  1.0000
  C   C839      1.0  0.71202  0.10960  0.56587  1.0000
  H   H1501     1.0  0.00110  0.22316  0.70016  1.0000
  C   C840      1.0  0.51520  0.24369  0.51795  1.0000
  H   H1502     1.0  0.96001  0.28465  0.58399  1.0000
  H   H1503     1.0  0.97091  0.47276  0.61728  1.0000
  H   H1504     1.0  0.85069  0.44125  0.56310  1.0000
  C   C841      1.0  0.66511  0.36008  0.71393  1.0000
  H   H1505     1.0  0.67234  0.13079  0.71594  1.0000
  H   H1506     1.0  0.64944  0.35024  0.72556  1.0000
  H   H1507     1.0  0.66136  0.10696  0.52161  1.0000
  H   H1508     1.0  0.98674  0.23748  0.65506  1.0000
  H   H1509     1.0  0.56306  0.01257  0.61900  1.0000
  C   C842      1.0  0.95361  0.46583  0.62876  1.0000
  H   H1510     1.0  0.68017  0.18024  0.71116  1.0000
  C   C843      1.0  0.62360  0.07170  0.72322  1.0000
  H   H1511     1.0  0.92734  0.47284  0.59657  1.0000
  C   C844      1.0  0.54140  0.32170  0.56703  1.0000
  C   C845      1.0  0.68033  0.05175  0.52752  1.0000
  H   H1512     1.0  0.77225  0.01362  0.54619  1.0000
  H   H1513     1.0  0.71797  0.15236  0.74981  1.0000
  C   C846      1.0  0.75372  0.31469  0.50864  1.0000
  C   C847      1.0  0.52854  0.30221  0.58604  1.0000
  H   H1514     1.0  0.84554  0.46215  0.60106  1.0000
  H   H1515     1.0  0.82795  0.39572  0.65149  1.0000
  H   H1516     1.0  0.87955  0.42506  0.66404  1.0000
  C   C848      1.0  0.70507  0.10440  0.51855  1.0000
  C   C849      1.0  0.71834  0.09587  0.73264  1.0000
  H   H1517     1.0  0.76077  0.10388  0.52125  1.0000
  H   H1518     1.0  0.52645  0.24367  0.57961  1.0000
  H   H1519     1.0  0.78787  0.06002  0.55354  1.0000
  H   H1520     1.0  0.78380  0.06006  0.51818  1.0000
  H   H1521     1.0  0.98425  0.32347  0.68598  1.0000
  H   H1522     1.0  0.00644  0.35599  0.63635  1.0000
  H   H1523     1.0  0.72067  0.11936  0.51499  1.0000
  C   C850      1.0  0.67844  0.11978  0.51712  1.0000
  H   H1524     1.0  0.51616  0.20842  0.62797  1.0000
  S   S186      1.0  0.86982  0.29676  0.50861  1.0000
  C   C851      1.0  0.70479  0.15190  0.73252  1.0000
  N   N46       1.0  0.69122  0.10308  0.74283  1.0000
  H   H1525     1.0  0.66792  0.13848  0.74958  1.0000
  H   H1526     1.0  0.71722  0.14774  0.71502  1.0000
  Fe  Fe92      1.0  0.70390  0.01398  0.61705  1.0000
  H   H1527     1.0  0.69839  0.01427  0.74827  1.0000
  C   C852      1.0  0.00711  0.31572  0.65167  1.0000
  H   H1528     1.0  0.72484  0.07662  0.74107  1.0000
  H   H1529     1.0  0.51132  0.15800  0.51383  1.0000
  S   S187      1.0  0.72691  0.00861  0.57832  1.0000
  H   H1530     1.0  0.52451  0.12604  0.50476  1.0000
  H   H1531     1.0  0.83859  0.50712  0.58267  1.0000
  H   H1532     1.0  0.60622  0.00887  0.75008  1.0000
  H   H1533     1.0  0.52774  0.47999  0.84656  1.0000
  H   H1534     1.0  0.89223  0.39487  0.77590  1.0000
  H   H1535     1.0  0.68028  0.49889  0.91523  1.0000
  Fe  Fe93      1.0  0.54111  0.36243  0.79848  1.0000
  S   S188      1.0  0.53221  0.35004  0.84018  1.0000
  S   S189      1.0  0.55711  0.40348  0.79561  1.0000
  Fe  Fe94      1.0  0.77714  0.48741  0.83584  1.0000
  C   C853      1.0  0.68339  0.45581  0.98664  1.0000
  C   C854      1.0  0.56068  0.35879  0.97594  1.0000
  H   H1536     1.0  0.65313  0.31148  0.75830  1.0000
  S   S190      1.0  0.71724  0.47449  0.88137  1.0000
  C   C855      1.0  0.71269  0.16012  0.00291  1.0000
  Fe  Fe95      1.0  0.74995  0.44676  0.87033  1.0000
  S   S191      1.0  0.75368  0.40521  0.88620  1.0000
  S   S192      1.0  0.74802  0.45524  0.82703  1.0000
  Fe  Fe96      1.0  0.62640  0.27400  0.93074  1.0000
  S   S193      1.0  0.66775  0.28953  0.92880  1.0000
  S   S194      1.0  0.60516  0.26301  0.89334  1.0000
  Fe  Fe97      1.0  0.65340  0.31930  0.95805  1.0000
  S   S195      1.0  0.65556  0.36306  0.95022  1.0000
  Fe  Fe98      1.0  0.67564  0.26337  0.96365  1.0000
  S   S196      1.0  0.71321  0.23870  0.96811  1.0000
  S   S197      1.0  0.61157  0.30543  0.95781  1.0000
  S   S198      1.0  0.63530  0.24529  0.96328  1.0000
  C   C856      1.0  0.99895  0.26434  0.76522  1.0000
  H   H1537     1.0  0.62371  0.32870  0.82265  1.0000
  C   C857      1.0  0.70219  0.36700  0.83340  1.0000
  H   H1538     1.0  0.67306  0.38494  0.85787  1.0000
  C   C858      1.0  0.63448  0.35579  0.86429  1.0000
  Fe  Fe99      1.0  0.96538  0.16034  0.81646  1.0000
  S   S199      1.0  0.97992  0.16049  0.77470  1.0000
  S   S200      1.0  0.92064  0.16053  0.82008  1.0000
  H   H1539     1.0  0.65483  0.46512  0.89042  1.0000
  H   H1540     1.0  0.94494  0.46783  0.81339  1.0000
  C   C859      1.0  0.69188  0.11074  0.96229  1.0000
  H   H1541     1.0  0.93904  0.05212  0.76720  1.0000
  Fe  Fe100     1.0  0.76112  0.10763  0.89448  1.0000
  S   S201      1.0  0.73736  0.07103  0.90163  1.0000
  S   S202      1.0  0.73969  0.14660  0.88714  1.0000
  Fe  Fe101     1.0  0.81186  0.07587  0.88907  1.0000
  S   S203      1.0  0.79126  0.03685  0.89478  1.0000
  S   S204      1.0  0.85663  0.07638  0.88675  1.0000
  Fe  Fe102     1.0  0.75994  0.05351  0.86748  1.0000
  S   S205      1.0  0.73412  0.03293  0.83641  1.0000
  Fe  Fe103     1.0  0.77063  0.05764  0.92829  1.0000
  S   S206      1.0  0.76215  0.03735  0.96804  1.0000
  S   S207      1.0  0.78245  0.09069  0.85937  1.0000
  S   S208      1.0  0.79242  0.09593  0.92367  1.0000
  C   C860      1.0  0.90348  0.13633  0.83813  1.0000
  C   C861      1.0  0.87650  0.13262  0.83321  1.0000
  C   C862      1.0  0.86178  0.11447  0.84811  1.0000
  C   C863      1.0  0.87410  0.09982  0.86799  1.0000
  C   C864      1.0  0.90124  0.10315  0.87254  1.0000
  C   C865      1.0  0.91589  0.12143  0.85772  1.0000
  H   H1542     1.0  0.86710  0.14364  0.81755  1.0000
  H   H1543     1.0  0.84106  0.11150  0.84400  1.0000
  H   H1544     1.0  0.91091  0.09173  0.88779  1.0000
  H   H1545     1.0  0.93662  0.12439  0.86174  1.0000
  H   H1546     1.0  0.69882  0.11566  0.92024  1.0000
  C   C866      1.0  0.98649  0.25802  0.86597  1.0000
  H   H1547     1.0  0.54312  0.24868  0.93549  1.0000
  H   H1548     1.0  0.52019  0.34790  0.97155  1.0000
  H   H1549     1.0  0.85742  0.04629  0.79758  1.0000
  H   H1550     1.0  0.73051  0.11495  0.78158  1.0000
  H   H1551     1.0  0.97759  0.02096  0.80213  1.0000
  H   H1552     1.0  0.64432  0.35984  0.88348  1.0000
  H   H1553     1.0  0.85993  0.38556  0.78734  1.0000
  H   H1554     1.0  0.78063  0.25827  0.89279  1.0000
  H   H1555     1.0  0.90319  0.03269  0.78642  1.0000
  H   H1556     1.0  0.54213  0.39625  0.90575  1.0000
  H   H1557     1.0  0.76520  0.09224  0.99043  1.0000
  H   H1558     1.0  0.68802  0.14534  0.93708  1.0000
  C   C867      1.0  0.73642  0.03145  0.80141  1.0000
  C   C868      1.0  0.75977  0.03719  0.78788  1.0000
  C   C869      1.0  0.70975  0.10827  0.81751  1.0000
  C   C870      1.0  0.77307  0.13403  0.99462  1.0000
  C   C871      1.0  0.71426  0.02324  0.78683  1.0000
  H   H1559     1.0  0.97369  0.05580  0.88228  1.0000
  H   H1560     1.0  0.97265  0.26926  0.87877  1.0000
  C   C872      1.0  0.72025  0.21294  0.94567  1.0000
  C   C873      1.0  0.74275  0.19692  0.94947  1.0000
  C   C874      1.0  0.74876  0.17618  0.93196  1.0000
  C   C875      1.0  0.73244  0.17155  0.91035  1.0000
  C   C876      1.0  0.71037  0.18800  0.90618  1.0000
  C   C877      1.0  0.70410  0.20841  0.92391  1.0000
  H   H1561     1.0  0.91259  0.45800  0.84890  1.0000
  H   H1562     1.0  0.76626  0.16419  0.93477  1.0000
  H   H1563     1.0  0.69782  0.18475  0.88931  1.0000
  H   H1564     1.0  0.68685  0.22075  0.92066  1.0000
  C   C878      1.0  0.72564  0.39245  0.90217  1.0000
  C   C879      1.0  0.72746  0.36826  0.91557  1.0000
  C   C880      1.0  0.70568  0.35848  0.92962  1.0000
  C   C881      1.0  0.68211  0.37301  0.93043  1.0000
  C   C882      1.0  0.67995  0.39661  0.91617  1.0000
  C   C883      1.0  0.70161  0.40624  0.90199  1.0000
  H   H1565     1.0  0.74593  0.35736  0.91559  1.0000
  H   H1566     1.0  0.70743  0.34018  0.94055  1.0000
  H   H1567     1.0  0.66149  0.40747  0.91617  1.0000
  H   H1568     1.0  0.69958  0.42420  0.89081  1.0000
  C   C884      1.0  0.82860  0.47665  0.79030  1.0000
  C   C885      1.0  0.81431  0.45555  0.77992  1.0000
  H   H1569     1.0  0.68715  0.08935  0.96077  1.0000
  H   H1570     1.0  0.94086  0.03555  0.85013  1.0000
  H   H1571     1.0  0.76577  0.47637  0.93507  1.0000
  C   C886      1.0  0.85454  0.48098  0.78155  1.0000
  H   H1572     1.0  0.79417  0.45232  0.78621  1.0000
  C   C887      1.0  0.67061  0.32544  0.85443  1.0000
  C   C888      1.0  0.73842  0.47173  0.96783  1.0000
  C   C889      1.0  0.88597  0.35327  0.77868  1.0000
  C   C890      1.0  0.66275  0.46424  0.80603  1.0000
  C   C891      1.0  0.63523  0.46155  0.80441  1.0000
  C   C892      1.0  0.62413  0.43994  0.79114  1.0000
  S   S209      1.0  0.98995  0.19533  0.82870  1.0000
  H   H1573     1.0  0.62498  0.47546  0.90734  1.0000
  C   C893      1.0  0.67908  0.44541  0.79403  1.0000
  H   H1574     1.0  0.62249  0.47622  0.81340  1.0000
  H   H1575     1.0  0.60293  0.43815  0.78984  1.0000
  H   H1576     1.0  0.69610  0.01877  0.79708  1.0000
  H   H1577     1.0  0.70027  0.44768  0.79465  1.0000
  C   C894      1.0  0.55407  0.32687  0.85426  1.0000
  C   C895      1.0  0.55781  0.32694  0.88152  1.0000
  C   C896      1.0  0.57429  0.30801  0.89343  1.0000
  C   C897      1.0  0.58631  0.28826  0.87834  1.0000
  C   C898      1.0  0.58258  0.28818  0.85104  1.0000
  C   C899      1.0  0.56686  0.30773  0.83895  1.0000
  H   H1578     1.0  0.54802  0.34174  0.89343  1.0000
  H   H1579     1.0  0.57715  0.30824  0.91433  1.0000
  H   H1580     1.0  0.59174  0.27287  0.83925  1.0000
  H   H1581     1.0  0.91103  0.08616  0.78917  1.0000
  C   C900      1.0  0.61630  0.37968  0.85732  1.0000
  C   C901      1.0  0.60070  0.38901  0.88132  1.0000
  H   H1582     1.0  0.62096  0.33893  0.86808  1.0000
  H   H1583     1.0  0.60185  0.37384  0.84198  1.0000
  H   H1584     1.0  0.62765  0.39678  0.84978  1.0000
  H   H1585     1.0  0.58697  0.40520  0.87549  1.0000
  H   H1586     1.0  0.58897  0.37255  0.88966  1.0000
  H   H1587     1.0  0.61431  0.39654  0.89665  1.0000
  N   N47       1.0  0.82012  0.18892  0.86865  1.0000
  C   C902      1.0  0.84647  0.20266  0.86641  1.0000
  C   C903      1.0  0.82207  0.16588  0.88774  1.0000
  C   C904      1.0  0.81356  0.17813  0.84180  1.0000
  C   C905      1.0  0.79814  0.20755  0.87659  1.0000
  C   C906      1.0  0.80138  0.22175  0.90323  1.0000
  C   C907      1.0  0.84812  0.22602  0.84670  1.0000
  C   C908      1.0  0.78815  0.16129  0.83992  1.0000
  C   C909      1.0  0.84193  0.16854  0.91088  1.0000
  C   C910      1.0  0.83905  0.14603  0.93063  1.0000
  H   H1588     1.0  0.72821  0.13332  0.96236  1.0000
  C   C911      1.0  0.87544  0.23874  0.84751  1.0000
  C   C912      1.0  0.78650  0.14715  0.81346  1.0000
  H   H1589     1.0  0.86202  0.18798  0.86065  1.0000
  H   H1590     1.0  0.85289  0.21064  0.88561  1.0000
  H   H1591     1.0  0.80226  0.16125  0.89613  1.0000
  H   H1592     1.0  0.82834  0.14750  0.87738  1.0000
  H   H1593     1.0  0.83037  0.16597  0.83440  1.0000
  H   H1594     1.0  0.81067  0.19436  0.82734  1.0000
  H   H1595     1.0  0.79462  0.22266  0.86106  1.0000
  H   H1596     1.0  0.77915  0.19664  0.87819  1.0000
  H   H1597     1.0  0.82040  0.23237  0.90447  1.0000
  H   H1598     1.0  0.80005  0.20719  0.91950  1.0000
  H   H1599     1.0  0.84510  0.21924  0.82622  1.0000
  H   H1600     1.0  0.83328  0.24154  0.85142  1.0000
  H   H1601     1.0  0.77029  0.17402  0.84184  1.0000
  H   H1602     1.0  0.78751  0.14609  0.85547  1.0000
  H   H1603     1.0  0.86253  0.16768  0.90328  1.0000
  H   H1604     1.0  0.83928  0.18736  0.92165  1.0000
  H   H1605     1.0  0.62822  0.33589  0.76586  1.0000
  H   H1606     1.0  0.54305  0.26316  0.99422  1.0000
  H   H1607     1.0  0.85365  0.14839  0.94670  1.0000
  H   H1608     1.0  0.66768  0.42095  0.96634  1.0000
  H   H1609     1.0  0.95612  0.01259  0.75995  1.0000
  H   H1610     1.0  0.69759  0.16006  0.98713  1.0000
  H   H1611     1.0  0.89101  0.22398  0.84238  1.0000
  H   H1612     1.0  0.87635  0.25517  0.83304  1.0000
  H   H1613     1.0  0.87954  0.24686  0.86735  1.0000
  H   H1614     1.0  0.76801  0.13550  0.81263  1.0000
  H   H1615     1.0  0.78637  0.16167  0.79707  1.0000
  H   H1616     1.0  0.80346  0.13330  0.81100  1.0000
  N   N48       1.0  0.88716  0.41076  0.83025  1.0000
  C   C913      1.0  0.89426  0.40878  0.85894  1.0000
  C   C914      1.0  0.85876  0.41979  0.82810  1.0000
  Fe  Fe104     1.0  0.71721  0.48529  0.83875  1.0000
  C   C915      1.0  0.90436  0.43047  0.81614  1.0000
  C   C916      1.0  0.90558  0.45856  0.82829  1.0000
  C   C917      1.0  0.92381  0.40308  0.86503  1.0000
  H   H1617     1.0  0.68723  0.32014  0.84126  1.0000
  C   C918      1.0  0.83780  0.40056  0.83933  1.0000
  C   C919      1.0  0.80981  0.41055  0.83377  1.0000
  C   C920      1.0  0.97938  0.07005  0.86667  1.0000
  C   C921      1.0  0.92866  0.40221  0.89465  1.0000
  C   C922      1.0  0.92457  0.47613  0.81286  1.0000
  H   H1618     1.0  0.88290  0.39262  0.86846  1.0000
  H   H1619     1.0  0.88816  0.42707  0.86958  1.0000
  H   H1620     1.0  0.85573  0.43886  0.83858  1.0000
  H   H1621     1.0  0.85368  0.42428  0.80736  1.0000
  H   H1622     1.0  0.50973  0.47899  0.81582  1.0000
  S   S210      1.0  0.81491  0.49783  0.81433  1.0000
  H   H1623     1.0  0.92492  0.42276  0.81413  1.0000
  H   H1624     1.0  0.89737  0.43321  0.79564  1.0000
  H   H1625     1.0  0.92484  0.49622  0.82162  1.0000
  H   H1626     1.0  0.88587  0.46825  0.82794  1.0000
  H   H1627     1.0  0.93002  0.38369  0.85685  1.0000
  H   H1628     1.0  0.93682  0.41855  0.85672  1.0000
  H   H1629     1.0  0.71733  0.08772  0.81969  1.0000
  C   C923      1.0  0.66543  0.47029  0.94458  1.0000
  H   H1630     1.0  0.83957  0.38058  0.83058  1.0000
  H   H1631     1.0  0.83987  0.39879  0.86097  1.0000
  H   H1632     1.0  0.79524  0.39750  0.84357  1.0000
  H   H1633     1.0  0.80699  0.43097  0.84135  1.0000
  H   H1634     1.0  0.80580  0.41030  0.81234  1.0000
  H   H1635     1.0  0.71087  0.39957  0.80692  1.0000
  H   H1636     1.0  0.66485  0.11943  0.93029  1.0000
  H   H1637     1.0  0.72271  0.12153  0.82906  1.0000
  H   H1638     1.0  0.91671  0.38641  0.90397  1.0000
  C   C924      1.0  0.76254  0.46285  0.95194  1.0000
  C   C925      1.0  0.52409  0.46828  0.82852  1.0000
  H   H1639     1.0  0.66195  0.25832  0.86868  1.0000
  C   C926      1.0  0.52540  0.40395  0.91775  1.0000
  S   S211      1.0  0.62755  0.39396  0.76204  1.0000
  N   N49       1.0  0.93945  0.04006  0.80797  1.0000
  C   C927      1.0  0.94623  0.05047  0.83491  1.0000
  H   H1640     1.0  0.91820  0.47799  0.79206  1.0000
  S   S212      1.0  0.67632  0.49162  0.82242  1.0000
  H   H1641     1.0  0.84858  0.05125  0.83150  1.0000
  C   C928      1.0  0.93282  0.08748  0.78929  1.0000
  C   C929      1.0  0.97552  0.05790  0.83949  1.0000
  C   C930      1.0  0.89076  0.04736  0.82470  1.0000
  C   C931      1.0  0.91064  0.03194  0.80700  1.0000
  H   H1642     1.0  0.69514  0.07813  0.77713  1.0000
  N   N50       1.0  0.52249  0.29187  0.96980  1.0000
  H   H1643     1.0  0.68950  0.10950  0.82588  1.0000
  H   H1644     1.0  0.93438  0.06835  0.83965  1.0000
  H   H1645     1.0  0.62727  0.30377  0.78140  1.0000
  H   H1646     1.0  0.55577  0.31260  0.95363  1.0000
  H   H1647     1.0  0.96210  0.10656  0.76436  1.0000
  C   C932      1.0  0.97942  0.27103  0.78359  1.0000
  H   H1648     1.0  0.93952  0.09752  0.80743  1.0000
  H   H1649     1.0  0.57982  0.22011  0.94862  1.0000
  H   H1650     1.0  0.98218  0.07247  0.82466  1.0000
  H   H1651     1.0  0.64107  0.07744  0.76116  1.0000
  H   H1652     1.0  0.67084  0.10353  0.78037  1.0000
  C   C933      1.0  0.88137  0.38125  0.78903  1.0000
  Fe  Fe105     1.0  0.58370  0.38705  0.76460  1.0000
  C   C934      1.0  0.94558  0.05978  0.78658  1.0000
  C   C935      1.0  0.65777  0.33000  0.79645  1.0000
  H   H1653     1.0  0.89275  0.06900  0.82284  1.0000
  H   H1654     1.0  0.67859  0.11958  0.97729  1.0000
  H   H1655     1.0  0.95457  0.30213  0.79941  1.0000
  H   H1656     1.0  0.51765  0.43734  0.89294  1.0000
  C   C936      1.0  0.71547  0.02062  0.75920  1.0000
  H   H1657     1.0  0.64600  0.46776  0.95459  1.0000
  H   H1658     1.0  0.75994  0.44239  0.94446  1.0000
  S   S213      1.0  0.57022  0.34512  0.76986  1.0000
  H   H1659     1.0  0.57725  0.23095  0.98221  1.0000
  H   H1660     1.0  0.92352  0.42154  0.90374  1.0000
  C   C937      1.0  0.72141  0.11394  0.96981  1.0000
  H   H1661     1.0  0.98681  0.23712  0.87268  1.0000
  H   H1662     1.0  0.55071  0.21229  0.96749  1.0000
  Fe  Fe106     1.0  0.62352  0.27843  0.99058  1.0000
  H   H1663     1.0  0.64100  0.29517  0.84332  1.0000
  H   H1664     1.0  0.68925  0.27958  0.87662  1.0000
  C   C938      1.0  0.97818  0.31696  0.76740  1.0000
  H   H1665     1.0  0.66387  0.45927  0.99626  1.0000
  H   H1666     1.0  0.71335  0.45294  0.93902  1.0000
  C   C939      1.0  0.53300  0.26421  0.97475  1.0000
  H   H1667     1.0  0.76862  0.14077  0.97444  1.0000
  C   C940      1.0  0.69083  0.09926  0.77228  1.0000
  H   H1668     1.0  0.81893  0.14625  0.93934  1.0000
  H   H1669     1.0  0.78083  0.25071  0.92743  1.0000
  H   H1670     1.0  0.96736  0.08835  0.86879  1.0000
  C   C941      1.0  0.76116  0.03394  0.76033  1.0000
  H   H1671     1.0  0.56459  0.36015  0.95448  1.0000
  H   H1672     1.0  0.66981  0.31301  0.80331  1.0000
  C   C942      1.0  0.68561  0.12358  0.93583  1.0000
  H   H1673     1.0  0.64351  0.30172  0.87786  1.0000
  H   H1674     1.0  0.98852  0.04019  0.83857  1.0000
  S   S214      1.0  0.99488  0.12960  0.82979  1.0000
  C   C943      1.0  0.67342  0.27577  0.86206  1.0000
  C   C944      1.0  0.82610  0.43860  0.76133  1.0000
  H   H1675     1.0  0.63121  0.36009  0.81022  1.0000
  H   H1676     1.0  0.91271  0.37889  0.81718  1.0000
  C   C945      1.0  0.71682  0.39238  0.82660  1.0000
  C   C946      1.0  0.64067  0.34205  0.81869  1.0000
  H   H1677     1.0  0.66923  0.45137  0.93406  1.0000
  H   H1678     1.0  0.68266  0.27104  0.84282  1.0000
  N   N51       1.0  0.65494  0.34866  0.84383  1.0000
  C   C947      1.0  0.65494  0.29969  0.85939  1.0000
  C   C948      1.0  0.70984  0.11658  0.78859  1.0000
  H   H1679     1.0  0.66462  0.38572  0.82421  1.0000
  C   C949      1.0  0.64053  0.42119  0.77907  1.0000
  C   C950      1.0  0.64471  0.48192  0.90036  1.0000
  C   C951      1.0  0.55312  0.25330  0.95433  1.0000
  H   H1680     1.0  0.73275  0.09914  0.95800  1.0000
  C   C952      1.0  0.94029  0.10496  0.76600  1.0000
  H   H1681     1.0  0.51484  0.33411  0.93101  1.0000
  H   H1682     1.0  0.51232  0.39500  0.86685  1.0000
  H   H1683     1.0  0.52707  0.28808  0.92758  1.0000
  H   H1684     1.0  0.51643  0.24983  0.97580  1.0000
  S   S215      1.0  0.78146  0.47660  0.87838  1.0000
  H   H1685     1.0  0.75560  0.20067  0.96600  1.0000
  H   H1686     1.0  0.87932  0.35217  0.75792  1.0000
  C   C953      1.0  0.54494  0.31123  0.97253  1.0000
  N   N52       1.0  0.72755  0.11063  0.99867  1.0000
  C   C954      1.0  0.67266  0.37246  0.83984  1.0000
  C   C955      1.0  0.77972  0.03711  0.99855  1.0000
  C   C956      1.0  0.53792  0.33984  0.98143  1.0000
  N   N53       1.0  0.68704  0.47532  0.96446  1.0000
  H   H1687     1.0  0.56383  0.30736  0.81792  1.0000
  H   H1688     1.0  0.71270  0.40799  0.84140  1.0000
  H   H1689     1.0  0.90844  0.01093  0.81328  1.0000
  C   C957      1.0  0.80278  0.12853  0.99597  1.0000
  H   H1690     1.0  0.77701  0.04338  0.79873  1.0000
  H   H1691     1.0  0.71624  0.48748  0.93591  1.0000
  C   C958      1.0  0.96940  0.29720  0.78487  1.0000
  H   H1692     1.0  0.71216  0.35827  0.85087  1.0000
  H   H1693     1.0  0.78043  0.46325  0.96453  1.0000
  H   H1694     1.0  0.90732  0.34807  0.77936  1.0000
  H   H1695     1.0  0.84286  0.12671  0.92093  1.0000
  S   S216      1.0  0.66465  0.29483  0.99340  1.0000
  C   C959      1.0  0.86218  0.04042  0.81808  1.0000
  S   S217      1.0  0.94239  0.42310  0.75608  1.0000
  C   C960      1.0  0.56593  0.22759  0.96386  1.0000
  H   H1696     1.0  0.86556  0.49752  0.78918  1.0000
  H   H1697     1.0  0.97203  0.25603  0.79680  1.0000
  H   H1698     1.0  0.73135  0.16697  0.99410  1.0000
  C   C961      1.0  0.64048  0.31968  0.77418  1.0000
  H   H1699     1.0  0.67097  0.34538  0.78821  1.0000
  H   H1700     1.0  0.97901  0.25895  0.84549  1.0000
  H   H1701     1.0  0.70445  0.35325  0.81661  1.0000
  H   H1702     1.0  0.68013  0.33097  0.87340  1.0000
  H   H1703     1.0  0.75957  0.23260  0.90576  1.0000
  C   C962      1.0  0.77925  0.24205  0.90745  1.0000
  C   C963      1.0  0.66798  0.42410  0.78038  1.0000
  H   H1704     1.0  0.88207  0.36816  0.82976  1.0000
  H   H1705     1.0  0.94987  0.39798  0.89850  1.0000
  S   S218      1.0  0.50945  0.36911  0.76817  1.0000
  C   C964      1.0  0.71324  0.47159  0.95064  1.0000
  H   H1706     1.0  0.89405  0.04217  0.84569  1.0000
  C   C965      1.0  0.89128  0.38400  0.81772  1.0000
  H   H1707     1.0  0.96734  0.06243  0.78450  1.0000
  H   H1708     1.0  0.93175  0.12506  0.76879  1.0000
  H   H1709     1.0  0.55988  0.30387  0.98691  1.0000
  C   C966      1.0  0.66132  0.49201  0.92328  1.0000
  S   S219      1.0  0.96570  0.35001  0.77077  1.0000
  H   H1710     1.0  0.74241  0.49213  0.97465  1.0000
  C   C967      1.0  0.68398  0.50339  0.97436  1.0000
  C   C968      1.0  0.68477  0.42619  0.97886  1.0000
  H   H1711     1.0  0.73845  0.38852  0.82630  1.0000
  H   H1712     1.0  0.56900  0.26774  0.95040  1.0000
  H   H1713     1.0  0.52906  0.43086  0.84765  1.0000
  H   H1714     1.0  0.57897  0.35200  0.98599  1.0000
  H   H1715     1.0  0.54296  0.46633  0.81748  1.0000
  H   H1716     1.0  0.81029  0.06390  0.98667  1.0000
  H   H1717     1.0  0.73694  0.45822  0.98488  1.0000
  H   H1718     1.0  0.87465  0.33871  0.79045  1.0000
  C   C969      1.0  0.95630  0.01573  0.80315  1.0000
  H   H1719     1.0  0.70328  0.13754  0.78785  1.0000
  H   H1720     1.0  0.70327  0.42146  0.96808  1.0000
  C   C970      1.0  0.51135  0.29250  0.94226  1.0000
  H   H1721     1.0  0.80859  0.11336  0.98126  1.0000
  H   H1722     1.0  0.64197  0.49798  0.88566  1.0000
  H   H1723     1.0  0.53355  0.41655  0.93360  1.0000
  H   H1724     1.0  0.85879  0.01890  0.82061  1.0000
  H   H1725     1.0  0.68071  0.40988  0.77069  1.0000
  H   H1726     1.0  0.00049  0.07528  0.86936  1.0000
  H   H1727     1.0  0.72315  0.06829  0.99382  1.0000
  Fe  Fe107     1.0  0.52732  0.40919  0.76337  1.0000
  H   H1728     1.0  0.55555  0.37882  0.98334  1.0000
  H   H1729     1.0  0.68476  0.38729  0.99682  1.0000
  H   H1730     1.0  0.51164  0.42973  0.81689  1.0000
  C   C971      1.0  0.86641  0.46391  0.76313  1.0000
  H   H1731     1.0  0.81378  0.14695  0.99165  1.0000
  C   C972      1.0  0.75716  0.10913  0.00205  1.0000
  C   C973      1.0  0.80244  0.05217  0.00261  1.0000
  Fe  Fe108     1.0  0.00578  0.19408  0.78750  1.0000
  C   C974      1.0  0.51381  0.44082  0.83549  1.0000
  H   H1732     1.0  0.53396  0.34022  0.00288  1.0000
  H   H1733     1.0  0.51495  0.38704  0.92694  1.0000
  H   H1734     1.0  0.69812  0.45879  0.00241  1.0000
  Fe  Fe109     1.0  0.74826  0.50537  0.88591  1.0000
  C   C975      1.0  0.68382  0.40832  0.00308  1.0000
  H   H1735     1.0  0.63120  0.02956  0.76451  1.0000
  H   H1736     1.0  0.88642  0.46735  0.75655  1.0000
  C   C976      1.0  0.62273  0.00941  0.76442  1.0000
  H   H1737     1.0  0.76365  0.93585  0.25232  1.0000
  S   S220      1.0  0.97903  0.71585  0.22524  1.0000
  C   C977      1.0  0.82124  0.96906  0.00899  1.0000
  H   H1738     1.0  0.56935  0.66660  0.03130  1.0000
  S   S221      1.0  0.84978  0.97331  0.17954  1.0000
  H   H1739     1.0  0.93335  0.67868  0.07237  1.0000
  Fe  Fe110     1.0  0.83315  0.95880  0.14141  1.0000
  S   S222      1.0  0.82340  0.91570  0.13508  1.0000
  S   S223      1.0  0.79886  0.98714  0.14039  1.0000
  Fe  Fe111     1.0  0.90885  0.74826  0.09061  1.0000
  S   S224      1.0  0.91279  0.73090  0.05035  1.0000
  S   S225      1.0  0.90661  0.71800  0.12333  1.0000
  Fe  Fe112     1.0  0.90570  0.80353  0.06824  1.0000
  S   S226      1.0  0.90876  0.78950  0.02637  1.0000
  S   S227      1.0  0.90993  0.84712  0.07645  1.0000
  Fe  Fe113     1.0  0.87932  0.75817  0.03895  1.0000
  H   H1740     1.0  0.76611  0.69602  0.22917  1.0000
  Fe  Fe114     1.0  0.94172  0.76360  0.04193  1.0000
  H   H1741     1.0  0.73692  0.99441  0.19634  1.0000
  S   S228      1.0  0.87425  0.77435  0.07985  1.0000
  S   S229      1.0  0.93971  0.77888  0.08315  1.0000
  Fe  Fe115     1.0  0.63711  0.66880  0.03045  1.0000
  S   S230      1.0  0.64497  0.71119  0.02064  1.0000
  S   S231      1.0  0.61005  0.65979  0.06486  1.0000
  C   C978      1.0  0.88353  0.95275  0.04140  1.0000
  H   H1742     1.0  0.52500  0.64055  0.02836  1.0000
  H   H1743     1.0  0.54144  0.66003  0.06754  1.0000
  C   C979      1.0  0.55919  0.94364  0.22300  1.0000
  Fe  Fe116     1.0  0.60974  0.59882  0.20260  1.0000
  S   S232      1.0  0.56577  0.59993  0.19684  1.0000
  S   S233      1.0  0.64199  0.60774  0.17317  1.0000
  H   H1744     1.0  0.65370  0.51533  0.15225  1.0000
  S   S234      1.0  0.60791  0.61911  0.24161  1.0000
  H   H1745     1.0  0.79345  0.62498  0.08744  1.0000
  S   S235      1.0  0.61074  0.55787  0.21970  1.0000
  H   H1746     1.0  0.57414  0.70349  0.06078  1.0000
  H   H1747     1.0  0.88557  0.87591  0.16116  1.0000
  C   C980      1.0  0.62053  0.64827  0.09571  1.0000
  C   C981      1.0  0.60190  0.64696  0.11611  1.0000
  C   C982      1.0  0.60859  0.63542  0.14032  1.0000
  C   C983      1.0  0.63385  0.62480  0.14411  1.0000
  C   C984      1.0  0.65271  0.62671  0.12395  1.0000
  C   C985      1.0  0.64611  0.63852  0.09978  1.0000
  H   H1748     1.0  0.58212  0.65457  0.11307  1.0000
  H   H1749     1.0  0.59408  0.63438  0.15589  1.0000
  H   H1750     1.0  0.67233  0.61864  0.12688  1.0000
  H   H1751     1.0  0.66054  0.63949  0.08411  1.0000
  S   S236      1.0  0.54571  0.52684  0.19088  1.0000
  C   C986      1.0  0.76836  0.74201  0.03771  1.0000
  C   C987      1.0  0.79589  0.74672  0.03625  1.0000
  H   H1752     1.0  0.80066  0.97037  0.01637  1.0000
  H   H1753     1.0  0.81653  0.73215  0.13102  1.0000
  H   H1754     1.0  0.55939  0.60484  0.10502  1.0000
  H   H1755     1.0  0.75696  0.75080  0.05346  1.0000
  H   H1756     1.0  0.80534  0.75899  0.05080  1.0000
  C   C988      1.0  0.84795  0.89625  0.12002  1.0000
  C   C989      1.0  0.84267  0.86978  0.11386  1.0000
  C   C990      1.0  0.86174  0.85420  0.10094  1.0000
  C   C991      1.0  0.88601  0.86521  0.09393  1.0000
  C   C992      1.0  0.89143  0.89151  0.10053  1.0000
  C   C993      1.0  0.87253  0.90694  0.11375  1.0000
  H   H1757     1.0  0.82367  0.86143  0.11876  1.0000
  H   H1758     1.0  0.85746  0.83392  0.09588  1.0000
  H   H1759     1.0  0.91027  0.90004  0.09530  1.0000
  H   H1760     1.0  0.87692  0.92718  0.11887  1.0000
  C   C994      1.0  0.93563  0.78472  0.23124  1.0000
  H   H1761     1.0  0.70102  0.54325  0.02787  1.0000
  C   C995      1.0  0.95881  0.71632  0.19699  1.0000
  C   C996      1.0  0.95897  0.73857  0.18039  1.0000
  C   C997      1.0  0.94292  0.73952  0.15783  1.0000
  C   C998      1.0  0.92685  0.71804  0.15157  1.0000
  C   C999      1.0  0.92679  0.69582  0.16811  1.0000
  C   C1000     1.0  0.94271  0.69492  0.19072  1.0000
  C   C1001     1.0  0.80186  0.95218  0.07086  1.0000
  H   H1762     1.0  0.94302  0.75675  0.14524  1.0000
  H   H1763     1.0  0.91435  0.67916  0.16347  1.0000
  H   H1764     1.0  0.94243  0.67770  0.20338  1.0000
  H   H1765     1.0  0.98333  0.78665  0.12045  1.0000
  H   H1766     1.0  0.51333  0.60355  0.12239  1.0000
  H   H1767     1.0  0.70207  0.98804  0.19608  1.0000
  C   C1002     1.0  0.81182  0.92780  0.05512  1.0000
  H   H1768     1.0  0.70445  0.85465  0.21805  1.0000
  H   H1769     1.0  0.58621  0.58202  0.07685  1.0000
  N   N54       1.0  0.75852  0.91501  0.21555  1.0000
  C   C1003     1.0  0.73964  0.89546  0.20357  1.0000
  C   C1004     1.0  0.75345  0.94188  0.20347  1.0000
  C   C1005     1.0  0.78621  0.90665  0.20781  1.0000
  C   C1006     1.0  0.69527  0.53934  0.00720  1.0000
  Fe  Fe117     1.0  0.87256  0.00233  0.15483  1.0000
  H   H1770     1.0  0.79000  0.65420  0.01670  1.0000
  H   H1771     1.0  0.86807  0.90459  0.02503  1.0000
  C   C1007     1.0  0.72603  0.95462  0.20874  1.0000
  C   C1008     1.0  0.95102  0.67419  0.06013  1.0000
  C   C1009     1.0  0.99365  0.73341  0.10671  1.0000
  H   H1772     1.0  0.80624  0.60549  0.12976  1.0000
  H   H1773     1.0  0.73991  0.89727  0.18172  1.0000
  H   H1774     1.0  0.71896  0.89993  0.20923  1.0000
  H   H1775     1.0  0.76780  0.95651  0.21090  1.0000
  H   H1776     1.0  0.75671  0.94104  0.18180  1.0000
  H   H1777     1.0  0.78793  0.90499  0.18599  1.0000
  H   H1778     1.0  0.67364  0.59593  0.24625  1.0000
  H   H1779     1.0  0.97072  0.83169  0.10622  1.0000
  N   N55       1.0  0.59371  0.55686  0.11067  1.0000
  H   H1780     1.0  0.64504  0.57681  0.03485  1.0000
  H   H1781     1.0  0.96291  0.68965  0.10903  1.0000
  Fe  Fe118     1.0  0.68492  0.69700  0.00599  1.0000
  H   H1782     1.0  0.99268  0.74037  0.08604  1.0000
  C   C1010     1.0  0.98141  0.68747  0.09719  1.0000
  H   H1783     1.0  0.88164  0.96040  0.02105  1.0000
  H   H1784     1.0  0.70961  0.94105  0.20426  1.0000
  H   H1785     1.0  0.72472  0.96090  0.22961  1.0000
  C   C1011     1.0  0.63872  0.52504  0.16502  1.0000
  H   H1786     1.0  0.88953  0.99213  0.05784  1.0000
  H   H1787     1.0  0.72284  0.97433  0.17063  1.0000
  C   C1012     1.0  0.74522  0.86595  0.21012  1.0000
  C   C1013     1.0  0.81105  0.73565  0.01595  1.0000
  H   H1788     1.0  0.70982  0.64414  0.24238  1.0000
  H   H1789     1.0  0.00718  0.78522  0.09381  1.0000
  S   S237      1.0  0.85899  0.98462  0.11667  1.0000
  H   H1790     1.0  0.87846  0.82386  0.18378  1.0000
  H   H1791     1.0  0.59809  0.76308  0.02361  1.0000
  C   C1014     1.0  0.85020  0.90387  0.03774  1.0000
  H   H1792     1.0  0.59678  0.91518  0.24629  1.0000
  H   H1793     1.0  0.95947  0.86549  0.10891  1.0000
  H   H1794     1.0  0.85207  0.79706  0.13568  1.0000
  H   H1795     1.0  0.56627  0.55852  0.14361  1.0000
  H   H1796     1.0  0.51622  0.71024  0.09102  1.0000
  H   H1797     1.0  0.97157  0.75508  0.18511  1.0000
  H   H1798     1.0  0.85920  0.94104  0.07432  1.0000
  C   C1015     1.0  0.55786  0.71370  0.04999  1.0000
  H   H1799     1.0  0.73603  0.69199  0.24767  1.0000
  C   C1016     1.0  0.89978  0.97264  0.05704  1.0000
  H   H1800     1.0  0.54084  0.53153  0.11403  1.0000
  H   H1801     1.0  0.58582  0.58670  0.14007  1.0000
  C   C1017     1.0  0.55879  0.51888  0.11282  1.0000
  H   H1802     1.0  0.76732  0.96583  0.09225  1.0000
  C   C1018     1.0  0.76299  0.65819  0.24905  1.0000
  S   S238      1.0  0.67757  0.65452  0.01833  1.0000
  H   H1803     1.0  0.93311  0.76544  0.22119  1.0000
  S   S239      1.0  0.98584  0.63838  0.23515  1.0000
  C   C1019     1.0  0.58110  0.53330  0.09752  1.0000
  C   C1020     1.0  0.70374  0.62586  0.25272  1.0000
  H   H1804     1.0  0.54914  0.96155  0.21511  1.0000
  H   H1805     1.0  0.52156  0.71445  0.00754  1.0000
  N   N56       1.0  0.91897  0.83075  0.17148  1.0000
  C   C1021     1.0  0.89131  0.82107  0.16623  1.0000
  C   C1022     1.0  0.91713  0.85739  0.18470  1.0000
  C   C1023     1.0  0.93332  0.83246  0.14555  1.0000
  C   C1024     1.0  0.93393  0.81206  0.18925  1.0000
  H   H1806     1.0  0.60616  0.51040  0.14302  1.0000
  C   C1025     1.0  0.88895  0.79184  0.15729  1.0000
  C   C1026     1.0  0.96143  0.84445  0.14628  1.0000
  C   C1027     1.0  0.57254  0.95025  0.24906  1.0000
  C   C1028     1.0  0.86020  0.78472  0.15189  1.0000
  C   C1029     1.0  0.97160  0.84980  0.11848  1.0000
  H   H1807     1.0  0.88183  0.83330  0.15062  1.0000
  H   H1808     1.0  0.89593  0.92198  0.17060  1.0000
  H   H1809     1.0  0.80720  0.92856  0.23874  1.0000
  H   H1810     1.0  0.92133  0.84378  0.13110  1.0000
  H   H1811     1.0  0.93565  0.81252  0.13667  1.0000
  H   H1812     1.0  0.93769  0.79291  0.17920  1.0000
  H   H1813     1.0  0.87515  0.68918  0.04435  1.0000
  H   H1814     1.0  0.74690  0.64205  0.05763  1.0000
  C   C1030     1.0  0.53435  0.65161  0.01204  1.0000
  H   H1815     1.0  0.90023  0.78818  0.13896  1.0000
  H   H1816     1.0  0.89629  0.77802  0.17263  1.0000
  C   C1031     1.0  0.86920  0.66912  0.03814  1.0000
  H   H1817     1.0  0.96191  0.86348  0.15699  1.0000
  H   H1818     1.0  0.89497  0.93397  0.04111  1.0000
  C   C1032     1.0  0.60296  0.57590  0.08968  1.0000
  H   H1819     1.0  0.62077  0.54568  0.06364  1.0000
  H   H1820     1.0  0.92539  0.91258  0.18821  1.0000
  H   H1821     1.0  0.85915  0.76364  0.14599  1.0000
  H   H1822     1.0  0.84794  0.78751  0.16980  1.0000
  H   H1823     1.0  0.99318  0.65636  0.14021  1.0000
  H   H1824     1.0  0.69147  0.60544  0.21691  1.0000
  H   H1825     1.0  0.63366  0.60444  0.05405  1.0000
  H   H1826     1.0  0.83423  0.64870  0.02602  1.0000
  H   H1827     1.0  0.82052  0.74332  0.09760  1.0000
  N   N57       1.0  0.82399  0.66858  0.06244  1.0000
  H   H1828     1.0  0.63224  0.53806  0.11367  1.0000
  H   H1829     1.0  0.54769  0.69548  0.09853  1.0000
  H   H1830     1.0  0.75124  0.86329  0.23091  1.0000
  H   H1831     1.0  0.81407  0.91196  0.07029  1.0000
  C   C1033     1.0  0.90599  0.88030  0.16760  1.0000
  H   H1832     1.0  0.82971  0.59605  0.10476  1.0000
  H   H1833     1.0  0.75985  0.94555  0.06422  1.0000
  H   H1834     1.0  0.00063  0.80316  0.04680  1.0000
  C   C1034     1.0  0.79484  0.67047  0.05630  1.0000
  H   H1835     1.0  0.64436  0.56519  0.08167  1.0000
  H   H1836     1.0  0.92743  0.78282  0.25140  1.0000
  C   C1035     1.0  0.75541  0.72604  0.01907  1.0000
  H   H1837     1.0  0.54417  0.92799  0.22580  1.0000
  S   S240      1.0  0.84623  0.73983  0.01355  1.0000
  H   H1838     1.0  0.56452  0.51386  0.13318  1.0000
  H   H1839     1.0  0.73596  0.60310  0.23713  1.0000
  C   C1036     1.0  0.88188  0.66434  0.01129  1.0000
  H   H1840     1.0  0.78473  0.65519  0.24760  1.0000
  C   C1037     1.0  0.85598  0.94875  0.05411  1.0000
  Fe  Fe119     1.0  0.56641  0.55916  0.21554  1.0000
  H   H1841     1.0  0.83037  0.71075  0.06279  1.0000
  H   H1842     1.0  0.92145  0.82464  0.22870  1.0000
  H   H1843     1.0  0.89319  0.90410  0.20110  1.0000
  C   C1038     1.0  0.68280  0.61271  0.23564  1.0000
  H   H1844     1.0  0.99103  0.68612  0.05522  1.0000
  H   H1845     1.0  0.93669  0.86347  0.19254  1.0000
  H   H1846     1.0  0.91844  0.88371  0.15000  1.0000
  H   H1847     1.0  0.50827  0.66930  0.06039  1.0000
  C   C1039     1.0  0.75398  0.64801  0.03785  1.0000
  H   H1848     1.0  0.97294  0.73528  0.11380  1.0000
  H   H1849     1.0  0.95704  0.78914  0.23280  1.0000
  H   H1850     1.0  0.61036  0.58504  0.03549  1.0000
  C   C1040     1.0  0.57490  0.57170  0.12847  1.0000
  C   C1041     1.0  0.00409  0.78191  0.11518  1.0000
  C   C1042     1.0  0.78414  0.64922  0.03717  1.0000
  H   H1851     1.0  0.74692  0.63334  0.02329  1.0000
  H   H1852     1.0  0.99240  0.85658  0.11928  1.0000
  H   H1853     1.0  0.90310  0.96535  0.07739  1.0000
  H   H1854     1.0  0.51316  0.74465  0.04771  1.0000
  H   H1855     1.0  0.57531  0.76676  0.05068  1.0000
  C   C1043     1.0  0.61303  0.52993  0.14994  1.0000
  H   H1856     1.0  0.80845  0.94386  0.20673  1.0000
  C   C1044     1.0  0.83285  0.88125  0.02662  1.0000
  H   H1857     1.0  0.62806  0.56651  0.13380  1.0000
  S   S241      1.0  0.72056  0.72041  0.02252  1.0000
  H   H1858     1.0  0.79558  0.92117  0.04199  1.0000
  H   H1859     1.0  0.59650  0.51835  0.09235  1.0000
  N   N58       1.0  0.83722  0.93084  0.03965  1.0000
  H   H1860     1.0  0.63480  0.51197  0.18213  1.0000
  C   C1045     1.0  0.62867  0.58415  0.04748  1.0000
  H   H1861     1.0  0.56719  0.62356  0.00906  1.0000
  H   H1862     1.0  0.61025  0.59435  0.09889  1.0000
  H   H1863     1.0  0.55615  0.73976  0.01509  1.0000
  H   H1864     1.0  0.79216  0.62932  0.04193  1.0000
  H   H1865     1.0  0.59851  0.53834  0.16396  1.0000
  H   H1866     1.0  0.51453  0.68377  0.13167  1.0000
  H   H1867     1.0  0.84738  0.96878  0.05695  1.0000
  C   C1046     1.0  0.61773  0.54861  0.12633  1.0000
  C   C1047     1.0  0.92094  0.80658  0.21636  1.0000
  H   H1868     1.0  0.85719  0.89741  0.05747  1.0000
  C   C1048     1.0  0.83589  0.91207  0.21252  1.0000
  H   H1869     1.0  0.95393  0.81996  0.19353  1.0000
  Fe  Fe120     1.0  0.97950  0.67919  0.25133  1.0000
  C   C1049     1.0  0.83178  0.94042  0.01206  1.0000
  H   H1870     1.0  0.66700  0.62719  0.23070  1.0000
  H   H1871     1.0  0.97540  0.83047  0.15592  1.0000
  C   C1050     1.0  0.62517  0.56576  0.07111  1.0000
  C   C1051     1.0  0.97417  0.69176  0.06800  1.0000
  H   H1872     1.0  0.90410  0.85622  0.20230  1.0000
  H   H1873     1.0  0.52567  0.65475  0.11436  1.0000
  C   C1052     1.0  0.78837  0.99487  0.24447  1.0000
  H   H1874     1.0  0.86612  0.85709  0.01297  1.0000
  N   N59       1.0  0.53773  0.69368  0.04115  1.0000
  H   H1875     1.0  0.96836  0.71252  0.06402  1.0000
  C   C1053     1.0  0.55125  0.67500  0.02222  1.0000
  H   H1876     1.0  0.83796  0.62138  0.12846  1.0000
  C   C1054     1.0  0.83247  0.69352  0.07630  1.0000
  C   C1055     1.0  0.51445  0.67360  0.11234  1.0000
  H   H1877     1.0  0.83187  0.68362  0.02333  1.0000
  H   H1878     1.0  0.85379  0.69253  0.08157  1.0000
  H   H1879     1.0  0.76154  0.85841  0.19747  1.0000
  C   C1056     1.0  0.77371  0.94817  0.08090  1.0000
  H   H1880     1.0  0.77286  0.93063  0.09404  1.0000
  C   C1057     1.0  0.72180  0.97930  0.19186  1.0000
  H   H1881     1.0  0.80220  0.97050  0.05911  1.0000
  H   H1882     1.0  0.00634  0.75126  0.14394  1.0000
  H   H1883     1.0  0.81469  0.95525  0.08825  1.0000
  C   C1058     1.0  0.55192  0.58644  0.11432  1.0000
  C   C1059     1.0  0.75763  0.68792  0.24762  1.0000
  C   C1060     1.0  0.81015  0.63408  0.09816  1.0000
  C   C1061     1.0  0.90511  0.90625  0.18292  1.0000
  H   H1884     1.0  0.84983  0.64787  0.08949  1.0000
  Fe  Fe121     1.0  0.56390  0.61735  0.23780  1.0000
  H   H1885     1.0  0.80186  0.65000  0.11058  1.0000
  H   H1886     1.0  0.82375  0.68615  0.11778  1.0000
  C   C1062     1.0  0.83867  0.66740  0.03656  1.0000
  H   H1887     1.0  0.71469  0.85065  0.18413  1.0000
  H   H1888     1.0  0.75376  0.64867  0.23174  1.0000
  H   H1889     1.0  0.83563  0.83939  0.01732  1.0000
  H   H1890     1.0  0.58773  0.96537  0.24495  1.0000
  H   H1891     1.0  0.64682  0.54398  0.17246  1.0000
  N   N60       1.0  0.00267  0.70494  0.10839  1.0000
  C   C1063     1.0  0.83118  0.64436  0.07844  1.0000
  C   C1064     1.0  0.52729  0.69132  0.09165  1.0000
  H   H1892     1.0  0.54318  0.57404  0.09868  1.0000
  H   H1893     1.0  0.78266  0.66992  0.07438  1.0000
  H   H1894     1.0  0.87736  0.65444  0.05224  1.0000
  H   H1895     1.0  0.54922  0.72782  0.06428  1.0000
  C   C1065     1.0  0.58786  0.75242  0.03975  1.0000
  H   H1896     1.0  0.57338  0.68881  0.23212  1.0000
  H   H1897     1.0  0.90011  0.80030  0.21439  1.0000
  H   H1898     1.0  0.94595  0.67789  0.03921  1.0000
  H   H1899     1.0  0.60308  0.74406  0.05318  1.0000
  H   H1900     1.0  0.82628  0.88573  0.00632  1.0000
  C   C1066     1.0  0.56117  0.72703  0.24732  1.0000
  H   H1901     1.0  0.57402  0.93675  0.20839  1.0000
  H   H1902     1.0  0.78022  0.61043  0.24631  1.0000
  H   H1903     1.0  0.84808  0.72841  0.11494  1.0000
  C   C1067     1.0  0.82635  0.72780  0.11198  1.0000
  S   S242      1.0  0.98167  0.75388  0.02226  1.0000
  H   H1904     1.0  0.85153  0.92569  0.21943  1.0000
  H   H1905     1.0  0.79636  0.70101  0.09996  1.0000
  C   C1068     1.0  0.81811  0.70052  0.10226  1.0000
  H   H1906     1.0  0.95632  0.65297  0.06244  1.0000
  C   C1069     1.0  0.52822  0.67752  0.06440  1.0000
  C   C1070     1.0  0.51489  0.70644  0.02679  1.0000
  H   H1907     1.0  0.71343  0.92305  0.24895  1.0000
  C   C1071     1.0  0.82183  0.61296  0.11634  1.0000
  H   H1908     1.0  0.82798  0.97940  0.24255  1.0000
  H   H1909     1.0  0.62192  0.68930  0.24701  1.0000
  H   H1910     1.0  0.00215  0.67255  0.18547  1.0000
  C   C1072     1.0  0.72105  0.84878  0.20495  1.0000
  C   C1073     1.0  0.55984  0.69921  0.24497  1.0000
  H   H1911     1.0  0.74529  0.66757  0.03274  1.0000
  H   H1912     1.0  0.72603  0.82773  0.20891  1.0000
  H   H1913     1.0  0.81513  0.87795  0.03902  1.0000
  C   C1074     1.0  0.57101  0.73039  0.02813  1.0000
  H   H1914     1.0  0.52248  0.57701  0.14432  1.0000
  C   C1075     1.0  0.75672  0.91624  0.24523  1.0000
  H   H1915     1.0  0.83577  0.62727  0.06536  1.0000
  H   H1916     1.0  0.57589  0.73774  0.23623  1.0000
  H   H1917     1.0  0.98729  0.66631  0.09855  1.0000
  H   H1918     1.0  0.79021  0.69004  0.04738  1.0000
  H   H1919     1.0  0.83364  0.98365  0.01939  1.0000
  H   H1920     1.0  0.57211  0.53918  0.07838  1.0000
  C   C1076     1.0  0.00538  0.69793  0.13720  1.0000
  H   H1921     1.0  0.83784  0.89317  0.22350  1.0000
  H   H1922     1.0  0.85454  0.84900  0.04557  1.0000
  Fe  Fe122     1.0  0.81671  0.00305  0.17783  1.0000
  C   C1077     1.0  0.53000  0.59448  0.13342  1.0000
  H   H1923     1.0  0.53745  0.60929  0.14760  1.0000
  H   H1924     1.0  0.80129  0.56912  0.23171  1.0000
  H   H1925     1.0  0.91931  0.97537  0.04749  1.0000
  C   C1078     1.0  0.84830  0.85517  0.02559  1.0000
  H   H1926     1.0  0.83894  0.90837  0.19123  1.0000
  H   H1927     1.0  0.98706  0.70353  0.14803  1.0000
  H   H1928     1.0  0.58440  0.71774  0.01627  1.0000
  C   C1079     1.0  0.80883  0.92474  0.21738  1.0000
  H   H1929     1.0  0.79088  0.88672  0.21586  1.0000
  H   H1930     1.0  0.90364  0.66639  0.01285  1.0000
  H   H1931     1.0  0.77049  0.90164  0.25442  1.0000
  C   C1080     1.0  0.80174  0.56369  0.25285  1.0000
  C   C1081     1.0  0.81020  0.98092  0.25427  1.0000
  H   H1932     1.0  0.80285  0.54179  0.25448  1.0000
  H   H1933     1.0  0.70689  0.53121  0.26151  1.0000
  S   S243      1.0  0.94694  0.66773  0.27921  1.0000
  H   H1934     1.0  0.73400  0.65638  0.28037  1.0000
  Fe  Fe123     1.0  0.97907  0.65926  0.30840  1.0000
  C   C1082     1.0  0.52300  0.69914  0.27512  1.0000
  C   C1083     1.0  0.64824  0.94620  0.29910  1.0000
  Fe  Fe124     1.0  0.82712  0.53727  0.35707  1.0000
  S   S244      1.0  0.81658  0.54958  0.39815  1.0000
  S   S245      1.0  0.87087  0.53423  0.34839  1.0000
  Fe  Fe125     1.0  0.76898  0.53414  0.34029  1.0000
  S   S246      1.0  0.75429  0.54640  0.38005  1.0000
  C   C1084     1.0  0.74433  0.60770  0.30327  1.0000
  Fe  Fe126     1.0  0.78692  0.57638  0.37892  1.0000
  S   S247      1.0  0.78235  0.62055  0.38423  1.0000
  S   S248      1.0  0.79953  0.56610  0.33804  1.0000
  Fe  Fe127     1.0  0.89417  0.74878  0.44457  1.0000
  S   S249      1.0  0.84997  0.74518  0.44561  1.0000
  S   S250      1.0  0.91083  0.75686  0.40411  1.0000
  Fe  Fe128     1.0  0.85780  0.71356  0.47579  1.0000
  S   S251      1.0  0.84183  0.67226  0.48048  1.0000
  Fe  Fe129     1.0  0.85221  0.77389  0.47909  1.0000
  S   S252      1.0  0.82952  0.81200  0.48572  1.0000
  S   S253      1.0  0.90200  0.71505  0.47250  1.0000
  S   S254      1.0  0.89601  0.77938  0.47640  1.0000
  Fe  Fe130     1.0  0.75749  0.94907  0.36118  1.0000
  S   S255      1.0  0.72844  0.91594  0.35717  1.0000
  S   S256      1.0  0.78678  0.95573  0.32702  1.0000
  Fe  Fe131     1.0  0.74343  0.95601  0.42105  1.0000
  S   S257      1.0  0.71410  0.92289  0.42020  1.0000
  S   S258      1.0  0.75491  0.97826  0.45881  1.0000
  Fe  Fe132     1.0  0.74414  0.90108  0.39575  1.0000
  S   S259      1.0  0.75213  0.85705  0.39862  1.0000
  Fe  Fe133     1.0  0.70126  0.94077  0.38182  1.0000
  S   S260      1.0  0.65801  0.94722  0.37257  1.0000
  S   S261      1.0  0.77473  0.93265  0.39896  1.0000
  S   S262      1.0  0.72904  0.97545  0.38354  1.0000
  Fe  Fe134     1.0  0.52923  0.81015  0.29096  1.0000
  S   S263      1.0  0.52852  0.80748  0.33491  1.0000
  H   H1935     1.0  0.73331  0.93809  0.29089  1.0000
  Fe  Fe135     1.0  0.55000  0.84622  0.33462  1.0000
  S   S264      1.0  0.58713  0.84541  0.35924  1.0000
  S   S265      1.0  0.55267  0.84803  0.29069  1.0000
  Fe  Fe136     1.0  0.51410  0.87082  0.29261  1.0000
  H   H1936     1.0  0.64195  0.60855  0.36849  1.0000
  H   H1937     1.0  0.71447  0.63860  0.31315  1.0000
  H   H1938     1.0  0.61666  0.70275  0.33662  1.0000
  H   H1939     1.0  0.64396  0.84568  0.28258  1.0000
  H   H1940     1.0  0.51132  0.69417  0.39042  1.0000
  H   H1941     1.0  0.64724  0.86536  0.31184  1.0000
  C   C1085     1.0  0.54670  0.95409  0.33476  1.0000
  C   C1086     1.0  0.52702  0.75168  0.38846  1.0000
  H   H1942     1.0  0.54043  0.73438  0.39106  1.0000
  H   H1943     1.0  0.75879  0.80935  0.49296  1.0000
  H   H1944     1.0  0.59884  0.94801  0.32406  1.0000
  H   H1945     1.0  0.54218  0.97358  0.32564  1.0000
  C   C1087     1.0  0.78651  0.97124  0.29539  1.0000
  H   H1946     1.0  0.54997  0.58728  0.31522  1.0000
  H   H1947     1.0  0.66040  0.90889  0.49044  1.0000
  H   H1948     1.0  0.91334  0.79937  0.33352  1.0000
  H   H1949     1.0  0.79490  0.88425  0.35970  1.0000
  C   C1088     1.0  0.76462  0.98518  0.28559  1.0000
  H   H1950     1.0  0.51353  0.71234  0.36090  1.0000
  H   H1951     1.0  0.74707  0.98720  0.29759  1.0000
  C   C1089     1.0  0.63839  0.91867  0.37085  1.0000
  C   C1090     1.0  0.61079  0.92126  0.36988  1.0000
  C   C1091     1.0  0.59478  0.89891  0.36641  1.0000
  C   C1092     1.0  0.60636  0.87385  0.36416  1.0000
  C   C1093     1.0  0.63388  0.87116  0.36636  1.0000
  C   C1094     1.0  0.64990  0.89352  0.36944  1.0000
  H   H1952     1.0  0.60184  0.94062  0.37179  1.0000
  H   H1953     1.0  0.57352  0.90095  0.36594  1.0000
  H   H1954     1.0  0.64290  0.85174  0.36518  1.0000
  H   H1955     1.0  0.67114  0.89130  0.37051  1.0000
  C   C1095     1.0  0.80837  0.82414  0.46106  1.0000
  C   C1096     1.0  0.80562  0.85155  0.45769  1.0000
  C   C1097     1.0  0.78843  0.86189  0.43854  1.0000
  C   C1098     1.0  0.77352  0.84482  0.42304  1.0000
  C   C1099     1.0  0.77613  0.81741  0.42654  1.0000
  C   C1100     1.0  0.79350  0.80706  0.44551  1.0000
  H   H1956     1.0  0.81717  0.86480  0.46966  1.0000
  H   H1957     1.0  0.78679  0.88303  0.43563  1.0000
  H   H1958     1.0  0.76455  0.80413  0.41460  1.0000
  H   H1959     1.0  0.79521  0.78591  0.44830  1.0000
  C   C1101     1.0  0.79788  0.63485  0.41161  1.0000
  C   C1102     1.0  0.80848  0.61911  0.43163  1.0000
  C   C1103     1.0  0.82143  0.63089  0.45294  1.0000
  C   C1104     1.0  0.82408  0.65843  0.45424  1.0000
  C   C1105     1.0  0.81302  0.67426  0.43450  1.0000
  C   C1106     1.0  0.79990  0.66245  0.41324  1.0000
  H   H1960     1.0  0.80655  0.59786  0.43076  1.0000
  H   H1961     1.0  0.82960  0.61861  0.46833  1.0000
  H   H1962     1.0  0.81472  0.69552  0.43552  1.0000
  H   H1963     1.0  0.79155  0.67472  0.39789  1.0000
  C   C1107     1.0  0.71035  0.53877  0.30300  1.0000
  C   C1108     1.0  0.69740  0.54853  0.32526  1.0000
  C   C1109     1.0  0.67158  0.55881  0.32324  1.0000
  C   C1110     1.0  0.65846  0.55936  0.29897  1.0000
  C   C1111     1.0  0.67126  0.54928  0.27672  1.0000
  C   C1112     1.0  0.69710  0.53898  0.27877  1.0000
  H   H1964     1.0  0.70714  0.54784  0.34412  1.0000
  H   H1965     1.0  0.66172  0.56624  0.34061  1.0000
  H   H1966     1.0  0.65625  0.92637  0.30420  1.0000
  H   H1967     1.0  0.62577  0.70696  0.29265  1.0000
  C   C1113     1.0  0.90600  0.58332  0.28140  1.0000
  C   C1114     1.0  0.92211  0.57341  0.30147  1.0000
  C   C1115     1.0  0.91122  0.55768  0.32144  1.0000
  C   C1116     1.0  0.88401  0.55267  0.32211  1.0000
  C   C1117     1.0  0.86788  0.56256  0.30206  1.0000
  C   C1118     1.0  0.87892  0.57760  0.28158  1.0000
  H   H1968     1.0  0.94307  0.57722  0.30121  1.0000
  H   H1969     1.0  0.92386  0.54964  0.33664  1.0000
  H   H1970     1.0  0.84700  0.55825  0.30214  1.0000
  C   C1119     1.0  0.80923  0.96922  0.27949  1.0000
  C   C1120     1.0  0.95900  0.69012  0.36623  1.0000
  C   C1121     1.0  0.94781  0.71004  0.35066  1.0000
  C   C1122     1.0  0.93326  0.73064  0.36247  1.0000
  C   C1123     1.0  0.92949  0.73112  0.38978  1.0000
  C   C1124     1.0  0.94040  0.71097  0.40526  1.0000
  C   C1125     1.0  0.95521  0.69063  0.39352  1.0000
  H   H1971     1.0  0.95071  0.70980  0.32959  1.0000
  H   H1972     1.0  0.92483  0.74616  0.35040  1.0000
  H   H1973     1.0  0.93777  0.71129  0.42631  1.0000
  H   H1974     1.0  0.96384  0.67530  0.40567  1.0000
  N   N61       1.0  0.88698  0.62298  0.37935  1.0000
  C   C1126     1.0  0.91182  0.61145  0.36768  1.0000
  C   C1127     1.0  0.86423  0.61718  0.36111  1.0000
  C   C1128     1.0  0.89073  0.65232  0.38290  1.0000
  C   C1129     1.0  0.88099  0.61089  0.40583  1.0000
  C   C1130     1.0  0.88207  0.58027  0.40727  1.0000
  C   C1131     1.0  0.93690  0.61345  0.38499  1.0000
  C   C1132     1.0  0.86559  0.66781  0.39110  1.0000
  C   C1133     1.0  0.86536  0.63080  0.33375  1.0000
  C   C1134     1.0  0.83954  0.62712  0.31872  1.0000
  C   C1135     1.0  0.87437  0.57044  0.43461  1.0000
  C   C1136     1.0  0.95989  0.59829  0.37262  1.0000
  C   C1137     1.0  0.87117  0.69709  0.39482  1.0000
  H   H1975     1.0  0.91664  0.62140  0.34874  1.0000
  H   H1976     1.0  0.90875  0.59038  0.36253  1.0000
  H   H1977     1.0  0.86297  0.59559  0.35719  1.0000
  H   H1978     1.0  0.84499  0.62223  0.37060  1.0000
  H   H1979     1.0  0.89911  0.66154  0.36485  1.0000
  H   H1980     1.0  0.90575  0.65616  0.39835  1.0000
  H   H1981     1.0  0.89438  0.61879  0.42123  1.0000
  H   H1982     1.0  0.86082  0.61676  0.41234  1.0000
  H   H1983     1.0  0.90215  0.57249  0.40300  1.0000
  H   H1984     1.0  0.86834  0.57150  0.39291  1.0000
  H   H1985     1.0  0.94288  0.63436  0.38701  1.0000
  H   H1986     1.0  0.93381  0.60532  0.40496  1.0000
  H   H1987     1.0  0.85823  0.66017  0.41006  1.0000
  H   H1988     1.0  0.84970  0.66616  0.37623  1.0000
  H   H1989     1.0  0.86863  0.65236  0.33529  1.0000
  H   H1990     1.0  0.88159  0.62215  0.32176  1.0000
  H   H1991     1.0  0.84106  0.63671  0.29915  1.0000
  H   H1992     1.0  0.83558  0.60583  0.31573  1.0000
  H   H1993     1.0  0.82275  0.63616  0.32966  1.0000
  H   H1994     1.0  0.87487  0.54848  0.43494  1.0000
  H   H1995     1.0  0.88839  0.57792  0.44957  1.0000
  H   H1996     1.0  0.85403  0.57705  0.43969  1.0000
  H   H1997     1.0  0.95525  0.57689  0.37131  1.0000
  H   H1998     1.0  0.96399  0.60602  0.35260  1.0000
  H   H1999     1.0  0.97787  0.60073  0.38480  1.0000
  H   H2000     1.0  0.88533  0.69997  0.41118  1.0000
  H   H2001     1.0  0.87917  0.70590  0.37648  1.0000
  H   H2002     1.0  0.85252  0.70746  0.39995  1.0000
  H   H2003     1.0  0.66120  0.54927  0.25800  1.0000
  H   H2004     1.0  0.64066  0.95552  0.31731  1.0000
  S   S266      1.0  0.53759  0.64988  0.25624  1.0000
  C   C1138     1.0  0.54876  0.60848  0.32078  1.0000
  H   H2005     1.0  0.76104  0.61373  0.31620  1.0000
  C   C1139     1.0  0.67139  0.96287  0.28945  1.0000
  H   H2006     1.0  0.52547  0.75594  0.36721  1.0000
  C   C1140     1.0  0.63925  0.68461  0.25961  1.0000
  S   S267      1.0  0.74309  0.52644  0.30462  1.0000
  H   H2007     1.0  0.70139  0.60605  0.30741  1.0000
  H   H2008     1.0  0.69422  0.63172  0.27141  1.0000
  C   C1141     1.0  0.68061  0.91729  0.49046  1.0000
  C   C1142     1.0  0.76560  0.99692  0.26034  1.0000
  H   H2009     1.0  0.59178  0.67210  0.28262  1.0000
  N   N62       1.0  0.85166  0.82701  0.38260  1.0000
  C   C1143     1.0  0.82972  0.84231  0.36918  1.0000
  C   C1144     1.0  0.84174  0.80032  0.39174  1.0000
  C   C1145     1.0  0.85988  0.84273  0.40643  1.0000
  C   C1146     1.0  0.87562  0.82375  0.36522  1.0000
  C   C1147     1.0  0.87155  0.80854  0.33926  1.0000
  C   C1148     1.0  0.83608  0.87105  0.36069  1.0000
  C   C1149     1.0  0.87883  0.82871  0.42608  1.0000
  C   C1150     1.0  0.81991  0.78699  0.37495  1.0000
  C   C1151     1.0  0.81492  0.75866  0.38395  1.0000
  C   C1152     1.0  0.89670  0.80871  0.32259  1.0000
  C   C1153     1.0  0.60840  0.90324  0.29792  1.0000
  C   C1154     1.0  0.88573  0.84716  0.44881  1.0000
  H   H2010     1.0  0.81222  0.84345  0.38249  1.0000
  H   H2011     1.0  0.82267  0.83199  0.35138  1.0000
  H   H2012     1.0  0.85855  0.78613  0.39407  1.0000
  H   H2013     1.0  0.83288  0.80194  0.41163  1.0000
  H   H2014     1.0  0.84208  0.84901  0.41775  1.0000
  H   H2015     1.0  0.87000  0.86123  0.40039  1.0000
  H   H2016     1.0  0.88445  0.84330  0.36063  1.0000
  H   H2017     1.0  0.89140  0.81264  0.37580  1.0000
  H   H2018     1.0  0.85546  0.81736  0.32731  1.0000
  H   H2019     1.0  0.86710  0.78752  0.34355  1.0000
  H   H2020     1.0  0.84033  0.88364  0.37799  1.0000
  H   H2021     1.0  0.85320  0.87153  0.34709  1.0000
  H   H2022     1.0  0.89763  0.82272  0.41655  1.0000
  H   H2023     1.0  0.86963  0.81083  0.43465  1.0000
  H   H2024     1.0  0.80098  0.79807  0.37702  1.0000
  H   H2025     1.0  0.82497  0.78643  0.35382  1.0000
  H   H2026     1.0  0.79921  0.74972  0.37170  1.0000
  H   H2027     1.0  0.83318  0.74658  0.38186  1.0000
  H   H2028     1.0  0.80826  0.75837  0.40475  1.0000
  C   C1155     1.0  0.72965  0.91679  0.28732  1.0000
  C   C1156     1.0  0.63941  0.62746  0.37934  1.0000
  H   H2029     1.0  0.90210  0.82926  0.31717  1.0000
  H   H2030     1.0  0.68482  0.92522  0.47056  1.0000
  H   H2031     1.0  0.85284  0.58231  0.49189  1.0000
  H   H2032     1.0  0.69735  0.87858  0.48479  1.0000
  H   H2033     1.0  0.86765  0.85268  0.45997  1.0000
  H   H2034     1.0  0.58015  0.71142  0.30030  1.0000
  H   H2035     1.0  0.89541  0.86535  0.44140  1.0000
  C   C1157     1.0  0.71812  0.61722  0.31597  1.0000
  H   H2036     1.0  0.59720  0.74780  0.32752  1.0000
  C   C1158     1.0  0.74444  0.98676  0.49138  1.0000
  H   H2037     1.0  0.89956  0.83702  0.46247  1.0000
  H   H2038     1.0  0.93308  0.62332  0.50371  1.0000
  H   H2039     1.0  0.54586  0.93390  0.29783  1.0000
  H   H2040     1.0  0.71027  0.91168  0.29619  1.0000
  H   H2041     1.0  0.73471  0.90365  0.47362  1.0000
  H   H2042     1.0  0.54252  0.77198  0.42298  1.0000
  C   C1159     1.0  0.55951  0.93558  0.31466  1.0000
  C   C1160     1.0  0.62269  0.65071  0.33839  1.0000
  H   H2043     1.0  0.81618  0.95547  0.49951  1.0000
  H   H2044     1.0  0.56118  0.91583  0.32386  1.0000
  S   S268      1.0  0.97828  0.66458  0.35246  1.0000
  C   C1161     1.0  0.52451  0.72695  0.27766  1.0000
  H   H2045     1.0  0.73187  0.62609  0.35548  1.0000
  C   C1162     1.0  0.54023  0.77533  0.40152  1.0000
  H   H2046     1.0  0.65821  0.63865  0.37866  1.0000
  N   N63       1.0  0.60101  0.66515  0.32376  1.0000
  C   C1163     1.0  0.57512  0.65066  0.32554  1.0000
  C   C1164     1.0  0.59742  0.69225  0.33562  1.0000
  C   C1165     1.0  0.60897  0.66684  0.29523  1.0000
  H   H2047     1.0  0.89346  0.79727  0.30428  1.0000
  H   H2048     1.0  0.56010  0.77846  0.39278  1.0000
  C   C1166     1.0  0.57592  0.62110  0.31757  1.0000
  C   C1167     1.0  0.57682  0.71040  0.32177  1.0000
  H   H2049     1.0  0.58409  0.96673  0.29874  1.0000
  C   C1168     1.0  0.81251  0.88376  0.34661  1.0000
  H   H2050     1.0  0.56019  0.66019  0.31248  1.0000
  H   H2051     1.0  0.56671  0.65217  0.34569  1.0000
  H   H2052     1.0  0.59075  0.69062  0.35637  1.0000
  H   H2053     1.0  0.62117  0.96511  0.27243  1.0000
  Fe  Fe137     1.0  0.78549  0.51827  0.39558  1.0000
  H   H2054     1.0  0.96381  0.64728  0.47514  1.0000
  H   H2055     1.0  0.74364  0.58580  0.30461  1.0000
  N   N64       1.0  0.74941  0.61652  0.27535  1.0000
  H   H2056     1.0  0.62822  0.63204  0.32805  1.0000
  H   H2057     1.0  0.58188  0.61897  0.29671  1.0000
  H   H2058     1.0  0.58994  0.60958  0.32985  1.0000
  H   H2059     1.0  0.64674  0.66455  0.25472  1.0000
  H   H2060     1.0  0.55655  0.70292  0.32519  1.0000
  C   C1169     1.0  0.58689  0.94610  0.30593  1.0000
  H   H2061     1.0  0.52840  0.79358  0.39826  1.0000
  H   H2062     1.0  0.66482  0.98348  0.28542  1.0000
  H   H2063     1.0  0.57493  0.73895  0.35391  1.0000
  H   H2064     1.0  0.64964  0.68157  0.30031  1.0000
  H   H2065     1.0  0.68687  0.96347  0.30491  1.0000
  H   H2066     1.0  0.78258  0.00302  0.50007  1.0000
  H   H2067     1.0  0.52797  0.94536  0.34196  1.0000
  S   S269      1.0  0.62618  0.57283  0.29732  1.0000
  C   C1170     1.0  0.71811  0.61230  0.34561  1.0000
  S   S270      1.0  0.98519  0.61701  0.29631  1.0000
  C   C1171     1.0  0.57789  0.73864  0.33231  1.0000
  H   H2068     1.0  0.82638  0.95870  0.28685  1.0000
  S   S271      1.0  0.51322  0.87159  0.33692  1.0000
  H   H2069     1.0  0.59022  0.89227  0.30320  1.0000
  H   H2070     1.0  0.55988  0.95696  0.35192  1.0000
  H   H2071     1.0  0.72432  0.59175  0.35023  1.0000
  H   H2072     1.0  0.75953  0.56474  0.25720  1.0000
  H   H2073     1.0  0.63490  0.62275  0.40019  1.0000
  H   H2074     1.0  0.59855  0.63205  0.36959  1.0000
  H   H2075     1.0  0.93017  0.65654  0.46771  1.0000
  C   C1172     1.0  0.72930  0.91095  0.25789  1.0000
  H   H2076     1.0  0.74529  0.90500  0.29733  1.0000
  H   H2077     1.0  0.51565  0.65291  0.36221  1.0000
  H   H2078     1.0  0.77802  0.56630  0.28723  1.0000
  H   H2079     1.0  0.53406  0.61837  0.30780  1.0000
  C   C1173     1.0  0.72782  0.60714  0.25710  1.0000
  H   H2080     1.0  0.69797  0.61560  0.35365  1.0000
  C   C1174     1.0  0.62478  0.88417  0.28037  1.0000
  C   C1175     1.0  0.94595  0.65754  0.48283  1.0000
  H   H2081     1.0  0.56209  0.75079  0.32297  1.0000
  Fe  Fe138     1.0  0.95526  0.62644  0.26515  1.0000
  H   H2082     1.0  0.61619  0.84948  0.30446  1.0000
  C   C1176     1.0  0.62621  0.94439  0.27792  1.0000
  S   S272      1.0  0.91930  0.60221  0.25549  1.0000
  C   C1177     1.0  0.54353  0.74118  0.26362  1.0000
  H   H2083     1.0  0.50783  0.68851  0.28563  1.0000
  H   H2084     1.0  0.61469  0.66204  0.37944  1.0000
  H   H2085     1.0  0.64281  0.89369  0.27256  1.0000
  H   H2086     1.0  0.72380  0.88989  0.25559  1.0000
  H   H2087     1.0  0.80760  0.87272  0.32845  1.0000
  C   C1178     1.0  0.54063  0.68503  0.25876  1.0000
  H   H2088     1.0  0.72007  0.58776  0.26401  1.0000
  C   C1179     1.0  0.63172  0.68620  0.28865  1.0000
  H   H2089     1.0  0.76686  0.65217  0.29086  1.0000
  C   C1180     1.0  0.70062  0.89581  0.49792  1.0000
  H   H2090     1.0  0.81732  0.90444  0.34111  1.0000
  H   H2091     1.0  0.54201  0.60974  0.34150  1.0000
  C   C1181     1.0  0.63353  0.85971  0.29582  1.0000
  H   H2092     1.0  0.61541  0.64704  0.28822  1.0000
  H   H2093     1.0  0.61897  0.90593  0.31682  1.0000
  H   H2094     1.0  0.64106  0.66262  0.33844  1.0000
  N   N65       1.0  0.60156  0.92967  0.28588  1.0000
  H   H2095     1.0  0.74916  0.85820  0.48346  1.0000
  C   C1182     1.0  0.72961  0.90533  0.49489  1.0000
  H   H2096     1.0  0.77945  0.89543  0.48147  1.0000
  C   C1183     1.0  0.61683  0.64381  0.36752  1.0000
  C   C1184     1.0  0.77692  0.57372  0.26686  1.0000
  H   H2097     1.0  0.80840  0.93340  0.47301  1.0000
  H   H2098     1.0  0.51604  0.67295  0.33264  1.0000
  C   C1185     1.0  0.81079  0.93479  0.49467  1.0000
  H   H2099     1.0  0.95102  0.67856  0.48636  1.0000
  H   H2100     1.0  0.76984  0.94171  0.50139  1.0000
  H   H2101     1.0  0.68016  0.95425  0.27137  1.0000
  H   H2102     1.0  0.65504  0.69911  0.25523  1.0000
  H   H2103     1.0  0.82704  0.92141  0.50109  1.0000
  H   H2104     1.0  0.55734  0.95921  0.26208  1.0000
  H   H2105     1.0  0.73015  0.92684  0.49872  1.0000
  Fe  Fe139     1.0  0.60509  0.57830  0.25840  1.0000
  S   S273      1.0  0.54590  0.77645  0.26507  1.0000
  S   S274      1.0  0.56064  0.57665  0.25608  1.0000
  H   H2106     1.0  0.86649  0.58502  0.26593  1.0000
  H   H2107     1.0  0.51058  0.73749  0.28993  1.0000
  H   H2108     1.0  0.99966  0.57331  0.34221  1.0000
  H   H2109     1.0  0.81969  0.57205  0.26208  1.0000
  H   H2110     1.0  0.56848  0.91113  0.26623  1.0000
  H   H2111     1.0  0.61266  0.87729  0.26358  1.0000
  H   H2112     1.0  0.70465  0.97220  0.48948  1.0000
  H   H2113     1.0  0.88046  0.62224  0.49523  1.0000
  H   H2114     1.0  0.76691  0.69815  0.26453  1.0000
  C   C1186     1.0  0.58485  0.92512  0.26181  1.0000
  C   C1187     1.0  0.71936  0.98114  0.50193  1.0000
  H   H2115     1.0  0.63511  0.93564  0.25990  1.0000
  C   C1188     1.0  0.75271  0.64616  0.27520  1.0000
  C   C1189     1.0  0.77542  0.60437  0.26676  1.0000
  H   H2116     1.0  0.79188  0.61170  0.27931  1.0000
  H   H2117     1.0  0.88562  0.57401  0.50301  1.0000
  H   H2118     1.0  0.89765  0.66149  0.50380  1.0000
  C   C1190     1.0  0.77705  0.89888  0.50291  1.0000
  C   C1191     1.0  0.73460  0.92207  0.54936  1.0000
  H   H2119     1.0  0.91300  0.80759  0.61612  1.0000
  S   S275      1.0  0.53413  0.94575  0.73171  1.0000
  C   C1192     1.0  0.95532  0.78735  0.64406  1.0000
  H   H2120     1.0  0.51254  0.93964  0.60945  1.0000
  S   S276      1.0  0.92008  0.74780  0.54387  1.0000
  H   H2121     1.0  0.69696  0.90191  0.68002  1.0000
  H   H2122     1.0  0.96723  0.64263  0.59156  1.0000
  S   S277      1.0  0.63344  0.96019  0.65706  1.0000
  H   H2123     1.0  0.55713  0.90887  0.63726  1.0000
  H   H2124     1.0  0.66274  0.91172  0.67774  1.0000
  C   C1193     1.0  0.68220  0.91695  0.68633  1.0000
  S   S278      1.0  0.99220  0.67232  0.65693  1.0000
  H   H2125     1.0  0.79249  0.88683  0.51282  1.0000
  C   C1194     1.0  0.73584  0.92523  0.57917  1.0000
  C   C1195     1.0  0.75945  0.81359  0.51436  1.0000
  H   H2126     1.0  0.69418  0.98261  0.53661  1.0000
  C   C1196     1.0  0.98830  0.56473  0.69199  1.0000
  H   H2127     1.0  0.97078  0.83361  0.63077  1.0000
  H   H2128     1.0  0.89348  0.82909  0.57700  1.0000
  H   H2129     1.0  0.94012  0.77269  0.59513  1.0000
  H   H2130     1.0  0.61905  0.86305  0.75127  1.0000
  C   C1197     1.0  0.97267  0.54405  0.68206  1.0000
  N   N66       1.0  0.65366  0.93878  0.75444  1.0000
  C   C1198     1.0  0.87211  0.61371  0.51351  1.0000
  C   C1199     1.0  0.95594  0.77584  0.69263  1.0000
  H   H2131     1.0  0.55100  0.95571  0.65360  1.0000
  C   C1200     1.0  0.51644  0.00021  0.59559  1.0000
  H   H2132     1.0  0.77462  0.80044  0.52336  1.0000
  C   C1201     1.0  0.68052  0.91757  0.71628  1.0000
  H   H2133     1.0  0.60797  0.99613  0.69457  1.0000
  H   H2134     1.0  0.54173  0.00399  0.67504  1.0000
  C   C1202     1.0  0.71341  0.98720  0.52863  1.0000
  H   H2135     1.0  0.73996  0.80904  0.52325  1.0000
  N   N67       1.0  0.96965  0.79268  0.61854  1.0000
  C   C1203     1.0  0.94431  0.72459  0.55316  1.0000
  C   C1204     1.0  0.94743  0.71863  0.57990  1.0000
  C   C1205     1.0  0.96848  0.70264  0.58842  1.0000
  C   C1206     1.0  0.98646  0.69238  0.57021  1.0000
  C   C1207     1.0  0.98274  0.69744  0.54334  1.0000
  C   C1208     1.0  0.96173  0.71361  0.53481  1.0000
  H   H2136     1.0  0.93369  0.72663  0.59414  1.0000
  H   H2137     1.0  0.97101  0.69854  0.60910  1.0000
  H   H2138     1.0  0.98853  0.77013  0.66676  1.0000
  H   H2139     1.0  0.72434  0.90948  0.58910  1.0000
  C   C1209     1.0  0.56214  0.94959  0.71148  1.0000
  C   C1210     1.0  0.57109  0.92895  0.69553  1.0000
  C   C1211     1.0  0.59318  0.93254  0.67922  1.0000
  C   C1212     1.0  0.60641  0.95680  0.67860  1.0000
  C   C1213     1.0  0.59779  0.97740  0.69487  1.0000
  C   C1214     1.0  0.57562  0.97378  0.71121  1.0000
  H   H2140     1.0  0.56092  0.91024  0.69557  1.0000
  H   H2141     1.0  0.59987  0.91649  0.66680  1.0000
  H   H2142     1.0  0.85827  0.57488  0.52604  1.0000
  H   H2143     1.0  0.72707  0.85436  0.51037  1.0000
  H   H2144     1.0  0.53104  0.98523  0.58898  1.0000
  C   C1215     1.0  0.94919  0.79258  0.59688  1.0000
  C   C1216     1.0  0.61544  0.90576  0.74585  1.0000
  H   H2145     1.0  0.89944  0.79440  0.57179  1.0000
  C   C1217     1.0  0.98282  0.81944  0.61896  1.0000
  C   C1218     1.0  0.76312  0.99871  0.50774  1.0000
  C   C1219     1.0  0.76676  0.84247  0.51913  1.0000
  H   H2146     1.0  0.68833  0.93648  0.67858  1.0000
  C   C1220     1.0  0.90915  0.81378  0.57487  1.0000
  H   H2147     1.0  0.68113  0.93367  0.50493  1.0000
  H   H2148     1.0  0.53488  0.89626  0.61293  1.0000
  C   C1221     1.0  0.53699  0.00685  0.65381  1.0000
  H   H2149     1.0  0.51196  0.92701  0.64265  1.0000
  C   C1222     1.0  0.53845  0.96109  0.63652  1.0000
  N   N68       1.0  0.89951  0.64527  0.54319  1.0000
  H   H2150     1.0  0.99662  0.68948  0.52918  1.0000
  C   C1223     1.0  0.91769  0.64582  0.56690  1.0000
  C   C1224     1.0  0.87484  0.66081  0.55001  1.0000
  H   H2151     1.0  0.94097  0.80346  0.64846  1.0000
  C   C1225     1.0  0.97245  0.78484  0.66914  1.0000
  H   H2152     1.0  0.55829  0.92138  0.60389  1.0000
  C   C1226     1.0  0.87915  0.68992  0.55853  1.0000
  C   C1227     1.0  0.93569  0.62129  0.57183  1.0000
  C   C1228     1.0  0.95405  0.62563  0.59524  1.0000
  H   H2153     1.0  0.93392  0.83318  0.60298  1.0000
  C   C1229     1.0  0.85351  0.70233  0.56870  1.0000
  H   H2154     1.0  0.88134  0.60858  0.55475  1.0000
  H   H2155     1.0  0.94252  0.62940  0.61346  1.0000
  H   H2156     1.0  0.93065  0.66354  0.56615  1.0000
  H   H2157     1.0  0.90603  0.64801  0.58540  1.0000
  H   H2158     1.0  0.86372  0.65058  0.56594  1.0000
  H   H2159     1.0  0.92121  0.81861  0.55726  1.0000
  Fe  Fe140     1.0  0.50769  0.91039  0.72450  1.0000
  H   H2160     1.0  0.74546  0.93876  0.54056  1.0000
  H   H2161     1.0  0.67106  0.95855  0.72086  1.0000
  N   N69       1.0  0.52063  0.98394  0.64394  1.0000
  H   H2162     1.0  0.64347  0.93919  0.71322  1.0000
  C   C1230     1.0  0.97286  0.51864  0.69378  1.0000
  C   C1231     1.0  0.66135  0.93951  0.72581  1.0000
  H   H2163     1.0  0.89417  0.69171  0.57423  1.0000
  H   H2164     1.0  0.92347  0.60375  0.57660  1.0000
  H   H2165     1.0  0.00502  0.76988  0.62794  1.0000
  H   H2166     1.0  0.95960  0.71841  0.51420  1.0000
  H   H2167     1.0  0.78709  0.84499  0.51154  1.0000
  H   H2168     1.0  0.90848  0.60442  0.53319  1.0000
  H   H2169     1.0  0.67428  0.89765  0.72268  1.0000
  H   H2170     1.0  0.78791  0.93067  0.52991  1.0000
  H   H2171     1.0  0.84981  0.51909  0.61427  1.0000
  H   H2172     1.0  0.84674  0.69204  0.58676  1.0000
  H   H2173     1.0  0.85694  0.72346  0.57347  1.0000
  H   H2174     1.0  0.83781  0.70130  0.55350  1.0000
  S   S279      1.0  0.98603  0.59682  0.67706  1.0000
  H   H2175     1.0  0.98726  0.76151  0.57121  1.0000
  H   H2176     1.0  0.95858  0.79650  0.57749  1.0000
  S   S280      1.0  0.52296  0.86996  0.71399  1.0000
  C   C1232     1.0  0.54507  0.91434  0.61983  1.0000
  C   C1233     1.0  0.89114  0.61731  0.53715  1.0000
  C   C1234     1.0  0.00403  0.55958  0.71404  1.0000
  H   H2177     1.0  0.51525  0.96471  0.68161  1.0000
  H   H2178     1.0  0.94353  0.76887  0.64224  1.0000
  C   C1235     1.0  0.00148  0.76978  0.58560  1.0000
  C   C1236     1.0  0.75725  0.00472  0.53403  1.0000
  C   C1237     1.0  0.52468  0.93555  0.62709  1.0000
  H   H2179     1.0  0.55261  0.96665  0.62086  1.0000
  H   H2180     1.0  0.96868  0.77472  0.71037  1.0000
  H   H2181     1.0  0.70070  0.92159  0.72373  1.0000
  H   H2182     1.0  0.71359  0.92425  0.54352  1.0000
  H   H2183     1.0  0.93956  0.79003  0.69654  1.0000
  Fe  Fe141     1.0  0.66122  0.99501  0.65459  1.0000
  N   N70       1.0  0.74971  0.89061  0.51136  1.0000
  H   H2184     1.0  0.65050  0.99384  0.73650  1.0000
  H   H2185     1.0  0.88566  0.70181  0.54143  1.0000
  H   H2186     1.0  0.72729  0.94473  0.58479  1.0000
  H   H2187     1.0  0.94773  0.75585  0.68905  1.0000
  C   C1238     1.0  0.92625  0.81298  0.59960  1.0000
  H   H2188     1.0  0.61709  0.95938  0.74512  1.0000
  S   S281      1.0  0.70444  0.98466  0.65044  1.0000
  H   H2189     1.0  0.00684  0.78992  0.57891  1.0000
  H   H2190     1.0  0.96012  0.54778  0.66526  1.0000
  C   C1239     1.0  0.98858  0.51349  0.71586  1.0000
  H   H2191     1.0  0.96659  0.60781  0.59843  1.0000
  C   C1240     1.0  0.85614  0.51330  0.59416  1.0000
  C   C1241     1.0  0.73243  0.99924  0.54482  1.0000
  H   H2192     1.0  0.86121  0.66198  0.53296  1.0000
  H   H2193     1.0  0.75665  0.92450  0.58605  1.0000
  H   H2194     1.0  0.94803  0.61655  0.55449  1.0000
  C   C1242     1.0  0.98878  0.77023  0.61337  1.0000
  H   H2195     1.0  0.56869  0.98982  0.72350  1.0000
  H   H2196     1.0  0.62002  0.90421  0.72459  1.0000
  H   H2197     1.0  0.69629  0.88946  0.51834  1.0000
  S   S282      1.0  0.85544  0.74196  0.50950  1.0000
  H   H2198     1.0  0.76466  0.89115  0.55113  1.0000
  H   H2199     1.0  0.95361  0.64559  0.52244  1.0000
  H   H2200     1.0  0.57814  0.99509  0.64559  1.0000
  H   H2201     1.0  0.97874  0.75089  0.61613  1.0000
  C   C1243     1.0  0.74572  0.89472  0.54053  1.0000
  H   H2202     1.0  0.98089  0.80432  0.67437  1.0000
  H   H2203     1.0  0.73179  0.87979  0.54860  1.0000
  H   H2204     1.0  0.85264  0.62312  0.51739  1.0000
  H   H2205     1.0  0.76695  0.84584  0.54065  1.0000
  C   C1244     1.0  0.93698  0.64431  0.50833  1.0000
  C   C1245     1.0  0.91232  0.65837  0.51982  1.0000
  H   H2206     1.0  0.91889  0.67862  0.52501  1.0000
  C   C1246     1.0  0.86699  0.58441  0.50839  1.0000
  H   H2207     1.0  0.58636  0.87462  0.74294  1.0000
  H   H2208     1.0  0.98350  0.82815  0.59883  1.0000
  H   H2209     1.0  0.59943  0.92057  0.74863  1.0000
  C   C1247     1.0  0.00419  0.53419  0.72580  1.0000
  C   C1248     1.0  0.78495  0.92775  0.50850  1.0000
  H   H2210     1.0  0.86490  0.53085  0.58441  1.0000
  C   C1249     1.0  0.74711  0.86150  0.50507  1.0000
  Fe  Fe142     1.0  0.89926  0.74540  0.50459  1.0000
  H   H2211     1.0  0.80941  0.71120  0.98134  1.0000
  S   S283      1.0  0.75109  0.53275  0.92129  1.0000
  C   C1250     1.0  0.99088  0.82905  0.97276  1.0000
  H   H2212     1.0  0.69324  0.51752  0.96031  1.0000
  S   S284      1.0  0.66882  0.69187  0.96463  1.0000
  S   S285      1.0  0.65953  0.61412  0.95100  1.0000
  C   C1251     1.0  0.77180  0.58095  0.87066  1.0000
  S   S286      1.0  0.59629  0.73002  0.96261  1.0000
  C   C1252     1.0  0.56160  0.72449  0.95829  1.0000
  C   C1253     1.0  0.54401  0.74622  0.95819  1.0000
  H   H2213     1.0  0.73085  0.91033  0.80067  1.0000
  C   C1254     1.0  0.77058  0.71493  0.99880  1.0000
  H   H2214     1.0  0.71010  0.54869  0.99410  1.0000
  C   C1255     1.0  0.54213  0.83544  0.85516  1.0000
  H   H2215     1.0  0.55172  0.76582  0.96136  1.0000
  H   H2216     1.0  0.52877  0.85136  0.86229  1.0000
  H   H2217     1.0  0.54064  0.79197  0.92313  1.0000
  H   H2218     1.0  0.56437  0.68235  0.95409  1.0000
  H   H2219     1.0  0.77308  0.61270  0.84227  1.0000
  H   H2220     1.0  0.92967  0.99483  0.77559  1.0000
  C   C1256     1.0  0.72583  0.55571  0.92910  1.0000
  C   C1257     1.0  0.73046  0.57530  0.94807  1.0000
  C   C1258     1.0  0.71042  0.59348  0.95505  1.0000
  C   C1259     1.0  0.68554  0.59196  0.94325  1.0000
  C   C1260     1.0  0.68097  0.57229  0.92437  1.0000
  C   C1261     1.0  0.70107  0.55440  0.91717  1.0000
  H   H2221     1.0  0.74961  0.57642  0.95740  1.0000
  H   H2222     1.0  0.71416  0.60857  0.96959  1.0000
  H   H2223     1.0  0.66179  0.57103  0.91510  1.0000
  H   H2224     1.0  0.69743  0.53955  0.90243  1.0000
  N   N71       1.0  0.73153  0.60595  0.85031  1.0000
  C   C1262     1.0  0.72555  0.62411  0.82747  1.0000
  C   C1263     1.0  0.73000  0.62098  0.87603  1.0000
  H   H2225     1.0  0.69925  0.63902  0.78129  1.0000
  C   C1264     1.0  0.71358  0.58225  0.85066  1.0000
  C   C1265     1.0  0.68353  0.58780  0.85215  1.0000
  C   C1266     1.0  0.72703  0.61150  0.79972  1.0000
  H   H2226     1.0  0.71561  0.94094  0.81094  1.0000
  C   C1267     1.0  0.70916  0.64359  0.87823  1.0000
  C   C1268     1.0  0.70846  0.65518  0.90594  1.0000
  C   C1269     1.0  0.66779  0.56252  0.84752  1.0000
  C   C1270     1.0  0.71980  0.63168  0.77848  1.0000
  C   C1271     1.0  0.82060  0.97716  0.98003  1.0000
  H   H2227     1.0  0.73938  0.64118  0.82775  1.0000
  H   H2228     1.0  0.70554  0.63299  0.82920  1.0000
  H   H2229     1.0  0.72686  0.60702  0.89274  1.0000
  H   H2230     1.0  0.74917  0.63090  0.88008  1.0000
  H   H2231     1.0  0.67129  0.55489  0.82734  1.0000
  C   C1272     1.0  0.79921  0.56994  0.86402  1.0000
  H   H2232     1.0  0.71743  0.56944  0.83331  1.0000
  H   H2233     1.0  0.71810  0.56942  0.86778  1.0000
  H   H2234     1.0  0.67696  0.60236  0.83723  1.0000
  H   H2235     1.0  0.67827  0.59511  0.87201  1.0000
  C   C1273     1.0  0.51645  0.74273  0.95508  1.0000
  H   H2236     1.0  0.71304  0.59480  0.79796  1.0000
  H   H2237     1.0  0.53995  0.75079  0.86255  1.0000
  H   H2238     1.0  0.67344  0.54692  0.86186  1.0000
  H   H2239     1.0  0.71431  0.66005  0.86471  1.0000
  H   H2240     1.0  0.68903  0.63688  0.87332  1.0000
  H   H2241     1.0  0.72796  0.66357  0.91126  1.0000
  H   H2242     1.0  0.69337  0.67120  0.90698  1.0000
  H   H2243     1.0  0.70312  0.63981  0.92050  1.0000
  C   C1274     1.0  0.52905  0.80793  0.85790  1.0000
  H   H2244     1.0  0.72116  0.62223  0.75883  1.0000
  H   H2245     1.0  0.62484  0.95851  0.77916  1.0000
  H   H2246     1.0  0.84076  0.97656  0.97141  1.0000
  H   H2247     1.0  0.51315  0.83833  0.90036  1.0000
  H   H2248     1.0  0.61495  0.00527  0.78442  1.0000
  C   C1275     1.0  0.50870  0.77254  0.88480  1.0000
  Fe  Fe143     1.0  0.65982  0.65014  0.97789  1.0000
  H   H2249     1.0  0.51584  0.67591  0.94984  1.0000
  H   H2250     1.0  0.73360  0.64867  0.77892  1.0000
  H   H2251     1.0  0.87454  0.67918  0.99684  1.0000
  N   N72       1.0  0.52231  0.79910  0.88546  1.0000
  H   H2252     1.0  0.55796  0.86129  0.82494  1.0000
  H   H2253     1.0  0.98580  0.84930  0.97959  1.0000
  H   H2254     1.0  0.56205  0.82654  0.81804  1.0000
  H   H2255     1.0  0.96333  0.96467  0.75717  1.0000
  H   H2256     1.0  0.64635  0.56671  0.84979  1.0000
  H   H2257     1.0  0.77392  0.59401  0.88801  1.0000
  H   H2258     1.0  0.76096  0.58216  0.82990  1.0000
  H   H2259     1.0  0.81292  0.58616  0.85879  1.0000
  H   H2260     1.0  0.60173  0.80426  0.90755  1.0000
  H   H2261     1.0  0.97754  0.82346  0.95640  1.0000
  H   H2262     1.0  0.58919  0.78230  0.93270  1.0000
  C   C1276     1.0  0.75960  0.59596  0.84688  1.0000
  H   H2263     1.0  0.80741  0.96396  0.96867  1.0000
  H   H2264     1.0  0.56301  0.75865  0.89842  1.0000
  H   H2265     1.0  0.55442  0.81850  0.90567  1.0000
  H   H2266     1.0  0.80728  0.55921  0.88134  1.0000
  S   S287      1.0  0.74606  0.51849  0.84383  1.0000
  H   H2267     1.0  0.54241  0.79367  0.84796  1.0000
  C   C1277     1.0  0.55115  0.69921  0.95467  1.0000
  C   C1278     1.0  0.54842  0.84164  0.82642  1.0000
  C   C1279     1.0  0.56900  0.77945  0.89490  1.0000
  H   H2268     1.0  0.79810  0.55574  0.84741  1.0000
  Fe  Fe144     1.0  0.62812  0.70229  0.98065  1.0000
  C   C1280     1.0  0.96725  0.97506  0.77595  1.0000
  H   H2269     1.0  0.56096  0.83617  0.86624  1.0000
  H   H2270     1.0  0.74727  0.60423  0.79529  1.0000
  H   H2271     1.0  0.51081  0.80828  0.84574  1.0000
  H   H2272     1.0  0.50984  0.76292  0.90445  1.0000
  H   H2273     1.0  0.60911  0.76933  0.90641  1.0000
  H   H2274     1.0  0.98755  0.81509  0.98929  1.0000
  H   H2275     1.0  0.57466  0.78203  0.87404  1.0000
  H   H2276     1.0  0.76110  0.70267  0.98426  1.0000
  C   C1281     1.0  0.52357  0.69567  0.95199  1.0000
  C   C1282     1.0  0.67739  0.94376  0.77181  1.0000
  H   H2277     1.0  0.81293  0.99768  0.97815  1.0000
  H   H2278     1.0  0.75941  0.56407  0.87643  1.0000
  C   C1283     1.0  0.59370  0.78425  0.91143  1.0000
  C   C1284     1.0  0.95073  0.00044  0.77731  1.0000
  H   H2279     1.0  0.53002  0.84221  0.81456  1.0000
  C   C1285     1.0  0.51822  0.75227  0.86385  1.0000
  H   H2280     1.0  0.81680  0.92772  0.00246  1.0000
  H   H2281     1.0  0.51480  0.71060  0.85439  1.0000
  C   C1286     1.0  0.54627  0.79831  0.90305  1.0000
  C   C1287     1.0  0.79806  0.71985  0.99720  1.0000
  C   C1288     1.0  0.71971  0.92800  0.79376  1.0000
  H   H2282     1.0  0.95428  0.00163  0.81989  1.0000
  H   H2283     1.0  0.96223  0.96159  0.79245  1.0000
  H   H2284     1.0  0.98866  0.97968  0.77677  1.0000
  H   H2285     1.0  0.51496  0.71751  0.88913  1.0000
  S   S288      1.0  0.61869  0.66063  0.99132  1.0000
  H   H2286     1.0  0.51079  0.75829  0.84416  1.0000
  H   H2287     1.0  0.84982  0.93830  0.99969  1.0000
  H   H2288     1.0  0.63478  0.91356  0.78302  1.0000
  H   H2289     1.0  0.67112  0.95340  0.79054  1.0000
  H   H2290     1.0  0.59877  0.87966  0.77568  1.0000
  H   H2291     1.0  0.68261  0.90782  0.79547  1.0000
  H   H2292     1.0  0.56032  0.64176  0.97918  1.0000
  H   H2293     1.0  0.53874  0.61553  0.98935  1.0000
  H   H2294     1.0  0.66108  0.99283  0.77026  1.0000
  H   H2295     1.0  0.65098  0.50948  0.93174  1.0000
  H   H2296     1.0  0.66269  0.50912  0.97515  1.0000
  C   C1289     1.0  0.69446  0.50954  0.00231  1.0000
  H   H2297     1.0  0.51856  0.65895  0.99873  1.0000
  C   C1290     1.0  0.55126  0.63196  0.99649  1.0000
  C   C1291     1.0  0.69394  0.91942  0.78076  1.0000
  C   C1292     1.0  0.50778  0.72460  0.86970  1.0000
  H   H2298     1.0  0.67564  0.54859  0.00350  1.0000
  H   H2299     1.0  0.73228  0.93890  0.77952  1.0000
  H   H2300     1.0  0.65424  0.89606  0.76007  1.0000
  C   C1293     1.0  0.63375  0.96068  0.75922  1.0000
  H   H2301     1.0  0.69102  0.95805  0.76212  1.0000
  C   C1294     1.0  0.64047  0.91308  0.76185  1.0000
  C   C1295     1.0  0.64418  0.98941  0.75691  1.0000
  H   H2302     1.0  0.69903  0.90607  0.76432  1.0000
  H   H2303     1.0  0.87739  0.64415  0.00410  1.0000
  H   H2304     1.0  0.55821  0.68565  0.00452  1.0000
  C   C1296     1.0  0.60436  0.87912  0.75457  1.0000
