data_image0
_chemical_formula_structural       HCH2C2Fe2H2S3CHSHNH2FeS2FeSFeSC6H5C6H4C6H6SH5CH3C2SCH2CHFeH2C2H3NCH2CH2CH2NCH2C2HCHC2HC2H3C5H7FeCSHCH6CSH4SCFeH7CHFeH3CHC2H6C3SHC3H2CHCFeH3CH2SH2CNC8H3CH10CH5CHSH7C3HS2CHCHCHC2HNHCH5SHC2H2CH4C2HC2HCSH2CH6C2H3C2HC2H2CH2CNHC2H2FeC2HCHSNH5CH14CH9CH2FeH3CH2FeS2FeS2FeSFeS3HSH6FeS2FeS2FeSFeS3C2H2C2HCHCHCHC7SH4C3HC6H4C3H2CHSH2CHCH2CFeC3H4SH2C2H4NC9HC2H16CH7CH7C3HCH6CNHCH3CH5CH3CNCNC10HCHCH26C3HCHC2H6CH3C2H2CHC2H2FeH2C2HCHSH2CH2C6SH3C2H6CH6CH2SCHCHCH2FeCFeS3HCHCH2CFeS2FeSFeSH3CH2C6H5C6H4C6H7CHC2H5CHC2HCHCSCH2CSH2FeH3C2H2CH3CH2CH4CH5SHNHSH7C2H2NHCHCHCHC2H2NFeH8CH2SH2CH3CHCHCSH3CHCH5S2CHCS2HC2H3CHFeCHSHCHCH4CHCH4CNHFeHC5H3C2HC2HCH2C2H6CH4CSCHCH2CHSHCH3CHCH5C2FeSHCH6FeH2CHCHSH2FeS2FeS2FeSFeS3HC2S2HSC6H4CHCFeHC2H2C6H6C3H4NHFeH2CH2CH2CHCHCH3CH4C2SHC3H5CH2CHCH3C3H2CH7CH2SH4CFeHCH4C3H2CH6FeH2C2HCH4CH3CHNC2HC9H4CH12SH8C2NCHCHC2H3CH8CH2SCHNC12H7CH3CH5CNCHSH7SHC2SH4C2SHCFeCH14CFeS2FeS2FeSFeS3C2H2SNHCFeS2FeS2FeSFeS3H3CSHCHCHC2H2CHCSHC8H2C6H2CH2CHFeHC6H4C3H2C6H4C6HSH3NC9HCH19CH5SHCH4FeC2H3CH3CHCNCHC3H5C3H6CH4CH5CHCH3CHNH5NC3H2CHC2HCH3FeH18C2H2C2HCH8C2H3CHCH6CH2CHCHCH3C5H3FeH2SH2CH6CH2CH4SH6CH4C2H2CH4C3HCNH2CFeCH2SHFeSHCFeSHFeS2FeSFeS3H2FeSCS2C6H4C2H3CH7C6H4C2S2C2HCNH2C2SH3CHSHC2SH3CH9C2HC2H3CH3NCHC4HC2H3SH3CHNH11CHCH2CH2CH4FeNH5FeHC2H2CNCFeH7CH2C3H5C2H7CH2C2HCHC2H2CH4C2H7CH7CH3NH4CH2C3HSCHCH7C2H2C4HCH3CH2CHCH4C2H3CH2CH4C2FeHSH2CHFeS2FeS2FeSFeS3C2FeSCH2C3H2SHCHNHC2H2C6H4C6H6SH3C2H5CH3CH3CHCHCH3NSH5CH2CHSH5CH4FeH2CH2NC5HC4HCH23CH4C2HC2HC2HCSCH4CH3CH2CSCH2NC4HC3HC2H6CSH7SHCH8C3H3C2H3CH2C2H2CHSFeSCFeCSHNHCHC2SCS2HCSHCS2H2SH3CSHFeSHS2HSHSH2CHFeHFeSC2HSC6H2CHC6H4C4H4CH3C2HCHNC6H6C6H4C2HC2H4C2H2CH5SCH3CH4C2H4CHCH2CHCH5CH3CH12SFeHC2HFe2NCSH3CHFeH2CFeH3CH2CH2NH2CHC2H3CHSCSH2CH3CH3CH4CNCHCH2CFeCFeHCH3CHCH2FeH3SHCH3C2H2CH3CFeSNC9HC2H2CHC2H2CH9CH2Fe2SHFeS2FeS2FeSFeS3HCH4SFeSH2C3HCHSCHC2HC4HC6H2CHC6H4SHSH2CHC3HC2HCHSCH9CH10CHCH2NC10H22CHSH3CHCH2CH2C2HCHCHC2HSHCH4NC3HCH11CFeC2H2NCHC2HSH2CH8C2H10NHCHCHC2HC3HCH2NCHC2H2CH5FeHC2H4SCH3CHCHCFeH2FeH2CH3CH8NHCHNH2CH5SH4CH3C3HSH2FeS2FeS2FeSFeS3HCH2SHFeSCH4CSFeHCSH9CH2FeC2HCH2C3H2CHSH2C6H5C2SHCHC2H2SH2C2SH7CSC3NC10H9CH3SHC2H2CHCHNC5SC3HC2H20C2H6CHCNCHC5H3C2H3CH8CHC4H9CH2CNH2CH8CH2CH3CH2CH2SH2CH3FeH2FeHFeHSC2SH2SHCHSH2SFeS3HNC2NH3SHCHFeCSFeS3C6H4C6H4C6H5SC6H2CHFeCH4C5HCHFeHCHCHC5H3CFeNSHCH4SC2NH3Fe2SH7CH2CH2CH3C2H2NH2C3H2CH4C2H6CH4CH2CH2CH8SHC2H5CH2SH3FeCNC12H29FeH2CHCHC2SCH3CH3CH2C2SH4C2HCH2CHCFeHC2HCFeCH2CH10C2SHC6H12SCH2CH2SFeS2FeS2FeSFeS3FeHSFeCSH2FeHS2H2SFeHC2H5NCH8SHC4H2C3H2CNH3C6H3NC4HC4H2CH10C2HCH6C2H5SCH2CHCH2SH2CH2CH2CH3FeH2CHC2FeH2CHC2H3CHC3SCH3C3H11C3H2CHCH2CH5C2HCHNHC2HCHCHCH5NC6HC4H19C3HCHCHC2H6CH5S2CSHCHSHC2HCH4CH
_chemical_formula_sum              "H2048 C1152 Fe128 S256 N64"
_cell_length_a       37.8848
_cell_length_b       40.3508
_cell_length_c       67.826
_cell_angle_alpha    90.5954
_cell_angle_beta     90.6523
_cell_angle_gamma    90.7357

_space_group_name_H-M_alt    "P 1"
_space_group_IT_number       1

loop_
  _space_group_symop_operation_xyz
  'x, y, z'

loop_
  _atom_site_type_symbol
  _atom_site_label
  _atom_site_symmetry_multiplicity
  _atom_site_fract_x
  _atom_site_fract_y
  _atom_site_fract_z
  _atom_site_occupancy
  H   H1        1.0  0.31087  0.38859  0.05224  1.0000
  C   C1        1.0  0.47067  0.17454  0.34758  1.0000
  H   H2        1.0  0.13689  0.35045  0.18699  1.0000
  H   H3        1.0  0.16774  0.39647  0.23120  1.0000
  C   C2        1.0  0.45828  0.26919  0.31488  1.0000
  C   C3        1.0  0.25970  0.36859  0.07641  1.0000
  Fe  Fe1       1.0  0.40298  0.04438  0.35190  1.0000
  Fe  Fe2       1.0  0.18349  0.44950  0.14177  1.0000
  H   H4        1.0  0.39867  0.45040  0.09205  1.0000
  H   H5        1.0  0.47023  0.32536  0.15761  1.0000
  S   S1        1.0  0.14047  0.43652  0.16325  1.0000
  S   S2        1.0  0.30327  0.39598  0.12807  1.0000
  S   S3        1.0  0.20256  0.41763  0.11664  1.0000
  C   C4        1.0  0.41472  0.36507  0.18970  1.0000
  H   H6        1.0  0.35239  0.13556  0.32062  1.0000
  S   S4        1.0  0.29928  0.05107  0.14939  1.0000
  H   H7        1.0  0.33846  0.06833  0.11246  1.0000
  N   N1        1.0  0.46254  0.26954  0.33702  1.0000
  H   H8        1.0  0.38823  0.42020  0.15314  1.0000
  H   H9        1.0  0.25157  0.42096  0.07662  1.0000
  Fe  Fe3       1.0  0.39138  0.26065  0.19756  1.0000
  S   S5        1.0  0.38794  0.20853  0.20955  1.0000
  S   S6        1.0  0.34378  0.29472  0.19628  1.0000
  Fe  Fe4       1.0  0.42628  0.19624  0.18565  1.0000
  S   S7        1.0  0.42855  0.14827  0.16810  1.0000
  Fe  Fe5       1.0  0.43618  0.22211  0.22788  1.0000
  S   S8        1.0  0.42688  0.24728  0.17236  1.0000
  C   C5        1.0  0.33539  0.07724  0.15595  1.0000
  C   C6        1.0  0.32927  0.10875  0.16414  1.0000
  C   C7        1.0  0.35766  0.13054  0.16865  1.0000
  C   C8        1.0  0.39227  0.12094  0.16482  1.0000
  C   C9        1.0  0.39840  0.08913  0.15720  1.0000
  C   C10       1.0  0.37012  0.06728  0.15294  1.0000
  H   H10       1.0  0.30246  0.11653  0.16669  1.0000
  H   H11       1.0  0.35268  0.15504  0.17455  1.0000
  H   H12       1.0  0.42516  0.08146  0.15440  1.0000
  H   H13       1.0  0.37527  0.04284  0.14717  1.0000
  H   H14       1.0  0.50165  0.42448  0.18780  1.0000
  C   C11       1.0  0.31287  0.36718  0.14697  1.0000
  C   C12       1.0  0.29747  0.36921  0.16559  1.0000
  C   C13       1.0  0.30693  0.34660  0.18041  1.0000
  C   C14       1.0  0.33183  0.32173  0.17683  1.0000
  C   C15       1.0  0.34683  0.31941  0.15812  1.0000
  C   C16       1.0  0.33748  0.34211  0.14333  1.0000
  H   H15       1.0  0.27845  0.38833  0.16860  1.0000
  H   H16       1.0  0.29499  0.34850  0.19479  1.0000
  H   H17       1.0  0.36523  0.29986  0.15499  1.0000
  H   H18       1.0  0.34916  0.34011  0.12890  1.0000
  C   C17       1.0  0.03374  0.48171  0.14789  1.0000
  C   C18       1.0  0.04033  0.47008  0.16691  1.0000
  C   C19       1.0  0.07306  0.45587  0.17142  1.0000
  C   C20       1.0  0.09932  0.45352  0.15710  1.0000
  C   C21       1.0  0.09243  0.46472  0.13804  1.0000
  C   C22       1.0  0.05961  0.47853  0.13343  1.0000
  H   H19       1.0  0.33317  0.04812  0.19404  1.0000
  H   H20       1.0  0.07812  0.44691  0.18602  1.0000
  H   H21       1.0  0.11212  0.46221  0.12674  1.0000
  H   H22       1.0  0.49961  0.27542  0.15081  1.0000
  H   H23       1.0  0.37715  0.24467  0.29487  1.0000
  H   H24       1.0  0.46675  0.05351  0.09812  1.0000
  S   S9        1.0  0.08237  0.49681  0.28663  1.0000
  H   H25       1.0  0.21436  0.47562  0.30888  1.0000
  H   H26       1.0  0.35431  0.24875  0.31799  1.0000
  H   H27       1.0  0.45928  0.32338  0.31037  1.0000
  H   H28       1.0  0.39032  0.03768  0.08504  1.0000
  H   H29       1.0  0.38725  0.36578  0.18383  1.0000
  C   C23       1.0  0.41876  0.10091  0.29430  1.0000
  H   H30       1.0  0.33313  0.18186  0.28076  1.0000
  H   H31       1.0  0.34060  0.12334  0.22965  1.0000
  H   H32       1.0  0.34904  0.09853  0.30677  1.0000
  C   C24       1.0  0.28445  0.46932  0.05244  1.0000
  C   C25       1.0  0.43358  0.36746  0.15536  1.0000
  S   S10       1.0  0.43582  0.27510  0.21839  1.0000
  C   C26       1.0  0.49384  0.19632  0.28885  1.0000
  H   H33       1.0  0.45005  0.20122  0.32313  1.0000
  H   H34       1.0  0.05422  0.48664  0.11859  1.0000
  C   C27       1.0  0.35902  0.17763  0.28818  1.0000
  H   H35       1.0  0.38805  0.33545  0.22380  1.0000
  Fe  Fe6       1.0  0.25687  0.43180  0.12837  1.0000
  H   H36       1.0  0.42065  0.33821  0.19072  1.0000
  H   H37       1.0  0.47414  0.29836  0.27827  1.0000
  C   C28       1.0  0.15643  0.41890  0.29512  1.0000
  C   C29       1.0  0.04082  0.49684  0.27450  1.0000
  H   H38       1.0  0.11403  0.35529  0.33500  1.0000
  H   H39       1.0  0.17186  0.43338  0.25752  1.0000
  H   H40       1.0  0.28152  0.35052  0.07572  1.0000
  N   N2        1.0  0.31142  0.44220  0.05208  1.0000
  C   C30       1.0  0.12457  0.38437  0.21087  1.0000
  H   H41       1.0  0.49204  0.01969  0.30984  1.0000
  H   H42       1.0  0.32914  0.12938  0.26632  1.0000
  C   C31       1.0  0.41445  0.30848  0.35191  1.0000
  H   H43       1.0  0.37870  0.18949  0.27837  1.0000
  H   H44       1.0  0.07718  0.43985  0.25666  1.0000
  C   C32       1.0  0.42719  0.27295  0.34702  1.0000
  H   H45       1.0  0.12362  0.40534  0.20054  1.0000
  H   H46       1.0  0.27550  0.05452  0.08031  1.0000
  N   N3        1.0  0.36618  0.14104  0.28993  1.0000
  C   C33       1.0  0.44287  0.33037  0.15277  1.0000
  H   H47       1.0  0.47410  0.11515  0.29071  1.0000
  H   H48       1.0  0.41582  0.30409  0.30920  1.0000
  C   C34       1.0  0.30363  0.12915  0.30356  1.0000
  C   C35       1.0  0.44405  0.30112  0.30545  1.0000
  H   H49       1.0  0.43190  0.27693  0.27710  1.0000
  C   C36       1.0  0.41458  0.01927  0.26634  1.0000
  H   H50       1.0  0.07541  0.42149  0.04959  1.0000
  C   C37       1.0  0.40463  0.13683  0.29527  1.0000
  C   C38       1.0  0.29228  0.40943  0.05459  1.0000
  H   H51       1.0  0.38532  0.37295  0.23825  1.0000
  C   C39       1.0  0.13462  0.34730  0.34566  1.0000
  C   C40       1.0  0.35502  0.23484  0.30380  1.0000
  H   H52       1.0  0.01308  0.43011  0.24750  1.0000
  H   H53       1.0  0.36465  0.20116  0.11447  1.0000
  H   H54       1.0  0.12054  0.47896  0.23433  1.0000
  C   C41       1.0  0.13488  0.40943  0.27667  1.0000
  C   C42       1.0  0.40426  0.03361  0.20037  1.0000
  C   C43       1.0  0.43763  0.03337  0.23234  1.0000
  C   C44       1.0  0.46352  0.08516  0.20398  1.0000
  C   C45       1.0  0.37963  0.13526  0.25263  1.0000
  H   H55       1.0  0.46089  0.10894  0.31607  1.0000
  H   H56       1.0  0.49493  0.37493  0.16835  1.0000
  H   H57       1.0  0.40998  0.14609  0.31055  1.0000
  H   H58       1.0  0.46684  0.07393  0.29987  1.0000
  H   H59       1.0  0.33836  0.18996  0.31767  1.0000
  H   H60       1.0  0.45848  0.33283  0.12197  1.0000
  H   H61       1.0  0.17866  0.44060  0.21192  1.0000
  Fe  Fe7       1.0  0.20509  0.46524  0.09946  1.0000
  C   C46       1.0  0.08472  0.42266  0.24447  1.0000
  S   S11       1.0  0.18599  0.47935  0.06858  1.0000
  H   H62       1.0  0.41150  0.40545  0.21192  1.0000
  C   C47       1.0  0.19803  0.42426  0.04496  1.0000
  H   H63       1.0  0.35657  0.09128  0.02525  1.0000
  H   H64       1.0  0.34985  0.42031  0.03283  1.0000
  H   H65       1.0  0.29368  0.11325  0.29119  1.0000
  H   H66       1.0  0.47252  0.18004  0.14090  1.0000
  H   H67       1.0  0.32421  0.45729  0.08214  1.0000
  H   H68       1.0  0.47400  0.22378  0.13605  1.0000
  C   C48       1.0  0.45755  0.09987  0.30063  1.0000
  S   S12       1.0  0.45768  0.02458  0.34788  1.0000
  H   H69       1.0  0.41697  0.09076  0.27909  1.0000
  H   H70       1.0  0.45364  0.15262  0.34413  1.0000
  H   H71       1.0  0.29263  0.40822  0.08726  1.0000
  H   H72       1.0  0.36351  0.47273  0.16404  1.0000
  S   S13       1.0  0.47410  0.20624  0.20478  1.0000
  C   C49       1.0  0.02061  0.41930  0.23305  1.0000
  Fe  Fe8       1.0  0.09158  0.48999  0.31949  1.0000
  H   H73       1.0  0.00637  0.50984  0.22837  1.0000
  H   H74       1.0  0.35545  0.13284  0.03524  1.0000
  H   H75       1.0  0.05770  0.45712  0.22470  1.0000
  H   H76       1.0  0.11865  0.44044  0.05295  1.0000
  H   H77       1.0  0.26913  0.05516  0.10679  1.0000
  H   H78       1.0  0.47734  0.32148  0.34121  1.0000
  H   H79       1.0  0.29493  0.11059  0.10976  1.0000
  C   C50       1.0  0.19339  0.45851  0.04598  1.0000
  H   H80       1.0  0.38944  0.45252  0.05546  1.0000
  Fe  Fe9       1.0  0.47105  0.25833  0.19399  1.0000
  H   H81       1.0  0.39299  0.03751  0.26518  1.0000
  H   H82       1.0  0.49695  0.17032  0.34109  1.0000
  H   H83       1.0  0.05619  0.46990  0.02994  1.0000
  C   C51       1.0  0.48782  0.29648  0.34412  1.0000
  H   H84       1.0  0.48035  0.19456  0.11618  1.0000
  C   C52       1.0  0.08484  0.46520  0.03153  1.0000
  C   C53       1.0  0.49525  0.10339  0.19526  1.0000
  H   H85       1.0  0.40389  0.08417  0.30414  1.0000
  H   H86       1.0  0.48366  0.26296  0.30777  1.0000
  H   H87       1.0  0.40806  0.13042  0.25512  1.0000
  H   H88       1.0  0.42158  0.15230  0.28567  1.0000
  H   H89       1.0  0.40618  0.26007  0.33815  1.0000
  H   H90       1.0  0.29593  0.15505  0.30064  1.0000
  C   C54       1.0  0.24362  0.47449  0.30887  1.0000
  C   C55       1.0  0.35704  0.12436  0.27049  1.0000
  C   C56       1.0  0.27088  0.07063  0.09340  1.0000
  S   S14       1.0  0.23749  0.46054  0.15460  1.0000
  H   H91       1.0  0.25188  0.45058  0.31536  1.0000
  C   C57       1.0  0.33753  0.44633  0.06906  1.0000
  C   C58       1.0  0.00715  0.50368  0.24385  1.0000
  C   C59       1.0  0.19450  0.47697  0.02852  1.0000
  H   H92       1.0  0.43971  0.24912  0.31003  1.0000
  H   H93       1.0  0.37663  0.16211  0.24982  1.0000
  C   C60       1.0  0.14809  0.35812  0.20158  1.0000
  H   H94       1.0  0.36955  0.08957  0.23577  1.0000
  C   C61       1.0  0.36808  0.11678  0.23378  1.0000
  Fe  Fe10      1.0  0.23634  0.50460  0.13463  1.0000
  H   H95       1.0  0.35839  0.09692  0.27183  1.0000
  H   H96       1.0  0.40866  0.20441  0.12468  1.0000
  H   H97       1.0  0.47682  0.17672  0.29403  1.0000
  C   C62       1.0  0.28478  0.11826  0.32226  1.0000
  H   H98       1.0  0.19607  0.40970  0.05822  1.0000
  H   H99       1.0  0.38563  0.12396  0.22147  1.0000
  S   S15       1.0  0.39829  0.09981  0.34799  1.0000
  H   H100      1.0  0.15009  0.44445  0.30000  1.0000
  H   H101      1.0  0.42172  0.05596  0.23489  1.0000
  C   C63       1.0  0.38492  0.36272  0.22299  1.0000
  N   N4        1.0  0.36842  0.10313  0.09503  1.0000
  C   C64       1.0  0.33721  0.08000  0.09766  1.0000
  C   C65       1.0  0.40181  0.08519  0.10056  1.0000
  C   C66       1.0  0.36426  0.13159  0.10951  1.0000
  C   C67       1.0  0.37057  0.11680  0.07439  1.0000
  C   C68       1.0  0.35732  0.09375  0.05720  1.0000
  C   C69       1.0  0.30043  0.09641  0.09601  1.0000
  C   C70       1.0  0.39591  0.15623  0.11163  1.0000
  C   C71       1.0  0.41230  0.05567  0.08722  1.0000
  H   H102      1.0  0.18673  0.46591  0.23366  1.0000
  H   H103      1.0  0.44899  0.38173  0.14430  1.0000
  H   H104      1.0  0.26985  0.46922  0.06653  1.0000
  C   C72       1.0  0.38536  0.18770  0.12275  1.0000
  H   H105      1.0  0.09774  0.37326  0.21207  1.0000
  H   H106      1.0  0.33785  0.05880  0.08717  1.0000
  H   H107      1.0  0.42505  0.10221  0.10031  1.0000
  H   H108      1.0  0.40001  0.07618  0.11597  1.0000
  H   H109      1.0  0.35872  0.12199  0.12451  1.0000
  H   H110      1.0  0.34091  0.14662  0.10543  1.0000
  H   H111      1.0  0.35493  0.13989  0.07309  1.0000
  H   H112      1.0  0.39824  0.12456  0.07123  1.0000
  H   H113      1.0  0.32816  0.09098  0.05745  1.0000
  H   H114      1.0  0.36823  0.06855  0.05799  1.0000
  C   C73       1.0  0.48501  0.21317  0.27148  1.0000
  H   H115      1.0  0.29915  0.11382  0.08349  1.0000
  H   H116      1.0  0.40610  0.16350  0.09701  1.0000
  H   H117      1.0  0.41760  0.14484  0.12030  1.0000
  H   H118      1.0  0.41720  0.32558  0.33938  1.0000
  H   H119      1.0  0.42089  0.06484  0.07264  1.0000
  C   C74       1.0  0.03913  0.50609  0.25458  1.0000
  H   H120      1.0  0.49740  0.09760  0.17926  1.0000
  S   S16       1.0  0.26068  0.47726  0.10930  1.0000
  H   H121      1.0  0.39551  0.47648  0.18382  1.0000
  H   H122      1.0  0.24524  0.08325  0.09137  1.0000
  H   H123      1.0  0.49191  0.13055  0.19702  1.0000
  H   H124      1.0  0.26392  0.46465  0.04097  1.0000
  H   H125      1.0  0.27107  0.40617  0.04332  1.0000
  H   H126      1.0  0.24638  0.36567  0.09082  1.0000
  H   H127      1.0  0.14996  0.40170  0.30728  1.0000
  C   C75       1.0  0.49641  0.40098  0.19573  1.0000
  C   C76       1.0  0.24741  0.50355  0.34231  1.0000
  C   C77       1.0  0.33033  0.44074  0.03258  1.0000
  H   H128      1.0  0.46196  0.09227  0.21979  1.0000
  S   S17       1.0  0.44460  0.20371  0.25920  1.0000
  S   S18       1.0  0.14784  0.50424  0.32619  1.0000
  C   C78       1.0  0.44616  0.29926  0.28296  1.0000
  H   H129      1.0  0.43995  0.37152  0.21867  1.0000
  C   C79       1.0  0.34419  0.12558  0.30588  1.0000
  H   H130      1.0  0.34708  0.42170  0.07404  1.0000
  C   C80       1.0  0.48559  0.19952  0.13209  1.0000
  H   H131      1.0  0.24021  0.36305  0.06444  1.0000
  C   C81       1.0  0.27409  0.40399  0.07476  1.0000
  C   C82       1.0  0.39488  0.42875  0.16835  1.0000
  H   H132      1.0  0.39785  0.06023  0.20216  1.0000
  N   N5        1.0  0.43882  0.02567  0.21051  1.0000
  H   H133      1.0  0.44483  0.29228  0.13003  1.0000
  C   C83       1.0  0.35989  0.19794  0.30775  1.0000
  H   H134      1.0  0.25575  0.11924  0.31993  1.0000
  H   H135      1.0  0.42481  0.31486  0.16153  1.0000
  H   H136      1.0  0.14971  0.33593  0.21109  1.0000
  H   H137      1.0  0.09884  0.48931  0.03369  1.0000
  H   H138      1.0  0.37534  0.18148  0.13762  1.0000
  S   S19       1.0  0.18119  0.49566  0.12380  1.0000
  H   H139      1.0  0.43978  0.09434  0.19625  1.0000
  C   C84       1.0  0.16901  0.46193  0.22073  1.0000
  C   C85       1.0  0.14278  0.43362  0.25951  1.0000
  H   H140      1.0  0.46847  0.04187  0.18521  1.0000
  H   H141      1.0  0.01862  0.39187  0.23383  1.0000
  C   C86       1.0  0.05804  0.43007  0.22759  1.0000
  H   H142      1.0  0.46425  0.03233  0.14775  1.0000
  H   H143      1.0  0.07892  0.39722  0.24989  1.0000
  H   H144      1.0  0.18517  0.41739  0.29223  1.0000
  H   H145      1.0  0.06458  0.41724  0.21371  1.0000
  C   C87       1.0  0.13838  0.39495  0.23159  1.0000
  C   C88       1.0  0.13016  0.45594  0.22701  1.0000
  H   H146      1.0  0.43399  0.32156  0.27642  1.0000
  C   C89       1.0  0.20482  0.40878  0.02672  1.0000
  C   C90       1.0  0.43927  0.31918  0.13124  1.0000
  H   H147      1.0  0.43605  0.02658  0.11069  1.0000
  C   C91       1.0  0.46713  0.04709  0.20131  1.0000
  S   S20       1.0  0.09415  0.44454  0.33871  1.0000
  H   H148      1.0  0.38538  0.19501  0.31565  1.0000
  H   H149      1.0  0.13647  0.45905  0.26494  1.0000
  C   C92       1.0  0.44332  0.03692  0.09617  1.0000
  H   H150      1.0  0.25261  0.47524  0.29336  1.0000
  H   H151      1.0  0.41209  0.32339  0.12561  1.0000
  H   H152      1.0  0.17505  0.36838  0.19917  1.0000
  H   H153      1.0  0.11470  0.45396  0.21312  1.0000
  H   H154      1.0  0.36411  0.02348  0.22255  1.0000
  H   H155      1.0  0.50148  0.25106  0.25132  1.0000
  C   C93       1.0  0.41489  0.37826  0.21120  1.0000
  C   C94       1.0  0.33912  0.02124  0.19426  1.0000
  H   H156      1.0  0.29199  0.13511  0.33477  1.0000
  H   H157      1.0  0.10662  0.41006  0.28080  1.0000
  H   H158      1.0  0.45044  0.01598  0.08629  1.0000
  C   C95       1.0  0.25977  0.50369  0.32052  1.0000
  C   C96       1.0  0.17240  0.49263  0.20788  1.0000
  H   H159      1.0  0.40540  0.36935  0.15086  1.0000
  C   C97       1.0  0.45401  0.20563  0.33914  1.0000
  C   C98       1.0  0.39081  0.46639  0.16870  1.0000
  H   H160      1.0  0.01108  0.47892  0.29912  1.0000
  H   H161      1.0  0.29193  0.09248  0.32614  1.0000
  C   C99       1.0  0.37175  0.46678  0.06529  1.0000
  H   H162      1.0  0.28884  0.50171  0.31958  1.0000
  H   H163      1.0  0.08052  0.45985  0.06326  1.0000
  C   C100      1.0  0.09020  0.44542  0.05042  1.0000
  N   N6        1.0  0.12369  0.42651  0.24016  1.0000
  H   H164      1.0  0.13253  0.37361  0.24129  1.0000
  C   C101      1.0  0.47776  0.37564  0.18161  1.0000
  C   C102      1.0  0.36707  0.10792  0.03715  1.0000
  H   H165      1.0  0.37504  0.41831  0.17855  1.0000
  H   H166      1.0  0.14162  0.38361  0.27265  1.0000
  Fe  Fe11      1.0  0.14903  0.46175  0.34716  1.0000
  C   C103      1.0  0.43298  0.41879  0.17446  1.0000
  C   C104      1.0  0.01006  0.48621  0.28383  1.0000
  H   H167      1.0  0.43882  0.43162  0.18866  1.0000
  C   C105      1.0  0.39191  0.47389  0.08456  1.0000
  H   H168      1.0  0.15620  0.48963  0.19420  1.0000
  S   S21       1.0  0.19604  0.42746  0.34637  1.0000
  N   N7        1.0  0.43973  0.38205  0.17575  1.0000
  H   H169      1.0  0.40956  0.47826  0.15837  1.0000
  H   H170      1.0  0.20850  0.38224  0.02608  1.0000
  H   H171      1.0  0.39621  0.10972  0.03569  1.0000
  H   H172      1.0  0.02037  0.47229  0.17811  1.0000
  H   H173      1.0  0.13394  0.31987  0.34686  1.0000
  C   C106      1.0  0.47785  0.23668  0.34304  1.0000
  H   H174      1.0  0.32972  0.23898  0.29580  1.0000
  H   H175      1.0  0.34603  0.46365  0.03008  1.0000
  H   H176      1.0  0.45151  0.43021  0.16374  1.0000
  H   H177      1.0  0.35890  0.36814  0.21609  1.0000
  H   H178      1.0  0.16085  0.35492  0.33995  1.0000
  H   H179      1.0  0.48006  0.35059  0.18828  1.0000
  H   H180      1.0  0.25323  0.47841  0.34804  1.0000
  H   H181      1.0  0.49363  0.04114  0.20744  1.0000
  H   H182      1.0  0.21812  0.50524  0.34203  1.0000
  H   H183      1.0  0.40657  0.02921  0.18416  1.0000
  H   H184      1.0  0.35845  0.30044  0.34533  1.0000
  H   H185      1.0  0.46454  0.03989  0.23814  1.0000
  H   H186      1.0  0.36640  0.49079  0.05822  1.0000
  H   H187      1.0  0.20035  0.49622  0.20349  1.0000
  C   C107      1.0  0.37101  0.01473  0.20753  1.0000
  H   H188      1.0  0.48043  0.40682  0.20881  1.0000
  H   H189      1.0  0.24118  0.37103  0.35034  1.0000
  H   H190      1.0  0.42779  0.20828  0.34597  1.0000
  H   H191      1.0  0.43817  0.03117  0.27341  1.0000
  H   H192      1.0  0.19048  0.50346  0.02917  1.0000
  H   H193      1.0  0.33691  0.02086  0.02254  1.0000
  H   H194      1.0  0.41677  0.48764  0.08143  1.0000
  H   H195      1.0  0.37579  0.48931  0.09462  1.0000
  H   H196      1.0  0.31546  0.50781  0.03709  1.0000
  C   C108      1.0  0.29862  0.50516  0.05024  1.0000
  H   H197      1.0  0.31384  0.51260  0.06369  1.0000
  H   H198      1.0  0.39203  0.05668  0.65467  1.0000
  Fe  Fe12      1.0  0.17685  0.46119  0.68371  1.0000
  H   H199      1.0  0.33738  0.45658  0.65102  1.0000
  H   H200      1.0  0.43113  0.18531  0.46982  1.0000
  H   H201      1.0  0.04296  0.35904  0.58804  1.0000
  C   C109      1.0  0.38556  0.08241  0.65684  1.0000
  H   H202      1.0  0.38792  0.19984  0.46261  1.0000
  H   H203      1.0  0.03845  0.39314  0.38722  1.0000
  Fe  Fe13      1.0  0.30623  0.27563  0.63330  1.0000
  S   S22       1.0  0.34750  0.31006  0.62141  1.0000
  S   S23       1.0  0.25625  0.29132  0.64908  1.0000
  Fe  Fe14      1.0  0.34908  0.21399  0.62264  1.0000
  S   S24       1.0  0.39341  0.24417  0.60972  1.0000
  S   S25       1.0  0.35286  0.15782  0.62224  1.0000
  Fe  Fe15      1.0  0.38662  0.27702  0.63633  1.0000
  S   S26       1.0  0.42877  0.29629  0.65761  1.0000
  Fe  Fe16      1.0  0.35024  0.27416  0.59562  1.0000
  S   S27       1.0  0.35272  0.29748  0.56504  1.0000
  S   S28       1.0  0.34520  0.24489  0.65006  1.0000
  S   S29       1.0  0.30611  0.24166  0.60664  1.0000
  H   H204      1.0  0.00284  0.48341  0.62282  1.0000
  S   S30       1.0  0.04465  0.46727  0.38960  1.0000
  H   H205      1.0  0.03918  0.42718  0.67226  1.0000
  H   H206      1.0  0.40696  0.22843  0.40616  1.0000
  H   H207      1.0  0.38515  0.30282  0.47215  1.0000
  H   H208      1.0  0.01234  0.38292  0.60241  1.0000
  H   H209      1.0  0.48480  0.30597  0.40110  1.0000
  H   H210      1.0  0.47052  0.28459  0.44470  1.0000
  Fe  Fe17      1.0  0.28000  0.30004  0.42180  1.0000
  S   S31       1.0  0.32744  0.30502  0.44212  1.0000
  S   S32       1.0  0.24004  0.34185  0.42093  1.0000
  Fe  Fe18      1.0  0.29895  0.22946  0.40957  1.0000
  S   S33       1.0  0.34736  0.22953  0.42859  1.0000
  S   S34       1.0  0.28277  0.18188  0.39370  1.0000
  Fe  Fe19      1.0  0.31464  0.25332  0.45200  1.0000
  S   S35       1.0  0.32113  0.22777  0.48164  1.0000
  Fe  Fe20      1.0  0.35657  0.28073  0.41728  1.0000
  S   S36       1.0  0.41062  0.30017  0.40896  1.0000
  S   S37       1.0  0.26485  0.24984  0.43365  1.0000
  S   S38       1.0  0.31021  0.27928  0.39621  1.0000
  C   C110      1.0  0.34758  0.17384  0.37632  1.0000
  C   C111      1.0  0.31556  0.15903  0.38158  1.0000
  H   H211      1.0  0.35263  0.19972  0.37980  1.0000
  H   H212      1.0  0.28465  0.11377  0.38120  1.0000
  C   C112      1.0  0.44278  0.27004  0.40449  1.0000
  C   C113      1.0  0.47785  0.27988  0.40121  1.0000
  H   H213      1.0  0.49089  0.29522  0.36046  1.0000
  C   C114      1.0  0.48119  0.10630  0.38365  1.0000
  H   H214      1.0  0.36799  0.33321  0.36299  1.0000
  C   C115      1.0  0.43396  0.23632  0.40445  1.0000
  H   H215      1.0  0.45888  0.23495  0.45564  1.0000
  C   C116      1.0  0.09391  0.33838  0.40964  1.0000
  H   H216      1.0  0.02706  0.34355  0.61139  1.0000
  C   C117      1.0  0.41647  0.20063  0.45905  1.0000
  C   C118      1.0  0.20949  0.40469  0.36729  1.0000
  C   C119      1.0  0.49329  0.35916  0.63301  1.0000
  C   C120      1.0  0.24211  0.35827  0.38120  1.0000
  C   C121      1.0  0.22997  0.36619  0.40005  1.0000
  C   C122      1.0  0.20820  0.39383  0.40246  1.0000
  C   C123      1.0  0.19795  0.41298  0.38618  1.0000
  S   S39       1.0  0.22652  0.44274  0.66912  1.0000
  H   H217      1.0  0.25890  0.33706  0.37914  1.0000
  H   H218      1.0  0.19904  0.40024  0.41704  1.0000
  H   H219      1.0  0.18094  0.43401  0.38824  1.0000
  H   H220      1.0  0.37403  0.36139  0.45288  1.0000
  C   C124      1.0  0.46022  0.21253  0.40214  1.0000
  C   C125      1.0  0.09769  0.41248  0.42097  1.0000
  C   C126      1.0  0.47697  0.07438  0.64094  1.0000
  H   H221      1.0  0.42749  0.26023  0.36157  1.0000
  C   C127      1.0  0.34220  0.27759  0.54220  1.0000
  C   C128      1.0  0.33950  0.24309  0.54035  1.0000
  C   C129      1.0  0.33281  0.22828  0.52173  1.0000
  C   C130      1.0  0.32848  0.24774  0.50480  1.0000
  C   C131      1.0  0.33085  0.28225  0.50666  1.0000
  C   C132      1.0  0.33784  0.29704  0.52526  1.0000
  H   H222      1.0  0.34284  0.22783  0.55325  1.0000
  H   H223      1.0  0.33091  0.20159  0.52048  1.0000
  H   H224      1.0  0.32730  0.29754  0.49381  1.0000
  H   H225      1.0  0.33980  0.32375  0.52657  1.0000
  C   C133      1.0  0.26264  0.39217  0.65170  1.0000
  C   C134      1.0  0.36746  0.14903  0.66206  1.0000
  C   C135      1.0  0.36570  0.13484  0.64315  1.0000
  H   H226      1.0  0.40254  0.29913  0.50635  1.0000
  H   H227      1.0  0.36034  0.17464  0.66416  1.0000
  C   C136      1.0  0.46900  0.27528  0.65682  1.0000
  H   H228      1.0  0.47269  0.37718  0.63719  1.0000
  S   S40       1.0  0.15385  0.50309  0.66677  1.0000
  H   H229      1.0  0.14917  0.43722  0.42370  1.0000
  H   H230      1.0  0.34257  0.07013  0.45180  1.0000
  C   C137      1.0  0.48032  0.26052  0.63932  1.0000
  H   H231      1.0  0.35565  0.49000  0.66587  1.0000
  C   C138      1.0  0.22188  0.50054  0.40546  1.0000
  H   H232      1.0  0.47680  0.27204  0.51555  1.0000
  H   H233      1.0  0.46448  0.26240  0.62603  1.0000
  C   C139      1.0  0.23459  0.40049  0.66408  1.0000
  Fe  Fe21      1.0  0.07765  0.47930  0.36308  1.0000
  C   C140      1.0  0.26977  0.35883  0.64718  1.0000
  C   C141      1.0  0.24888  0.33348  0.65501  1.0000
  C   C142      1.0  0.22083  0.34182  0.66745  1.0000
  H   H234      1.0  0.45344  0.08237  0.61193  1.0000
  H   H235      1.0  0.16823  0.30005  0.42979  1.0000
  H   H236      1.0  0.29127  0.35279  0.63752  1.0000
  H   H237      1.0  0.35404  0.49334  0.63921  1.0000
  S   S41       1.0  0.39395  0.01809  0.38031  1.0000
  H   H238      1.0  0.41637  0.35921  0.44085  1.0000
  H   H239      1.0  0.37554  0.12117  0.50781  1.0000
  C   C143      1.0  0.13362  0.33053  0.41214  1.0000
  C   C144      1.0  0.46197  0.06142  0.62128  1.0000
  H   H240      1.0  0.27892  0.41158  0.64552  1.0000
  H   H241      1.0  0.37259  0.09003  0.62617  1.0000
  H   H242      1.0  0.11463  0.46258  0.41337  1.0000
  H   H243      1.0  0.34415  0.01774  0.43234  1.0000
  N   N8        1.0  0.12840  0.37256  0.62925  1.0000
  C   C145      1.0  0.13110  0.40980  0.63147  1.0000
  C   C146      1.0  0.12328  0.35748  0.64931  1.0000
  C   C147      1.0  0.16350  0.36079  0.62156  1.0000
  C   C148      1.0  0.09922  0.36153  0.61513  1.0000
  C   C149      1.0  0.06591  0.38375  0.61402  1.0000
  C   C150      1.0  0.14233  0.42843  0.61254  1.0000
  C   C151      1.0  0.16842  0.32268  0.62028  1.0000
  C   C152      1.0  0.08832  0.36532  0.65983  1.0000
  C   C153      1.0  0.30322  0.49906  0.65362  1.0000
  H   H244      1.0  0.22946  0.47684  0.37754  1.0000
  C   C154      1.0  0.12932  0.46405  0.61238  1.0000
  C   C155      1.0  0.19996  0.31379  0.60747  1.0000
  H   H245      1.0  0.15079  0.41670  0.64324  1.0000
  H   H246      1.0  0.10609  0.42047  0.63680  1.0000
  H   H247      1.0  0.12394  0.32999  0.64841  1.0000
  H   H248      1.0  0.14547  0.36512  0.65930  1.0000
  H   H249      1.0  0.18567  0.37103  0.63085  1.0000
  H   H250      1.0  0.16811  0.37042  0.60649  1.0000
  H   H251      1.0  0.10917  0.35979  0.59976  1.0000
  H   H252      1.0  0.09043  0.33583  0.61864  1.0000
  H   H253      1.0  0.07193  0.40680  0.60586  1.0000
  H   H254      1.0  0.05633  0.39136  0.62870  1.0000
  H   H255      1.0  0.17165  0.42909  0.61175  1.0000
  H   H256      1.0  0.13211  0.41588  0.59897  1.0000
  H   H257      1.0  0.14467  0.31000  0.61396  1.0000
  H   H258      1.0  0.17372  0.31262  0.63520  1.0000
  H   H259      1.0  0.08420  0.39231  0.66099  1.0000
  H   H260      1.0  0.06570  0.35361  0.65174  1.0000
  C   C156      1.0  0.01922  0.43215  0.66122  1.0000
  H   H261      1.0  0.37165  0.29063  0.37029  1.0000
  H   H262      1.0  0.36662  0.15824  0.49407  1.0000
  H   H263      1.0  0.08825  0.32723  0.37249  1.0000
  H   H264      1.0  0.48793  0.31351  0.48611  1.0000
  H   H265      1.0  0.19268  0.38137  0.68199  1.0000
  H   H266      1.0  0.10016  0.46438  0.61052  1.0000
  H   H267      1.0  0.30390  0.49541  0.36375  1.0000
  C   C157      1.0  0.02065  0.34222  0.39089  1.0000
  H   H268      1.0  0.19499  0.32062  0.59188  1.0000
  H   H269      1.0  0.22428  0.32678  0.61291  1.0000
  H   H270      1.0  0.20458  0.28668  0.60811  1.0000
  H   H271      1.0  0.47849  0.32653  0.45181  1.0000
  H   H272      1.0  0.14388  0.31927  0.39842  1.0000
  H   H273      1.0  0.33152  0.13764  0.50724  1.0000
  H   H274      1.0  0.02281  0.32214  0.40188  1.0000
  C   C158      1.0  0.08814  0.35144  0.68072  1.0000
  C   C159      1.0  0.20690  0.51245  0.62172  1.0000
  C   C160      1.0  0.44898  0.27741  0.51921  1.0000
  H   H275      1.0  0.33739  0.08787  0.48527  1.0000
  C   C161      1.0  0.43049  0.23626  0.45935  1.0000
  H   H276      1.0  0.28989  0.48800  0.66641  1.0000
  H   H277      1.0  0.44082  0.32480  0.50567  1.0000
  H   H278      1.0  0.28818  0.49087  0.64027  1.0000
  H   H279      1.0  0.08307  0.34415  0.42445  1.0000
  H   H280      1.0  0.43021  0.31888  0.36452  1.0000
  H   H281      1.0  0.39775  0.24945  0.48423  1.0000
  C   C162      1.0  0.41756  0.34722  0.47218  1.0000
  N   N9        1.0  0.43717  0.28841  0.48195  1.0000
  H   H282      1.0  0.48200  0.04662  0.61338  1.0000
  C   C163      1.0  0.04557  0.37171  0.39665  1.0000
  H   H283      1.0  0.10434  0.39447  0.43263  1.0000
  H   H284      1.0  0.45585  0.19906  0.64620  1.0000
  H   H285      1.0  0.33026  0.08059  0.36415  1.0000
  C   C164      1.0  0.40277  0.36633  0.45467  1.0000
  H   H286      1.0  0.43419  0.25361  0.52075  1.0000
  H   H287      1.0  0.14950  0.35290  0.41609  1.0000
  H   H288      1.0  0.02680  0.33185  0.37614  1.0000
  H   H289      1.0  0.11551  0.45389  0.43935  1.0000
  H   H290      1.0  0.06991  0.42023  0.42273  1.0000
  C   C165      1.0  0.10379  0.39752  0.40012  1.0000
  H   H291      1.0  0.39745  0.16683  0.36209  1.0000
  H   H292      1.0  0.45326  0.18647  0.40240  1.0000
  H   H293      1.0  0.44561  0.35467  0.47436  1.0000
  C   C166      1.0  0.41334  0.30913  0.46920  1.0000
  N   N10       1.0  0.08471  0.36533  0.39527  1.0000
  C   C167      1.0  0.23200  0.37756  0.36490  1.0000
  N   N11       1.0  0.31236  0.11481  0.44652  1.0000
  C   C168      1.0  0.31626  0.07758  0.44625  1.0000
  C   C169      1.0  0.31852  0.12874  0.46711  1.0000
  C   C170      1.0  0.27469  0.12215  0.44047  1.0000
  C   C171      1.0  0.33641  0.13141  0.43194  1.0000
  C   C172      1.0  0.37632  0.12451  0.43411  1.0000
  C   C173      1.0  0.31107  0.06026  0.42582  1.0000
  C   C174      1.0  0.26230  0.15835  0.44387  1.0000
  C   C175      1.0  0.34721  0.11236  0.48015  1.0000
  C   C176      1.0  0.35568  0.13370  0.49841  1.0000
  C   C177      1.0  0.39661  0.13673  0.41620  1.0000
  H   H294      1.0  0.48401  0.05285  0.65005  1.0000
  C   C178      1.0  0.22467  0.16286  0.43605  1.0000
  H   H295      1.0  0.29717  0.06617  0.45667  1.0000
  C   C179      1.0  0.49014  0.27344  0.67389  1.0000
  H   H296      1.0  0.32444  0.15588  0.46643  1.0000
  H   H297      1.0  0.29396  0.12647  0.47594  1.0000
  H   H298      1.0  0.25592  0.10579  0.44852  1.0000
  H   H299      1.0  0.27033  0.11662  0.42449  1.0000
  H   H300      1.0  0.32814  0.12487  0.41663  1.0000
  H   H301      1.0  0.33370  0.15874  0.43276  1.0000
  H   H302      1.0  0.38187  0.09778  0.43553  1.0000
  H   H303      1.0  0.38705  0.13803  0.44718  1.0000
  H   H304      1.0  0.28394  0.06389  0.41997  1.0000
  H   H305      1.0  0.33018  0.06996  0.41495  1.0000
  H   H306      1.0  0.27971  0.17629  0.43634  1.0000
  H   H307      1.0  0.26223  0.16510  0.45978  1.0000
  H   H308      1.0  0.47348  0.17681  0.36384  1.0000
  H   H309      1.0  0.48099  0.33405  0.63251  1.0000
  H   H310      1.0  0.14125  0.47764  0.59991  1.0000
  H   H311      1.0  0.21210  0.48721  0.62741  1.0000
  H   H312      1.0  0.41623  0.24997  0.44773  1.0000
  H   H313      1.0  0.42541  0.13426  0.41891  1.0000
  H   H314      1.0  0.38932  0.12158  0.40298  1.0000
  H   H315      1.0  0.39090  0.16318  0.41328  1.0000
  H   H316      1.0  0.45882  0.13836  0.67270  1.0000
  H   H317      1.0  0.20614  0.51124  0.60536  1.0000
  H   H318      1.0  0.45588  0.08751  0.64870  1.0000
  H   H319      1.0  0.20604  0.14588  0.44360  1.0000
  H   H320      1.0  0.21626  0.18874  0.43880  1.0000
  H   H321      1.0  0.22334  0.15798  0.41990  1.0000
  C   C180      1.0  0.30942  0.12534  0.37715  1.0000
  C   C181      1.0  0.37892  0.13011  0.67821  1.0000
  C   C182      1.0  0.38849  0.09686  0.67562  1.0000
  H   H322      1.0  0.45942  0.27808  0.55078  1.0000
  C   C183      1.0  0.12908  0.36352  0.36583  1.0000
  H   H323      1.0  0.09653  0.41661  0.38910  1.0000
  C   C184      1.0  0.33524  0.10650  0.36758  1.0000
  C   C185      1.0  0.31685  0.02291  0.42719  1.0000
  H   H324      1.0  0.48482  0.23724  0.35903  1.0000
  H   H325      1.0  0.45612  0.09362  0.37919  1.0000
  H   H326      1.0  0.44141  0.23672  0.49005  1.0000
  H   H327      1.0  0.46459  0.31790  0.53923  1.0000
  H   H328      1.0  0.48179  0.28521  0.68740  1.0000
  H   H329      1.0  0.40682  0.39335  0.45721  1.0000
  C   C186      1.0  0.09227  0.35451  0.37425  1.0000
  H   H330      1.0  0.41657  0.30324  0.45333  1.0000
  H   H331      1.0  0.42533  0.18724  0.66466  1.0000
  H   H332      1.0  0.03821  0.37881  0.41193  1.0000
  C   C187      1.0  0.42592  0.25249  0.47989  1.0000
  C   C188      1.0  0.43128  0.29889  0.50313  1.0000
  H   H333      1.0  0.46870  0.20087  0.67216  1.0000
  H   H334      1.0  0.40295  0.35511  0.48553  1.0000
  C   C189      1.0  0.12076  0.44341  0.42448  1.0000
  H   H335      1.0  0.08089  0.31460  0.40512  1.0000
  C   C190      1.0  0.37437  0.10135  0.64069  1.0000
  C   C191      1.0  0.45351  0.18682  0.66068  1.0000
  H   H336      1.0  0.13083  0.31566  0.44295  1.0000
  H   H337      1.0  0.49357  0.06808  0.40434  1.0000
  Fe  Fe22      1.0  0.10120  0.48069  0.67357  1.0000
  H   H338      1.0  0.13260  0.39477  0.39875  1.0000
  H   H339      1.0  0.20466  0.32233  0.67364  1.0000
  C   C192      1.0  0.48514  0.30056  0.45538  1.0000
  C   C193      1.0  0.37288  0.15525  0.36621  1.0000
  H   H340      1.0  0.22189  0.47653  0.41334  1.0000
  C   C194      1.0  0.24233  0.49707  0.38626  1.0000
  H   H341      1.0  0.48900  0.09362  0.67693  1.0000
  S   S42       1.0  0.13304  0.49373  0.37260  1.0000
  H   H342      1.0  0.45170  0.13999  0.64623  1.0000
  H   H343      1.0  0.09015  0.32400  0.68032  1.0000
  C   C195      1.0  0.46623  0.15120  0.65897  1.0000
  H   H344      1.0  0.13662  0.47699  0.62636  1.0000
  H   H345      1.0  0.37212  0.10820  0.47227  1.0000
  C   C196      1.0  0.03530  0.36608  0.60327  1.0000
  C   C197      1.0  0.02473  0.45734  0.64758  1.0000
  C   C198      1.0  0.33992  0.48399  0.65234  1.0000
  C   C199      1.0  0.21385  0.37520  0.67209  1.0000
  C   C200      1.0  0.47588  0.29287  0.47719  1.0000
  C   C201      1.0  0.44846  0.29472  0.53936  1.0000
  S   S43       1.0  0.06403  0.48082  0.64750  1.0000
  H   H346      1.0  0.42008  0.18995  0.44408  1.0000
  H   H347      1.0  0.12513  0.28190  0.42527  1.0000
  H   H348      1.0  0.42097  0.30080  0.54347  1.0000
  C   C202      1.0  0.37573  0.30808  0.35795  1.0000
  C   C203      1.0  0.13959  0.30548  0.42856  1.0000
  H   H349      1.0  0.43855  0.04532  0.62395  1.0000
  H   H350      1.0  0.49075  0.27048  0.48171  1.0000
  H   H351      1.0  0.47519  0.12576  0.39477  1.0000
  H   H352      1.0  0.23719  0.51217  0.65685  1.0000
  H   H353      1.0  0.26959  0.48964  0.39016  1.0000
  H   H354      1.0  0.13130  0.39075  0.36381  1.0000
  C   C204      1.0  0.36685  0.12158  0.36182  1.0000
  H   H355      1.0  0.15091  0.35588  0.37565  1.0000
  H   H356      1.0  0.19406  0.50733  0.40238  1.0000
  H   H357      1.0  0.07316  0.36595  0.36377  1.0000
  H   H358      1.0  0.01401  0.49809  0.68340  1.0000
  H   H359      1.0  0.35346  0.50375  0.38696  1.0000
  H   H360      1.0  0.30910  0.20123  0.68073  1.0000
  C   C205      1.0  0.49532  0.22228  0.39919  1.0000
  H   H361      1.0  0.49274  0.11813  0.37046  1.0000
  H   H362      1.0  0.06311  0.35814  0.68806  1.0000
  S   S44       1.0  0.12427  0.43636  0.68831  1.0000
  C   C206      1.0  0.11552  0.44279  0.97881  1.0000
  H   H363      1.0  0.31384  0.22134  0.88106  1.0000
  C   C207      1.0  0.49443  0.27166  0.94367  1.0000
  H   H364      1.0  0.23420  0.32102  0.93334  1.0000
  C   C208      1.0  0.31027  0.23559  0.91212  1.0000
  H   H365      1.0  0.34181  0.37097  0.95798  1.0000
  H   H366      1.0  0.36954  0.03565  0.89716  1.0000
  Fe  Fe23      1.0  0.12144  0.46814  0.71591  1.0000
  C   C209      1.0  0.41326  0.26330  0.71245  1.0000
  Fe  Fe24      1.0  0.18718  0.42921  0.91592  1.0000
  S   S45       1.0  0.14442  0.40520  0.89713  1.0000
  S   S46       1.0  0.31920  0.41981  0.90953  1.0000
  S   S47       1.0  0.22811  0.39877  0.93107  1.0000
  H   H367      1.0  0.44965  0.21147  0.73882  1.0000
  C   C210      1.0  0.17772  0.43781  0.77835  1.0000
  H   H368      1.0  0.25635  0.24739  0.90486  1.0000
  C   C211      1.0  0.03475  0.50838  0.76829  1.0000
  H   H369      1.0  0.49025  0.26509  0.95931  1.0000
  H   H370      1.0  0.42930  0.04597  0.80649  1.0000
  C   C212      1.0  0.32966  0.20672  0.71082  1.0000
  Fe  Fe25      1.0  0.37807  0.25773  0.85501  1.0000
  S   S48       1.0  0.37972  0.21821  0.83118  1.0000
  S   S49       1.0  0.32699  0.28553  0.85977  1.0000
  Fe  Fe26      1.0  0.40710  0.18712  0.85390  1.0000
  S   S50       1.0  0.40544  0.13117  0.85792  1.0000
  Fe  Fe27      1.0  0.43342  0.23961  0.82448  1.0000
  S   S51       1.0  0.40126  0.22465  0.87819  1.0000
  H   H371      1.0  0.43842  0.27822  0.93805  1.0000
  H   H372      1.0  0.11047  0.36193  0.68963  1.0000
  H   H373      1.0  0.49358  0.24859  0.93461  1.0000
  C   C213      1.0  0.02395  0.49235  0.78547  1.0000
  H   H374      1.0  0.06024  0.49397  0.85974  1.0000
  H   H375      1.0  0.35409  0.35921  0.93342  1.0000
  C   C214      1.0  0.32611  0.06876  0.89284  1.0000
  C   C215      1.0  0.36120  0.05899  0.89107  1.0000
  C   C216      1.0  0.38551  0.07914  0.88107  1.0000
  C   C217      1.0  0.37518  0.10939  0.87287  1.0000
  C   C218      1.0  0.34035  0.11975  0.87518  1.0000
  C   C219      1.0  0.31586  0.09938  0.88504  1.0000
  H   H376      1.0  0.04372  0.43917  0.99009  1.0000
  H   H377      1.0  0.41233  0.07089  0.87945  1.0000
  H   H378      1.0  0.33199  0.14284  0.86877  1.0000
  H   H379      1.0  0.28876  0.10714  0.88640  1.0000
  H   H380      1.0  0.44691  0.15050  0.73325  1.0000
  C   C220      1.0  0.32143  0.38363  0.89462  1.0000
  C   C221      1.0  0.35413  0.36829  0.89181  1.0000
  C   C222      1.0  0.35640  0.33848  0.88091  1.0000
  C   C223      1.0  0.32597  0.32406  0.87246  1.0000
  C   C224      1.0  0.29343  0.33990  0.87480  1.0000
  C   C225      1.0  0.29115  0.36953  0.88584  1.0000
  H   H381      1.0  0.37775  0.37925  0.89837  1.0000
  H   H382      1.0  0.38161  0.32659  0.87914  1.0000
  H   H383      1.0  0.26984  0.32905  0.86817  1.0000
  H   H384      1.0  0.26591  0.38137  0.88767  1.0000
  C   C226      1.0  0.04147  0.46263  0.89746  1.0000
  C   C227      1.0  0.07093  0.47465  0.90801  1.0000
  C   C228      1.0  0.10291  0.45774  0.90728  1.0000
  C   C229      1.0  0.10521  0.42796  0.89671  1.0000
  C   C230      1.0  0.07584  0.41612  0.88588  1.0000
  C   C231      1.0  0.04406  0.43372  0.88603  1.0000
  H   H385      1.0  0.34122  0.18168  0.71016  1.0000
  H   H386      1.0  0.12567  0.46787  0.91492  1.0000
  H   H387      1.0  0.07754  0.39316  0.87759  1.0000
  H   H388      1.0  0.38656  0.04466  0.79521  1.0000
  H   H389      1.0  0.29865  0.04890  0.80711  1.0000
  H   H390      1.0  0.07323  0.42270  0.78076  1.0000
  H   H391      1.0  0.37013  0.03383  0.98221  1.0000
  C   C232      1.0  0.07334  0.46291  0.76007  1.0000
  H   H392      1.0  0.33234  0.22589  0.77065  1.0000
  C   C233      1.0  0.31003  0.20948  0.89561  1.0000
  C   C234      1.0  0.46623  0.13354  0.81086  1.0000
  H   H393      1.0  0.16699  0.46080  0.77185  1.0000
  H   H394      1.0  0.48409  0.15342  0.80548  1.0000
  H   H395      1.0  0.21358  0.46055  0.85808  1.0000
  H   H396      1.0  0.49480  0.16929  0.90302  1.0000
  H   H397      1.0  0.15923  0.41683  0.77501  1.0000
  C   C235      1.0  0.03771  0.46128  0.78993  1.0000
  H   H398      1.0  0.40641  0.06196  0.98741  1.0000
  C   C236      1.0  0.14187  0.38788  0.83754  1.0000
  C   C237      1.0  0.24683  0.31045  0.91995  1.0000
  H   H399      1.0  0.30691  0.22234  0.92621  1.0000
  C   C238      1.0  0.10406  0.40593  0.97612  1.0000
  H   H400      1.0  0.47756  0.13504  0.85193  1.0000
  C   C239      1.0  0.47949  0.02513  0.85962  1.0000
  S   S52       1.0  0.10492  0.44437  0.74467  1.0000
  C   C240      1.0  0.05736  0.49192  0.84345  1.0000
  H   H401      1.0  0.06913  0.49723  0.91665  1.0000
  H   H402      1.0  0.09400  0.43569  0.83455  1.0000
  C   C241      1.0  0.29938  0.20726  0.69571  1.0000
  S   S53       1.0  0.29436  0.04263  0.90397  1.0000
  H   H403      1.0  0.43793  0.32438  0.69812  1.0000
  H   H404      1.0  0.01204  0.49727  0.72041  1.0000
  Fe  Fe28      1.0  0.26612  0.43729  0.92045  1.0000
  H   H405      1.0  0.31133  0.43130  0.98207  1.0000
  H   H406      1.0  0.18724  0.35510  0.83927  1.0000
  H   H407      1.0  0.26583  0.02402  0.83424  1.0000
  C   C242      1.0  0.26459  0.26802  0.94438  1.0000
  C   C243      1.0  0.30897  0.30413  0.92952  1.0000
  H   H408      1.0  0.44185  0.32507  0.72479  1.0000
  H   H409      1.0  0.46137  0.31544  0.94619  1.0000
  C   C244      1.0  0.14792  0.44959  0.81087  1.0000
  H   H410      1.0  0.26347  0.02277  0.79748  1.0000
  H   H411      1.0  0.46517  0.07659  0.86108  1.0000
  H   H412      1.0  0.02126  0.42431  0.87791  1.0000
  C   C245      1.0  0.30671  0.43570  0.01383  1.0000
  H   H413      1.0  0.20798  0.25832  0.94029  1.0000
  H   H414      1.0  0.07537  0.40354  0.97294  1.0000
  C   C246      1.0  0.20202  0.46160  0.01033  1.0000
  H   H415      1.0  0.20198  0.46304  0.80280  1.0000
  H   H416      1.0  0.31935  0.31422  0.91545  1.0000
  H   H417      1.0  0.23546  0.22505  0.93135  1.0000
  H   H418      1.0  0.16399  0.36050  0.86224  1.0000
  C   C247      1.0  0.48797  0.06114  0.86526  1.0000
  H   H419      1.0  0.11089  0.45487  0.85655  1.0000
  H   H420      1.0  0.34829  0.41492  0.99559  1.0000
  H   H421      1.0  0.29830  0.32526  0.95911  1.0000
  H   H422      1.0  0.04473  0.44859  0.71017  1.0000
  H   H423      1.0  0.46743  0.09020  0.82877  1.0000
  S   S54       1.0  0.44955  0.24803  0.79263  1.0000
  H   H424      1.0  0.20151  0.34867  0.89687  1.0000
  N   N12       1.0  0.27464  0.28549  0.92565  1.0000
  H   H425      1.0  0.25817  0.28640  0.95609  1.0000
  S   S55       1.0  0.48305  0.01636  0.70149  1.0000
  H   H426      1.0  0.46661  0.30003  0.92124  1.0000
  H   H427      1.0  0.11535  0.38843  0.84431  1.0000
  H   H428      1.0  0.04016  0.47025  0.83965  1.0000
  H   H429      1.0  0.17670  0.33155  0.91710  1.0000
  H   H430      1.0  0.44965  0.06806  0.77974  1.0000
  H   H431      1.0  0.40031  0.06479  0.83791  1.0000
  H   H432      1.0  0.04228  0.48024  0.99901  1.0000
  C   C248      1.0  0.44859  0.20183  0.72347  1.0000
  C   C249      1.0  0.28078  0.26140  0.90887  1.0000
  H   H433      1.0  0.13892  0.47342  0.80457  1.0000
  H   H434      1.0  0.22321  0.24369  0.97479  1.0000
  N   N13       1.0  0.14895  0.45164  0.83311  1.0000
  H   H435      1.0  0.25924  0.33206  0.91260  1.0000
  C   C250      1.0  0.16081  0.35785  0.84599  1.0000
  H   H436      1.0  0.28762  0.27534  0.89533  1.0000
  C   C251      1.0  0.34384  0.34968  0.94756  1.0000
  H   H437      1.0  0.06037  0.46345  0.95575  1.0000
  C   C252      1.0  0.04663  0.47707  0.96762  1.0000
  H   H438      1.0  0.31792  0.21090  0.72554  1.0000
  C   C253      1.0  0.18318  0.44203  0.80060  1.0000
  C   C254      1.0  0.22728  0.22583  0.96246  1.0000
  H   H439      1.0  0.48379  0.03687  0.74343  1.0000
  H   H440      1.0  0.02943  0.44866  0.80312  1.0000
  N   N14       1.0  0.09513  0.46284  0.99362  1.0000
  Fe  Fe29      1.0  0.45318  0.24513  0.86796  1.0000
  H   H441      1.0  0.35737  0.06009  0.82622  1.0000
  H   H442      1.0  0.16853  0.31696  0.89225  1.0000
  H   H443      1.0  0.16366  0.42332  0.85860  1.0000
  H   H444      1.0  0.08513  0.42150  0.01313  1.0000
  H   H445      1.0  0.14504  0.33500  0.84279  1.0000
  H   H446      1.0  0.13884  0.38386  0.82141  1.0000
  H   H447      1.0  0.11407  0.45401  0.96404  1.0000
  H   H448      1.0  0.50197  0.31315  0.83972  1.0000
  C   C255      1.0  0.39215  0.01761  0.82254  1.0000
  H   H449      1.0  0.28475  0.19523  0.89534  1.0000
  H   H450      1.0  0.33189  0.19183  0.89803  1.0000
  S   S56       1.0  0.46093  0.20564  0.84522  1.0000
  H   H451      1.0  0.20333  0.43251  0.77124  1.0000
  H   H452      1.0  0.25060  0.21036  0.96583  1.0000
  C   C256      1.0  0.32890  0.43532  0.99514  1.0000
  H   H453      1.0  0.35900  0.25533  0.74240  1.0000
  H   H454      1.0  0.37563  0.23430  0.78117  1.0000
  H   H455      1.0  0.19507  0.41889  0.80609  1.0000
  C   C257      1.0  0.39937  0.03639  0.98244  1.0000
  H   H456      1.0  0.22408  0.46318  0.83248  1.0000
  C   C258      1.0  0.12337  0.38966  0.95893  1.0000
  H   H457      1.0  0.45508  0.01684  0.86716  1.0000
  C   C259      1.0  0.17066  0.48137  0.84021  1.0000
  S   S57       1.0  0.42980  0.28140  0.84672  1.0000
  H   H458      1.0  0.11693  0.40217  0.94483  1.0000
  H   H459      1.0  0.15238  0.39075  0.96148  1.0000
  H   H460      1.0  0.11515  0.36323  0.95753  1.0000
  C   C260      1.0  0.16281  0.42034  0.84225  1.0000
  H   H461      1.0  0.42211  0.25918  0.69698  1.0000
  C   C261      1.0  0.18935  0.32568  0.90281  1.0000
  H   H462      1.0  0.28677  0.23198  0.69544  1.0000
  H   H463      1.0  0.28741  0.25415  0.95043  1.0000
  H   H464      1.0  0.20372  0.27598  0.91017  1.0000
  H   H465      1.0  0.45541  0.11967  0.79790  1.0000
  H   H466      1.0  0.32959  0.28717  0.93516  1.0000
  S   S58       1.0  0.22547  0.46573  0.90317  1.0000
  S   S59       1.0  0.26187  0.46945  0.94784  1.0000
  C   C262      1.0  0.20743  0.42741  0.00941  1.0000
  H   H467      1.0  0.08901  0.48908  0.81765  1.0000
  C   C263      1.0  0.09337  0.48865  0.83384  1.0000
  S   S60       1.0  0.17655  0.45914  0.94301  1.0000
  S   S61       1.0  0.21783  0.40695  0.98708  1.0000
  H   H468      1.0  0.12783  0.43097  0.80573  1.0000
  C   C264      1.0  0.21718  0.29890  0.90533  1.0000
  C   C265      1.0  0.35921  0.21577  0.77288  1.0000
  H   H469      1.0  0.22844  0.29406  0.89053  1.0000
  H   H470      1.0  0.19053  0.41586  0.83803  1.0000
  H   H471      1.0  0.38068  0.30150  0.72697  1.0000
  C   C266      1.0  0.30744  0.33355  0.94449  1.0000
  H   H472      1.0  0.35839  0.18915  0.74542  1.0000
  Fe  Fe30      1.0  0.22100  0.43236  0.95734  1.0000
  C   C267      1.0  0.21050  0.47592  0.84467  1.0000
  H   H473      1.0  0.44383  0.14494  0.81877  1.0000
  S   S62       1.0  0.17619  0.48954  0.71243  1.0000
  H   H474      1.0  0.16008  0.49122  0.85439  1.0000
  C   C268      1.0  0.40689  0.02904  0.80251  1.0000
  H   H475      1.0  0.28948  0.35313  0.93920  1.0000
  C   C269      1.0  0.46272  0.16653  0.72336  1.0000
  H   H476      1.0  0.40431  0.25282  0.74856  1.0000
  H   H477      1.0  0.34280  0.25786  0.70849  1.0000
  H   H478      1.0  0.20388  0.47621  0.99708  1.0000
  H   H479      1.0  0.14411  0.44312  0.98292  1.0000
  C   C270      1.0  0.47190  0.05765  0.75171  1.0000
  H   H480      1.0  0.39595  0.18089  0.72006  1.0000
  C   C271      1.0  0.11157  0.45609  0.84013  1.0000
  H   H481      1.0  0.36279  0.33164  0.95373  1.0000
  H   H482      1.0  0.20367  0.20929  0.96126  1.0000
  H   H483      1.0  0.40737  0.03047  0.76208  1.0000
  H   H484      1.0  0.33665  0.24793  0.91213  1.0000
  C   C272      1.0  0.37845  0.04699  0.83442  1.0000
  N   N15       1.0  0.39061  0.23444  0.71910  1.0000
  H   H485      1.0  0.40473  0.01630  0.01136  1.0000
  Fe  Fe31      1.0  0.21737  0.49438  0.93139  1.0000
  H   H486      1.0  0.40131  0.19497  0.75617  1.0000
  C   C273      1.0  0.38241  0.23914  0.74074  1.0000
  C   C274      1.0  0.37590  0.20739  0.75305  1.0000
  C   C275      1.0  0.23237  0.24414  0.94305  1.0000
  C   C276      1.0  0.02222  0.43370  0.71580  1.0000
  C   C277      1.0  0.35730  0.23427  0.70664  1.0000
  H   H487      1.0  0.35705  0.19307  0.78193  1.0000
  H   H488      1.0  0.48153  0.25803  0.75509  1.0000
  H   H489      1.0  0.49726  0.11892  0.88189  1.0000
  C   C278      1.0  0.05913  0.49369  0.75556  1.0000
  C   C279      1.0  0.06253  0.44670  0.77728  1.0000
  H   H490      1.0  0.02239  0.40899  0.70845  1.0000
  C   C280      1.0  0.49990  0.24420  0.76402  1.0000
  C   C281      1.0  0.45969  0.04593  0.77191  1.0000
  H   H491      1.0  0.43775  0.26524  0.72163  1.0000
  C   C282      1.0  0.41053  0.20304  0.71485  1.0000
  H   H492      1.0  0.38066  0.14127  0.69272  1.0000
  H   H493      1.0  0.49057  0.16681  0.72869  1.0000
  C   C283      1.0  0.05630  0.46404  0.98840  1.0000
  C   C284      1.0  0.43034  0.01893  0.76969  1.0000
  H   H494      1.0  0.11052  0.39163  0.98955  1.0000
  H   H495      1.0  0.13306  0.49793  0.00643  1.0000
  H   H496      1.0  0.41268  0.19912  0.69863  1.0000
  H   H497      1.0  0.40944  0.03268  0.96726  1.0000
  H   H498      1.0  0.49208  0.07761  0.75351  1.0000
  H   H499      1.0  0.27905  0.18842  0.69958  1.0000
  C   C285      1.0  0.22974  0.50883  0.84873  1.0000
  H   H500      1.0  0.46167  0.15587  0.70820  1.0000
  H   H501      1.0  0.48296  0.03633  0.78004  1.0000
  H   H502      1.0  0.36426  0.23272  0.69074  1.0000
  H   H503      1.0  0.49094  0.06232  0.88158  1.0000
  C   C286      1.0  0.46339  0.29275  0.93689  1.0000
  S   S63       1.0  0.09447  0.51092  0.70128  1.0000
  C   C287      1.0  0.11070  0.49753  0.99560  1.0000
  H   H504      1.0  0.02568  0.43017  0.73192  1.0000
  C   C288      1.0  0.39574  0.29792  0.71320  1.0000
  H   H505      1.0  0.05308  0.50388  0.96671  1.0000
  H   H506      1.0  0.16845  0.50209  0.82955  1.0000
  C   C289      1.0  0.09900  0.44598  0.01334  1.0000
  H   H507      1.0  0.47530  0.02263  0.84345  1.0000
  S   S64       1.0  0.49582  0.25139  0.89097  1.0000
  H   H508      1.0  0.25778  0.50415  0.85265  1.0000
  C   C290      1.0  0.00708  0.47325  0.96332  1.0000
  H   H509      1.0  0.12736  0.44065  0.01641  1.0000
  H   H510      1.0  0.29203  0.41176  0.01411  1.0000
  H   H511      1.0  0.46665  0.21725  0.71444  1.0000
  C   C291      1.0  0.49111  0.23626  0.78349  1.0000
  H   H512      1.0  0.34307  0.45936  0.99338  1.0000
  C   C292      1.0  0.28908  0.02284  0.80564  1.0000
  H   H513      1.0  0.44938  0.06744  0.74298  1.0000
  H   H514      1.0  0.49313  0.09441  0.71292  1.0000
  H   H515      1.0  0.06735  0.50643  0.74243  1.0000
  H   H516      1.0  0.44447  0.01619  0.99704  1.0000
  H   H517      1.0  0.36730  0.03803  0.84850  1.0000
  C   C293      1.0  0.42310  0.32599  0.71210  1.0000
  C   C294      1.0  0.50098  0.12861  0.84303  1.0000
  Fe  Fe32      1.0  0.42782  0.02352  0.69038  1.0000
  S   S65       1.0  0.40460  0.07431  0.69602  1.0000
  H   H518      1.0  0.10982  0.50980  0.96353  1.0000
  C   C295      1.0  0.48622  0.11006  0.82442  1.0000
  H   H519      1.0  0.37740  0.30062  0.70041  1.0000
  H   H520      1.0  0.40952  0.35022  0.71250  1.0000
  H   H521      1.0  0.10929  0.51074  0.83820  1.0000
  H   H522      1.0  0.15260  0.50229  0.97386  1.0000
  H   H523      1.0  0.24204  0.51279  0.68886  1.0000
  H   H524      1.0  0.28751  0.45604  0.01224  1.0000
  Fe  Fe33      1.0  0.43091  0.98266  0.33137  1.0000
  H   H525      1.0  0.01645  0.74664  0.23149  1.0000
  H   H526      1.0  0.43838  0.83204  0.13466  1.0000
  C   C296      1.0  0.08527  0.55297  0.10545  1.0000
  H   H527      1.0  0.12974  0.65804  0.12422  1.0000
  C   C297      1.0  0.05154  0.85777  0.14031  1.0000
  H   H528      1.0  0.28055  0.56651  0.33452  1.0000
  S   S66       1.0  0.25341  0.55724  0.14189  1.0000
  H   H529      1.0  0.05579  0.55058  0.14060  1.0000
  H   H530      1.0  0.41200  0.95045  0.06349  1.0000
  Fe  Fe34      1.0  0.10095  0.73511  0.18585  1.0000
  S   S67       1.0  0.09712  0.69979  0.21097  1.0000
  S   S68       1.0  0.05937  0.73001  0.16196  1.0000
  Fe  Fe35      1.0  0.17175  0.76327  0.19945  1.0000
  S   S69       1.0  0.17417  0.72903  0.22548  1.0000
  S   S70       1.0  0.21540  0.80223  0.19696  1.0000
  Fe  Fe36      1.0  0.15398  0.68937  0.20462  1.0000
  S   S71       1.0  0.16657  0.63478  0.20671  1.0000
  Fe  Fe37      1.0  0.11736  0.74184  0.22983  1.0000
  S   S72       1.0  0.10074  0.75560  0.26082  1.0000
  S   S73       1.0  0.15678  0.72215  0.17815  1.0000
  S   S74       1.0  0.11589  0.77872  0.20518  1.0000
  H   H531      1.0  0.12037  0.68696  0.14397  1.0000
  C   C298      1.0  0.17423  0.56737  0.29271  1.0000
  C   C299      1.0  0.07665  0.61921  0.31157  1.0000
  S   S75       1.0  0.33129  0.92297  0.10328  1.0000
  S   S76       1.0  0.23950  0.89375  0.12235  1.0000
  H   H532      1.0  0.44917  0.78867  0.13378  1.0000
  S   S77       1.0  0.40931  0.92218  0.14222  1.0000
  C   C300      1.0  0.22074  0.82772  0.17615  1.0000
  C   C301      1.0  0.20875  0.81777  0.15743  1.0000
  C   C302      1.0  0.21476  0.83824  0.14106  1.0000
  C   C303      1.0  0.23286  0.86869  0.14327  1.0000
  C   C304      1.0  0.24488  0.87858  0.16201  1.0000
  C   C305      1.0  0.23867  0.85822  0.17838  1.0000
  H   H533      1.0  0.19547  0.79404  0.15555  1.0000
  H   H534      1.0  0.20593  0.83023  0.12655  1.0000
  H   H535      1.0  0.25849  0.90212  0.16391  1.0000
  H   H536      1.0  0.24766  0.86622  0.19288  1.0000
  C   C306      1.0  0.06247  0.73865  0.27146  1.0000
  H   H537      1.0  0.14821  0.67440  0.32061  1.0000
  C   C307      1.0  0.13573  0.61780  0.29728  1.0000
  Fe  Fe38      1.0  0.36102  0.94619  0.12886  1.0000
  H   H538      1.0  0.16894  0.78931  0.33720  1.0000
  C   C308      1.0  0.05057  0.75186  0.28938  1.0000
  C   C309      1.0  0.01923  0.79947  0.23331  1.0000
  H   H539      1.0  0.28166  0.74746  0.20796  1.0000
  H   H540      1.0  0.06466  0.77252  0.29623  1.0000
  C   C310      1.0  0.22720  0.57891  0.15895  1.0000
  C   C311      1.0  0.20466  0.56194  0.17166  1.0000
  C   C312      1.0  0.18608  0.57948  0.18615  1.0000
  C   C313      1.0  0.18909  0.61410  0.18767  1.0000
  C   C314      1.0  0.21053  0.63125  0.17447  1.0000
  C   C315      1.0  0.22988  0.61363  0.16030  1.0000
  H   H541      1.0  0.20239  0.53521  0.17069  1.0000
  H   H542      1.0  0.16954  0.56619  0.19632  1.0000
  H   H543      1.0  0.21302  0.65794  0.17556  1.0000
  H   H544      1.0  0.24723  0.62686  0.15047  1.0000
  H   H545      1.0  0.04474  0.79164  0.18289  1.0000
  H   H546      1.0  0.05333  0.70157  0.24894  1.0000
  C   C316      1.0  0.47572  0.93837  0.15651  1.0000
  C   C317      1.0  0.44380  0.95006  0.14869  1.0000
  C   C318      1.0  0.43969  0.98404  0.14602  1.0000
  H   H547      1.0  0.29006  0.90984  0.31656  1.0000
  H   H548      1.0  0.07450  0.60062  0.23905  1.0000
  H   H549      1.0  0.25010  0.52763  0.06081  1.0000
  H   H550      1.0  0.04550  0.84727  0.15494  1.0000
  N   N16       1.0  0.10005  0.63378  0.29595  1.0000
  H   H551      1.0  0.18683  0.57131  0.30743  1.0000
  Fe  Fe39      1.0  0.28306  0.93319  0.12152  1.0000
  H   H552      1.0  0.28050  0.82688  0.11960  1.0000
  H   H553      1.0  0.03063  0.61901  0.34400  1.0000
  C   C319      1.0  0.10473  0.67071  0.29884  1.0000
  H   H554      1.0  0.14698  0.62086  0.31243  1.0000
  H   H555      1.0  0.12438  0.57377  0.27817  1.0000
  C   C320      1.0  0.01395  0.69880  0.27172  1.0000
  H   H556      1.0  0.49266  0.99030  0.22707  1.0000
  H   H557      1.0  0.34843  0.89292  0.16298  1.0000
  C   C321      1.0  0.08459  0.62657  0.23891  1.0000
  H   H558      1.0  0.31566  0.73051  0.19264  1.0000
  C   C322      1.0  0.08755  0.54210  0.20126  1.0000
  H   H559      1.0  0.40972  0.89742  0.03049  1.0000
  C   C323      1.0  0.00424  0.67122  0.19749  1.0000
  H   H560      1.0  0.22041  0.78721  0.35015  1.0000
  H   H561      1.0  0.34848  0.93707  0.18839  1.0000
  H   H562      1.0  0.02859  0.80240  0.21797  1.0000
  C   C324      1.0  0.00508  0.60943  0.13893  1.0000
  H   H563      1.0  0.40544  0.99875  0.27589  1.0000
  H   H564      1.0  0.10525  0.67160  0.33157  1.0000
  H   H565      1.0  0.28244  0.62824  0.33741  1.0000
  H   H566      1.0  0.00305  0.59160  0.25599  1.0000
  C   C325      1.0  0.10552  0.63470  0.25776  1.0000
  C   C326      1.0  0.08169  0.58250  0.11953  1.0000
  S   S78       1.0  0.35924  0.99697  0.11595  1.0000
  H   H567      1.0  0.30800  0.85423  0.10558  1.0000
  C   C327      1.0  0.19187  0.83860  0.32985  1.0000
  C   C328      1.0  0.44753  0.98995  0.20613  1.0000
  C   C329      1.0  0.13252  0.81445  0.31862  1.0000
  H   H568      1.0  0.29936  0.93515  0.05336  1.0000
  H   H569      1.0  0.17994  0.86328  0.32783  1.0000
  H   H570      1.0  0.05976  0.59784  0.11402  1.0000
  H   H571      1.0  0.09292  0.56115  0.21287  1.0000
  H   H572      1.0  0.34148  0.90702  0.20749  1.0000
  C   C330      1.0  0.31968  0.97961  0.04011  1.0000
  H   H573      1.0  0.29965  0.80418  0.19981  1.0000
  H   H574      1.0  0.05870  0.64261  0.27450  1.0000
  C   C331      1.0  0.25940  0.56317  0.34563  1.0000
  H   H575      1.0  0.35464  0.85202  0.13159  1.0000
  C   C332      1.0  0.02020  0.84652  0.12671  1.0000
  H   H576      1.0  0.19000  0.58032  0.28134  1.0000
  H   H577      1.0  0.11683  0.90566  0.08363  1.0000
  H   H578      1.0  0.41506  0.99343  0.14070  1.0000
  C   C333      1.0  0.07584  0.57101  0.14105  1.0000
  C   C334      1.0  0.08274  0.62735  0.27611  1.0000
  C   C335      1.0  0.13637  0.58001  0.29274  1.0000
  H   H579      1.0  0.40341  0.77570  0.15799  1.0000
  H   H580      1.0  0.10172  0.62939  0.22592  1.0000
  C   C336      1.0  0.30316  0.94843  0.03976  1.0000
  H   H581      1.0  0.12258  0.68108  0.28748  1.0000
  H   H582      1.0  0.03790  0.56127  0.19147  1.0000
  H   H583      1.0  0.47907  0.91208  0.15872  1.0000
  H   H584      1.0  0.09045  0.61898  0.32613  1.0000
  H   H585      1.0  0.31405  0.86924  0.14045  1.0000
  H   H586      1.0  0.02085  0.67212  0.18413  1.0000
  H   H587      1.0  0.12170  0.56611  0.30414  1.0000
  C   C337      1.0  0.23910  0.80632  0.34458  1.0000
  H   H588      1.0  0.32216  0.81260  0.11016  1.0000
  H   H589      1.0  0.16291  0.66737  0.14278  1.0000
  S   S79       1.0  0.45033  0.95980  0.30279  1.0000
  H   H590      1.0  0.13310  0.73195  0.30884  1.0000
  H   H591      1.0  0.20169  0.83121  0.31502  1.0000
  H   H592      1.0  0.29587  0.82005  0.15645  1.0000
  H   H593      1.0  0.46944  0.93231  0.22636  1.0000
  C   C338      1.0  0.04420  0.71192  0.26269  1.0000
  Fe  Fe40      1.0  0.12682  0.53477  0.35090  1.0000
  H   H594      1.0  0.26604  0.87408  0.35110  1.0000
  C   C339      1.0  0.48694  0.94126  0.21446  1.0000
  H   H595      1.0  0.05035  0.88521  0.14234  1.0000
  H   H596      1.0  0.44847  0.92048  0.03842  1.0000
  H   H597      1.0  0.00268  0.82095  0.23738  1.0000
  H   H598      1.0  0.42811  0.97279  0.21277  1.0000
  C   C340      1.0  0.48523  0.97856  0.28975  1.0000
  C   C341      1.0  0.02576  0.59888  0.15760  1.0000
  C   C342      1.0  0.50138  0.00785  0.29659  1.0000
  H   H599      1.0  0.07087  0.59262  0.30817  1.0000
  H   H600      1.0  0.09266  0.56182  0.09059  1.0000
  C   C343      1.0  0.25825  0.62623  0.34645  1.0000
  H   H601      1.0  0.15486  0.63064  0.28752  1.0000
  H   H602      1.0  0.47910  0.92906  0.20029  1.0000
  H   H603      1.0  0.26956  0.85321  0.32810  1.0000
  H   H604      1.0  0.30764  0.91373  0.18892  1.0000
  H   H605      1.0  0.17403  0.54042  0.28919  1.0000
  H   H606      1.0  0.07306  0.60120  0.27490  1.0000
  Fe  Fe41      1.0  0.32489  0.97479  0.09202  1.0000
  H   H607      1.0  0.38194  0.88686  0.18148  1.0000
  H   H608      1.0  0.41112  0.90613  0.06659  1.0000
  C   C344      1.0  0.11962  0.71980  0.32137  1.0000
  C   C345      1.0  0.23739  0.89598  0.32669  1.0000
  H   H609      1.0  0.09195  0.72845  0.32203  1.0000
  C   C346      1.0  0.04048  0.63625  0.31429  1.0000
  H   H610      1.0  0.37381  0.92631  0.05554  1.0000
  H   H611      1.0  0.29259  0.82289  0.35490  1.0000
  H   H612      1.0  0.32739  0.75447  0.21459  1.0000
  H   H613      1.0  0.25158  0.52668  0.31297  1.0000
  C   C347      1.0  0.13413  0.66369  0.14012  1.0000
  H   H614      1.0  0.22799  0.88841  0.31170  1.0000
  H   H615      1.0  0.10640  0.59743  0.11861  1.0000
  H   H616      1.0  0.10607  0.53590  0.11075  1.0000
  C   C348      1.0  0.16052  0.81521  0.33504  1.0000
  H   H617      1.0  0.07928  0.68352  0.29645  1.0000
  N   N17       1.0  0.08794  0.84814  0.13355  1.0000
  C   C349      1.0  0.11415  0.86188  0.14862  1.0000
  C   C350      1.0  0.09378  0.86367  0.11352  1.0000
  H   H618      1.0  0.24575  0.79857  0.32925  1.0000
  C   C351      1.0  0.08921  0.81087  0.13213  1.0000
  C   C352      1.0  0.12442  0.79653  0.12489  1.0000
  C   C353      1.0  0.11428  0.84534  0.16919  1.0000
  C   C354      1.0  0.40945  0.95040  0.02245  1.0000
  C   C355      1.0  0.13213  0.87416  0.10818  1.0000
  C   C356      1.0  0.13466  0.88462  0.08665  1.0000
  C   C357      1.0  0.12518  0.75894  0.12707  1.0000
  C   C358      1.0  0.13612  0.86595  0.18405  1.0000
  C   C359      1.0  0.12029  0.68209  0.31913  1.0000
  H   H619      1.0  0.11017  0.88905  0.15058  1.0000
  H   H620      1.0  0.14173  0.85951  0.14359  1.0000
  H   H621      1.0  0.08365  0.84679  0.10157  1.0000
  H   H622      1.0  0.07816  0.88679  0.11199  1.0000
  C   C360      1.0  0.26734  0.92124  0.32417  1.0000
  H   H623      1.0  0.44532  0.98482  0.18998  1.0000
  H   H624      1.0  0.08246  0.79955  0.14654  1.0000
  H   H625      1.0  0.06867  0.80114  0.12167  1.0000
  H   H626      1.0  0.14699  0.80700  0.13339  1.0000
  H   H627      1.0  0.12791  0.80205  0.10903  1.0000
  H   H628      1.0  0.08759  0.84222  0.17539  1.0000
  H   H629      1.0  0.12636  0.82045  0.16807  1.0000
  H   H630      1.0  0.28808  0.78033  0.17808  1.0000
  H   H631      1.0  0.11013  0.79816  0.32300  1.0000
  H   H632      1.0  0.14080  0.89576  0.11743  1.0000
  H   H633      1.0  0.15113  0.85394  0.11051  1.0000
  H   H634      1.0  0.12769  0.86351  0.07664  1.0000
  S   S80       1.0  0.31338  0.95331  0.14775  1.0000
  H   H635      1.0  0.16219  0.89270  0.08353  1.0000
  H   H636      1.0  0.15002  0.74916  0.12088  1.0000
  H   H637      1.0  0.12425  0.75238  0.14289  1.0000
  H   H638      1.0  0.10242  0.74698  0.11921  1.0000
  H   H639      1.0  0.16280  0.87142  0.17824  1.0000
  H   H640      1.0  0.12281  0.88970  0.18734  1.0000
  H   H641      1.0  0.13920  0.85207  0.19801  1.0000
  H   H642      1.0  0.35151  0.76929  0.17175  1.0000
  C   C361      1.0  0.29076  0.76986  0.35404  1.0000
  C   C362      1.0  0.02231  0.75571  0.16255  1.0000
  N   N18       1.0  0.06545  0.59725  0.15596  1.0000
  C   C363      1.0  0.07982  0.63129  0.15125  1.0000
  H   H643      1.0  0.23454  0.62619  0.33664  1.0000
  C   C364      1.0  0.07996  0.58793  0.17600  1.0000
  H   H644      1.0  0.45687  0.81222  0.15620  1.0000
  C   C365      1.0  0.12059  0.63515  0.15271  1.0000
  C   C366      1.0  0.06402  0.55588  0.18496  1.0000
  H   H645      1.0  0.06229  0.64389  0.23732  1.0000
  H   H646      1.0  0.06857  0.65021  0.16143  1.0000
  H   H647      1.0  0.07125  0.63931  0.13641  1.0000
  C   C367      1.0  0.02046  0.73859  0.29848  1.0000
  H   H648      1.0  0.14360  0.80443  0.30471  1.0000
  H   H649      1.0  0.07607  0.60844  0.18690  1.0000
  H   H650      1.0  0.10907  0.58458  0.17533  1.0000
  H   H651      1.0  0.10082  0.55872  0.14560  1.0000
  H   H652      1.0  0.12972  0.61955  0.25750  1.0000
  H   H653      1.0  0.12820  0.64057  0.16828  1.0000
  H   H654      1.0  0.13427  0.61222  0.14810  1.0000
  H   H655      1.0  0.11349  0.66124  0.25728  1.0000
  C   C368      1.0  0.40309  0.92654  0.05670  1.0000
  H   H656      1.0  0.44417  0.98642  0.24798  1.0000
  H   H657      1.0  0.38489  0.79581  0.13668  1.0000
  S   S81       1.0  0.07025  0.52311  0.34324  1.0000
  C   C369      1.0  0.46757  0.00612  0.15024  1.0000
  H   H658      1.0  0.32692  0.79476  0.14466  1.0000
  N   N19       1.0  0.34842  0.82286  0.16943  1.0000
  C   C370      1.0  0.38658  0.82700  0.16365  1.0000
  C   C371      1.0  0.33771  0.85114  0.18284  1.0000
  C   C372      1.0  0.34525  0.79122  0.18109  1.0000
  C   C373      1.0  0.32392  0.81956  0.15177  1.0000
  C   C374      1.0  0.32703  0.84613  0.13554  1.0000
  C   C375      1.0  0.40158  0.79955  0.15007  1.0000
  C   C376      1.0  0.30827  0.78383  0.18992  1.0000
  C   C377      1.0  0.35303  0.88607  0.17849  1.0000
  C   C378      1.0  0.33654  0.91249  0.19169  1.0000
  C   C379      1.0  0.30828  0.83415  0.11661  1.0000
  C   C380      1.0  0.43877  0.80877  0.14331  1.0000
  C   C381      1.0  0.30849  0.75209  0.20200  1.0000
  H   H659      1.0  0.40364  0.82860  0.17715  1.0000
  H   H660      1.0  0.39117  0.85085  0.15603  1.0000
  H   H661      1.0  0.30856  0.85313  0.18304  1.0000
  H   H662      1.0  0.34576  0.84614  0.19839  1.0000
  H   H663      1.0  0.36492  0.79141  0.19346  1.0000
  H   H664      1.0  0.04266  0.79931  0.24331  1.0000
  H   H665      1.0  0.31559  0.00778  0.19985  1.0000
  C   C382      1.0  0.02189  0.78468  0.17403  1.0000
  H   H666      1.0  0.48556  0.94052  0.26718  1.0000
  H   H667      1.0  0.06041  0.53623  0.17357  1.0000
  H   H668      1.0  0.01441  0.57418  0.16138  1.0000
  C   C383      1.0  0.48487  0.97893  0.21273  1.0000
  H   H669      1.0  0.37469  0.98758  0.20757  1.0000
  H   H670      1.0  0.34406  0.01229  0.17900  1.0000
  H   H671      1.0  0.00675  0.58978  0.12741  1.0000
  H   H672      1.0  0.04393  0.66210  0.31983  1.0000
  H   H673      1.0  0.01861  0.61587  0.16992  1.0000
  C   C384      1.0  0.49779  0.96333  0.27251  1.0000
  N   N20       1.0  0.22235  0.84014  0.34446  1.0000
  C   C385      1.0  0.26833  0.52957  0.04813  1.0000
  H   H674      1.0  0.05972  0.53931  0.10413  1.0000
  S   S82       1.0  0.27461  0.98366  0.10837  1.0000
  H   H675      1.0  0.39997  0.99258  0.24009  1.0000
  H   H676      1.0  0.12216  0.83967  0.31600  1.0000
  H   H677      1.0  0.27904  0.55530  0.04772  1.0000
  H   H678      1.0  0.11287  0.53393  0.19491  1.0000
  H   H679      1.0  0.16398  0.51504  0.21612  1.0000
  H   H680      1.0  0.31631  0.52322  0.34516  1.0000
  H   H681      1.0  0.23382  0.56371  0.33730  1.0000
  S   S83       1.0  0.37661  0.00451  0.33335  1.0000
  H   H682      1.0  0.25334  0.52463  0.03422  1.0000
  C   C386      1.0  0.01802  0.61763  0.32915  1.0000
  C   C387      1.0  0.25016  0.86511  0.33810  1.0000
  S   S84       1.0  0.14334  0.58869  0.35192  1.0000
  H   H683      1.0  0.13332  0.72743  0.33530  1.0000
  H   H684      1.0  0.30064  0.76830  0.33871  1.0000
  H   H685      1.0  0.25792  0.94237  0.31526  1.0000
  H   H686      1.0  0.00838  0.61663  0.23426  1.0000
  C   C388      1.0  0.42370  0.00551  0.24599  1.0000
  C   C389      1.0  0.49943  0.99460  0.15801  1.0000
  S   S85       1.0  0.33680  0.99725  0.06218  1.0000
  H   H687      1.0  0.02584  0.84989  0.11085  1.0000
  C   C390      1.0  0.41943  0.92165  0.03637  1.0000
  Fe  Fe42      1.0  0.30974  0.00285  0.13307  1.0000
  C   C391      1.0  0.32438  0.99663  0.02235  1.0000
  H   H688      1.0  0.02523  0.63677  0.30026  1.0000
  H   H689      1.0  0.01437  0.59134  0.32449  1.0000
  H   H690      1.0  0.00660  0.72401  0.20061  1.0000
  H   H691      1.0  0.27630  0.93103  0.33876  1.0000
  H   H692      1.0  0.01418  0.81982  0.12909  1.0000
  H   H693      1.0  0.01140  0.74902  0.31227  1.0000
  H   H694      1.0  0.06284  0.51435  0.24727  1.0000
  H   H695      1.0  0.02152  0.66618  0.21041  1.0000
  H   H696      1.0  0.41898  0.97358  0.02990  1.0000
  H   H697      1.0  0.01494  0.63324  0.13301  1.0000
  H   H698      1.0  0.07435  0.52031  0.20800  1.0000
  H   H699      1.0  0.21553  0.90865  0.33425  1.0000
  H   H700      1.0  0.14752  0.82406  0.34866  1.0000
  H   H701      1.0  0.38023  0.95239  0.02222  1.0000
  C   C392      1.0  0.29196  0.93414  0.02168  1.0000
  Fe  Fe43      1.0  0.26391  0.77314  0.63549  1.0000
  S   S86       1.0  0.24037  0.80862  0.61403  1.0000
  S   S87       1.0  0.30219  0.78925  0.65985  1.0000
  Fe  Fe44      1.0  0.21723  0.71518  0.62050  1.0000
  S   S88       1.0  0.18956  0.74676  0.59820  1.0000
  S   S89       1.0  0.20140  0.66091  0.62030  1.0000
  Fe  Fe45      1.0  0.24351  0.76707  0.59170  1.0000
  S   S90       1.0  0.26732  0.77065  0.56117  1.0000
  Fe  Fe46      1.0  0.18870  0.78516  0.62240  1.0000
  S   S91       1.0  0.14335  0.81639  0.63258  1.0000
  S   S92       1.0  0.27159  0.73307  0.61270  1.0000
  S   S93       1.0  0.21179  0.75184  0.64518  1.0000
  C   C393      1.0  0.03981  0.57783  0.38439  1.0000
  C   C394      1.0  0.09469  0.74638  0.46760  1.0000
  H   H702      1.0  0.11680  0.71022  0.57087  1.0000
  H   H703      1.0  0.17172  0.58513  0.51600  1.0000
  S   S94       1.0  0.38810  0.92465  0.65121  1.0000
  N   N21       1.0  0.20281  0.67763  0.53802  1.0000
  H   H704      1.0  0.36953  0.89522  0.37025  1.0000
  C   C395      1.0  0.15191  0.59449  0.52659  1.0000
  Fe  Fe47      1.0  0.18500  0.77079  0.40632  1.0000
  S   S95       1.0  0.23485  0.74615  0.39705  1.0000
  S   S96       1.0  0.14597  0.77850  0.38155  1.0000
  Fe  Fe48      1.0  0.20708  0.77219  0.44985  1.0000
  S   S97       1.0  0.25858  0.74726  0.44372  1.0000
  S   S98       1.0  0.18326  0.78287  0.47987  1.0000
  Fe  Fe49      1.0  0.26185  0.78227  0.41790  1.0000
  S   S99       1.0  0.31349  0.80603  0.40793  1.0000
  Fe  Fe50      1.0  0.22675  0.71383  0.42326  1.0000
  S   S100      1.0  0.22692  0.65764  0.42303  1.0000
  S   S101      1.0  0.21220  0.80952  0.42534  1.0000
  S   S102      1.0  0.17524  0.73622  0.43117  1.0000
  H   H705      1.0  0.24441  0.94728  0.59862  1.0000
  H   H706      1.0  0.15339  0.97022  0.65652  1.0000
  H   H707      1.0  0.48796  0.89568  0.40404  1.0000
  C   C396      1.0  0.18007  0.69814  0.55158  1.0000
  S   S103      1.0  0.32121  0.95113  0.37180  1.0000
  H   H708      1.0  0.10294  0.76802  0.68616  1.0000
  C   C397      1.0  0.17334  0.58951  0.38935  1.0000
  H   H709      1.0  0.29649  0.70040  0.57046  1.0000
  C   C398      1.0  0.47005  0.87383  0.40590  1.0000
  H   H710      1.0  0.23297  0.69084  0.57725  1.0000
  C   C399      1.0  0.24676  0.67282  0.56768  1.0000
  C   C400      1.0  0.46592  0.86722  0.36857  1.0000
  H   H711      1.0  0.23615  0.67619  0.47053  1.0000
  H   H712      1.0  0.21079  0.71790  0.51796  1.0000
  C   C401      1.0  0.20252  0.63862  0.40363  1.0000
  H   H713      1.0  0.26485  0.91499  0.68578  1.0000
  C   C402      1.0  0.19311  0.65655  0.38691  1.0000
  S   S104      1.0  0.48405  0.99264  0.40069  1.0000
  H   H714      1.0  0.20046  0.68243  0.38585  1.0000
  C   C403      1.0  0.10185  0.76833  0.38669  1.0000
  C   C404      1.0  0.07892  0.75871  0.37124  1.0000
  C   C405      1.0  0.04423  0.74824  0.37520  1.0000
  C   C406      1.0  0.03227  0.74793  0.39462  1.0000
  C   C407      1.0  0.05469  0.75904  0.40996  1.0000
  C   C408      1.0  0.08954  0.76900  0.40604  1.0000
  C   C409      1.0  0.21299  0.93081  0.65978  1.0000
  C   C410      1.0  0.02711  0.59318  0.45999  1.0000
  H   H715      1.0  0.04507  0.75997  0.42489  1.0000
  H   H716      1.0  0.10688  0.77717  0.41796  1.0000
  C   C411      1.0  0.31476  0.84620  0.39763  1.0000
  C   C412      1.0  0.28731  0.86859  0.40027  1.0000
  C   C413      1.0  0.28951  0.90050  0.39210  1.0000
  C   C414      1.0  0.31940  0.91054  0.38151  1.0000
  C   C415      1.0  0.34673  0.88803  0.37872  1.0000
  C   C416      1.0  0.34428  0.85597  0.38667  1.0000
  H   H717      1.0  0.26455  0.86146  0.40879  1.0000
  H   H718      1.0  0.26818  0.91769  0.39429  1.0000
  C   C417      1.0  0.21030  0.84775  0.36508  1.0000
  H   H719      1.0  0.36511  0.83844  0.38416  1.0000
  H   H720      1.0  0.08652  0.63349  0.64598  1.0000
  C   C418      1.0  0.22045  0.68981  0.48165  1.0000
  H   H721      1.0  0.15166  0.73318  0.67522  1.0000
  Fe  Fe51      1.0  0.44644  0.99496  0.37486  1.0000
  H   H722      1.0  0.29692  0.90146  0.66861  1.0000
  C   C419      1.0  0.24385  0.77666  0.53880  1.0000
  C   C420      1.0  0.26185  0.77325  0.52090  1.0000
  C   C421      1.0  0.24388  0.77604  0.50272  1.0000
  C   C422      1.0  0.20766  0.78226  0.50228  1.0000
  C   C423      1.0  0.18985  0.78660  0.52018  1.0000
  C   C424      1.0  0.20779  0.78365  0.53839  1.0000
  H   H723      1.0  0.28981  0.76809  0.52110  1.0000
  H   H724      1.0  0.25800  0.77304  0.48906  1.0000
  H   H725      1.0  0.16191  0.79181  0.51997  1.0000
  H   H726      1.0  0.19374  0.78669  0.55207  1.0000
  C   C425      1.0  0.18978  0.64155  0.64254  1.0000
  C   C426      1.0  0.16977  0.61207  0.64170  1.0000
  C   C427      1.0  0.20196  0.65361  0.66085  1.0000
  H   H727      1.0  0.19997  0.59100  0.41770  1.0000
  H   H728      1.0  0.21769  0.67617  0.66163  1.0000
  C   C428      1.0  0.10520  0.79202  0.63577  1.0000
  C   C429      1.0  0.08021  0.80089  0.64992  1.0000
  C   C430      1.0  0.05004  0.78089  0.65271  1.0000
  C   C431      1.0  0.04436  0.75270  0.64086  1.0000
  C   C432      1.0  0.06895  0.74439  0.62645  1.0000
  C   C433      1.0  0.09960  0.76362  0.62416  1.0000
  H   H729      1.0  0.08447  0.82292  0.65890  1.0000
  H   H730      1.0  0.03102  0.78753  0.66374  1.0000
  H   H731      1.0  0.06454  0.72270  0.61718  1.0000
  H   H732      1.0  0.11854  0.75680  0.61311  1.0000
  C   C434      1.0  0.32723  0.82623  0.65728  1.0000
  C   C435      1.0  0.34552  0.83983  0.67368  1.0000
  C   C436      1.0  0.36499  0.86969  0.67208  1.0000
  C   C437      1.0  0.36632  0.88603  0.65400  1.0000
  C   C438      1.0  0.34840  0.87216  0.63760  1.0000
  C   C439      1.0  0.32884  0.84250  0.63922  1.0000
  H   H733      1.0  0.26081  0.53006  0.62165  1.0000
  S   S105      1.0  0.42425  0.95089  0.35828  1.0000
  H   H734      1.0  0.34953  0.88454  0.62354  1.0000
  H   H735      1.0  0.31526  0.83209  0.62644  1.0000
  H   H736      1.0  0.17378  0.68401  0.56518  1.0000
  N   N22       1.0  0.08640  0.66298  0.43753  1.0000
  C   C440      1.0  0.05802  0.64656  0.44961  1.0000
  C   C441      1.0  0.08730  0.69947  0.44270  1.0000
  C   C442      1.0  0.07526  0.65996  0.41606  1.0000
  C   C443      1.0  0.12223  0.64735  0.44023  1.0000
  C   C444      1.0  0.13138  0.63339  0.46098  1.0000
  C   C445      1.0  0.04979  0.60971  0.44432  1.0000
  C   C446      1.0  0.10040  0.67581  0.40078  1.0000
  C   C447      1.0  0.10028  0.70944  0.46367  1.0000
  C   C448      1.0  0.16816  0.61833  0.46133  1.0000
  H   H737      1.0  0.05198  0.66269  0.65098  1.0000
  C   C449      1.0  0.08812  0.66803  0.37965  1.0000
  H   H738      1.0  0.03270  0.66018  0.44798  1.0000
  H   H739      1.0  0.06448  0.64816  0.46558  1.0000
  H   H740      1.0  0.10491  0.71326  0.43275  1.0000
  H   H741      1.0  0.06056  0.71007  0.44039  1.0000
  H   H742      1.0  0.04854  0.67077  0.41376  1.0000
  H   H743      1.0  0.07325  0.63354  0.41158  1.0000
  H   H744      1.0  0.12530  0.62627  0.42965  1.0000
  H   H745      1.0  0.14350  0.66540  0.43629  1.0000
  H   H746      1.0  0.11283  0.61338  0.46526  1.0000
  H   H747      1.0  0.13064  0.65262  0.47265  1.0000
  H   H748      1.0  0.01722  0.52925  0.39021  1.0000
  H   H749      1.0  0.07417  0.59518  0.44245  1.0000
  H   H750      1.0  0.12761  0.66665  0.40264  1.0000
  H   H751      1.0  0.10119  0.70303  0.40218  1.0000
  H   H752      1.0  0.13459  0.63981  0.53946  1.0000
  H   H753      1.0  0.17440  0.60915  0.47633  1.0000
  H   H754      1.0  0.16951  0.59721  0.45074  1.0000
  H   H755      1.0  0.18836  0.63713  0.45737  1.0000
  H   H756      1.0  0.06118  0.70272  0.67959  1.0000
  C   C450      1.0  0.23556  0.53695  0.62862  1.0000
  H   H757      1.0  0.23324  0.98058  0.65093  1.0000
  H   H758      1.0  0.10518  0.68172  0.36920  1.0000
  H   H759      1.0  0.09014  0.64115  0.37632  1.0000
  H   H760      1.0  0.06045  0.67604  0.37728  1.0000
  H   H761      1.0  0.19365  0.82715  0.37066  1.0000
  S   S106      1.0  0.00680  0.72728  0.64316  1.0000
  H   H762      1.0  0.27805  0.58735  0.63415  1.0000
  C   C451      1.0  0.02422  0.82772  0.59937  1.0000
  H   H763      1.0  0.06618  0.75242  0.46686  1.0000
  H   H764      1.0  0.04219  0.57607  0.36821  1.0000
  H   H765      1.0  0.01027  0.55960  0.40844  1.0000
  H   H766      1.0  0.28159  0.59673  0.36914  1.0000
  Fe  Fe52      1.0  0.42273  0.95272  0.67348  1.0000
  C   C452      1.0  0.29042  0.95452  0.67079  1.0000
  C   C453      1.0  0.15574  0.63204  0.52929  1.0000
  H   H767      1.0  0.15140  0.64328  0.51466  1.0000
  H   H768      1.0  0.09755  0.73664  0.55247  1.0000
  H   H769      1.0  0.25135  0.86127  0.68734  1.0000
  C   C454      1.0  0.07531  0.56768  0.39322  1.0000
  H   H770      1.0  0.18650  0.82667  0.66844  1.0000
  H   H771      1.0  0.26563  0.80411  0.37344  1.0000
  H   H772      1.0  0.43641  0.84190  0.44897  1.0000
  C   C455      1.0  0.24232  0.52994  0.37461  1.0000
  H   H773      1.0  0.09404  0.72027  0.66419  1.0000
  C   C456      1.0  0.44540  0.87351  0.38748  1.0000
  N   N23       1.0  0.27159  0.55560  0.65952  1.0000
  C   C457      1.0  0.26023  0.91742  0.63518  1.0000
  H   H774      1.0  0.34453  0.82726  0.68768  1.0000
  C   C458      1.0  0.16197  0.59468  0.65897  1.0000
  C   C459      1.0  0.30415  0.64499  0.64572  1.0000
  C   C460      1.0  0.19493  0.63565  0.67810  1.0000
  H   H775      1.0  0.08820  0.75872  0.35623  1.0000
  H   H776      1.0  0.10914  0.76160  0.45667  1.0000
  H   H777      1.0  0.16017  0.60265  0.62761  1.0000
  H   H778      1.0  0.02084  0.56721  0.45544  1.0000
  H   H779      1.0  0.31338  0.63817  0.63075  1.0000
  C   C461      1.0  0.08104  0.65960  0.65014  1.0000
  C   C462      1.0  0.23909  0.53794  0.65145  1.0000
  C   C463      1.0  0.19260  0.60502  0.40482  1.0000
  H   H780      1.0  0.29337  0.62309  0.67357  1.0000
  H   H781      1.0  0.32740  0.60263  0.65967  1.0000
  H   H782      1.0  0.37865  0.94020  0.40290  1.0000
  H   H783      1.0  0.16576  0.56367  0.39035  1.0000
  H   H784      1.0  0.17462  0.69228  0.51137  1.0000
  H   H785      1.0  0.22795  0.56174  0.62309  1.0000
  C   C464      1.0  0.00373  0.54177  0.66656  1.0000
  H   H786      1.0  0.48649  0.88668  0.36658  1.0000
  H   H787      1.0  0.42701  0.81187  0.40727  1.0000
  H   H788      1.0  0.25155  0.54966  0.38501  1.0000
  H   H789      1.0  0.25126  0.70589  0.54292  1.0000
  C   C465      1.0  0.17566  0.88287  0.38892  1.0000
  H   H790      1.0  0.19725  0.88148  0.40011  1.0000
  H   H791      1.0  0.16196  0.90681  0.39091  1.0000
  H   H792      1.0  0.15636  0.86238  0.39141  1.0000
  H   H793      1.0  0.24425  0.57649  0.68442  1.0000
  H   H794      1.0  0.19153  0.63245  0.55380  1.0000
  C   C466      1.0  0.30107  0.61428  0.65867  1.0000
  H   H795      1.0  0.30824  0.54760  0.38807  1.0000
  C   C467      1.0  0.20916  0.96496  0.64957  1.0000
  H   H796      1.0  0.46518  0.89452  0.45508  1.0000
  H   H797      1.0  0.42449  0.85441  0.38832  1.0000
  H   H798      1.0  0.28976  0.66920  0.58891  1.0000
  C   C468      1.0  0.24056  0.68045  0.54548  1.0000
  H   H799      1.0  0.37390  0.52374  0.36609  1.0000
  N   N24       1.0  0.24595  0.91127  0.65551  1.0000
  H   H800      1.0  0.39213  0.97599  0.41719  1.0000
  H   H801      1.0  0.37877  0.88011  0.68479  1.0000
  H   H802      1.0  0.12870  0.69252  0.53558  1.0000
  H   H803      1.0  0.25976  0.85950  0.65185  1.0000
  H   H804      1.0  0.30239  0.96079  0.65643  1.0000
  N   N25       1.0  0.45264  0.87499  0.42586  1.0000
  C   C469      1.0  0.41893  0.89463  0.42588  1.0000
  C   C470      1.0  0.44478  0.84049  0.43327  1.0000
  C   C471      1.0  0.27298  0.58952  0.65024  1.0000
  H   H805      1.0  0.04481  0.80834  0.59911  1.0000
  H   H806      1.0  0.09171  0.67591  0.63848  1.0000
  C   C472      1.0  0.42346  0.93238  0.42252  1.0000
  H   H807      1.0  0.13698  0.75000  0.56538  1.0000
  C   C473      1.0  0.41654  0.81966  0.42177  1.0000
  C   C474      1.0  0.40713  0.78796  0.43280  1.0000
  H   H808      1.0  0.27580  0.91419  0.59527  1.0000
  C   C475      1.0  0.38835  0.94869  0.41761  1.0000
  H   H809      1.0  0.43088  0.77256  0.43512  1.0000
  H   H810      1.0  0.40513  0.89163  0.44020  1.0000
  H   H811      1.0  0.39982  0.88510  0.41462  1.0000
  Fe  Fe53      1.0  0.49267  0.99125  0.67255  1.0000
  H   H812      1.0  0.14593  0.57238  0.65812  1.0000
  H   H813      1.0  0.47858  0.84256  0.36895  1.0000
  H   H814      1.0  0.15081  0.73120  0.53188  1.0000
  H   H815      1.0  0.43229  0.89773  0.38601  1.0000
  H   H816      1.0  0.31305  0.01122  0.41238  1.0000
  H   H817      1.0  0.19242  0.68986  0.47670  1.0000
  H   H818      1.0  0.28622  0.90519  0.63352  1.0000
  H   H819      1.0  0.43420  0.94471  0.43608  1.0000
  H   H820      1.0  0.44188  0.93717  0.41030  1.0000
  H   H821      1.0  0.19507  0.72062  0.55676  1.0000
  H   H822      1.0  0.21494  0.54994  0.65716  1.0000
  H   H823      1.0  0.39159  0.83319  0.41962  1.0000
  H   H824      1.0  0.01577  0.83276  0.58397  1.0000
  H   H825      1.0  0.38737  0.77328  0.42403  1.0000
  H   H826      1.0  0.27211  0.74893  0.35664  1.0000
  H   H827      1.0  0.20910  0.90187  0.36638  1.0000
  H   H828      1.0  0.39524  0.79402  0.44728  1.0000
  H   H829      1.0  0.03160  0.54372  0.66176  1.0000
  C   C476      1.0  0.17448  0.64094  0.37133  1.0000
  C   C477      1.0  0.09003  0.70342  0.67690  1.0000
  H   H830      1.0  0.48760  0.85196  0.40485  1.0000
  H   H831      1.0  0.36820  0.94275  0.42886  1.0000
  C   C478      1.0  0.14506  0.71187  0.54295  1.0000
  C   C479      1.0  0.12283  0.72807  0.55897  1.0000
  H   H832      1.0  0.18885  0.91631  0.65536  1.0000
  C   C480      1.0  0.22435  0.67350  0.50179  1.0000
  H   H833      1.0  0.30128  0.65693  0.56421  1.0000
  H   H834      1.0  0.25794  0.66347  0.53713  1.0000
  H   H835      1.0  0.21260  0.62619  0.53103  1.0000
  H   H836      1.0  0.25282  0.67458  0.50578  1.0000
  H   H837      1.0  0.21591  0.64719  0.50014  1.0000
  H   H838      1.0  0.23738  0.64757  0.57142  1.0000
  H   H839      1.0  0.15541  0.58179  0.54094  1.0000
  H   H840      1.0  0.12514  0.58826  0.52069  1.0000
  C   C481      1.0  0.16472  0.60740  0.37243  1.0000
  C   C482      1.0  0.28602  0.67497  0.57305  1.0000
  H   H841      1.0  0.10503  0.75318  0.48252  1.0000
  H   H842      1.0  0.23037  0.71577  0.48232  1.0000
  H   H843      1.0  0.04144  0.59275  0.47437  1.0000
  C   C483      1.0  0.20186  0.69157  0.51744  1.0000
  H   H844      1.0  0.22018  0.73774  0.68736  1.0000
  C   C484      1.0  0.19220  0.64147  0.53837  1.0000
  H   H845      1.0  0.07502  0.56917  0.40955  1.0000
  H   H846      1.0  0.23318  0.84898  0.37542  1.0000
  H   H847      1.0  0.12910  0.70523  0.46505  1.0000
  H   H848      1.0  0.24692  0.60167  0.65150  1.0000
  H   H849      1.0  0.23049  0.80990  0.67031  1.0000
  H   H850      1.0  0.20823  0.91028  0.62025  1.0000
  C   C485      1.0  0.17508  0.60602  0.67720  1.0000
  H   H851      1.0  0.23474  0.59492  0.36783  1.0000
  H   H852      1.0  0.16814  0.88297  0.35758  1.0000
  C   C486      1.0  0.35786  0.52782  0.37950  1.0000
  H   H853      1.0  0.03480  0.60813  0.43026  1.0000
  C   C487      1.0  0.23716  0.87467  0.65696  1.0000
  H   H854      1.0  0.23887  0.87767  0.61630  1.0000
  C   C488      1.0  0.23647  0.90486  0.61783  1.0000
  H   H855      1.0  0.16032  0.69543  0.68683  1.0000
  H   H856      1.0  0.20357  0.96153  0.63359  1.0000
  H   H857      1.0  0.21465  0.86783  0.64693  1.0000
  C   C489      1.0  0.30535  0.53758  0.65490  1.0000
  C   C490      1.0  0.47802  0.89141  0.44047  1.0000
  C   C491      1.0  0.27465  0.91896  0.67059  1.0000
  C   C492      1.0  0.19054  0.88062  0.36809  1.0000
  C   C493      1.0  0.00966  0.55550  0.39229  1.0000
  H   H858      1.0  0.02694  0.74004  0.36326  1.0000
  H   H859      1.0  0.32343  0.66290  0.65242  1.0000
  H   H860      1.0  0.03613  0.85056  0.60607  1.0000
  Fe  Fe54      1.0  0.37212  0.97591  0.36171  1.0000
  H   H861      1.0  0.09649  0.58434  0.38783  1.0000
  H   H862      1.0  0.46892  0.82514  0.43305  1.0000
  S   S107      1.0  0.47824  0.94028  0.68300  1.0000
  H   H863      1.0  0.20785  0.87876  0.68488  1.0000
  H   H864      1.0  0.16784  0.65495  0.35831  1.0000
  C   C494      1.0  0.27281  0.80303  0.35765  1.0000
  H   H865      1.0  0.23117  0.90940  0.58610  1.0000
  H   H866      1.0  0.26607  0.94408  0.63291  1.0000
  H   H867      1.0  0.37298  0.54449  0.38974  1.0000
  H   H868      1.0  0.00314  0.81017  0.62643  1.0000
  H   H869      1.0  0.31353  0.76754  0.36440  1.0000
  H   H870      1.0  0.31607  0.54565  0.64046  1.0000
  C   C495      1.0  0.24775  0.91997  0.59829  1.0000
  H   H871      1.0  0.32626  0.54455  0.66592  1.0000
  H   H872      1.0  0.08623  0.69563  0.47528  1.0000
  C   C496      1.0  0.32261  0.54364  0.37414  1.0000
  H   H873      1.0  0.08854  0.64960  0.68075  1.0000
  H   H874      1.0  0.18078  0.52088  0.62690  1.0000
  H   H875      1.0  0.27823  0.65745  0.64438  1.0000
  H   H876      1.0  0.03532  0.60413  0.38845  1.0000
  S   S108      1.0  0.43874  0.00180  0.66071  1.0000
  H   H877      1.0  0.33118  0.98360  0.68588  1.0000
  H   H878      1.0  0.48522  0.91682  0.43553  1.0000
  H   H879      1.0  0.26995  0.97273  0.67463  1.0000
  H   H880      1.0  0.08152  0.54190  0.38874  1.0000
  H   H881      1.0  0.12735  0.66439  0.66807  1.0000
  H   H882      1.0  0.32893  0.56791  0.36741  1.0000
  C   C497      1.0  0.09873  0.66782  0.66999  1.0000
  H   H883      1.0  0.21425  0.53599  0.37123  1.0000
  H   H884      1.0  0.47558  0.94315  0.60138  1.0000
  H   H885      1.0  0.00363  0.84877  0.68518  1.0000
  H   H886      1.0  0.21039  0.93481  0.67597  1.0000
  C   C498      1.0  0.26758  0.56065  0.68148  1.0000
  C   C499      1.0  0.17856  0.98447  0.65821  1.0000
  H   H887      1.0  0.18351  0.99006  0.67408  1.0000
  H   H888      1.0  0.17585  0.00830  0.65031  1.0000
  C   C500      1.0  0.22732  0.86226  0.67783  1.0000
  H   H889      1.0  0.23435  0.51976  0.41520  1.0000
  H   H890      1.0  0.29767  0.01146  0.43744  1.0000
  H   H891      1.0  0.49384  0.98201  0.61037  1.0000
  H   H892      1.0  0.34067  0.94009  0.68395  1.0000
  C   C501      1.0  0.21156  0.82725  0.67708  1.0000
  C   C502      1.0  0.31943  0.95827  0.68652  1.0000
  C   C503      1.0  0.50046  0.95644  0.60557  1.0000
  H   H893      1.0  0.29084  0.57421  0.68782  1.0000
  C   C504      1.0  0.30151  0.52173  0.35918  1.0000
  N   N26       1.0  0.26321  0.53012  0.35577  1.0000
  H   H894      1.0  0.25707  0.64832  0.35634  1.0000
  H   H895      1.0  0.44757  0.86781  0.35568  1.0000
  C   C505      1.0  0.25888  0.59484  0.35885  1.0000
  Fe  Fe55      1.0  0.46464  0.96648  0.71138  1.0000
  C   C506      1.0  0.10459  0.79688  0.93152  1.0000
  H   H896      1.0  0.45852  0.91138  0.86982  1.0000
  H   H897      1.0  0.10736  0.56347  0.98230  1.0000
  S   S109      1.0  0.34946  0.96181  0.90088  1.0000
  H   H898      1.0  0.13450  0.76211  0.94826  1.0000
  Fe  Fe56      1.0  0.14942  0.52988  0.69546  1.0000
  S   S110      1.0  0.19963  0.54771  0.93523  1.0000
  H   H899      1.0  0.11853  0.65912  0.74720  1.0000
  C   C507      1.0  0.23530  0.79790  0.92854  1.0000
  Fe  Fe57      1.0  0.06926  0.71700  0.86662  1.0000
  S   S111      1.0  0.09190  0.68066  0.84533  1.0000
  H   H900      1.0  0.04416  0.76405  0.80129  1.0000
  Fe  Fe58      1.0  0.13155  0.76402  0.86357  1.0000
  S   S112      1.0  0.15923  0.73177  0.84148  1.0000
  S   S113      1.0  0.14737  0.81410  0.87705  1.0000
  Fe  Fe59      1.0  0.10564  0.72470  0.82709  1.0000
  S   S114      1.0  0.09891  0.71512  0.79418  1.0000
  Fe  Fe60      1.0  0.14339  0.68934  0.86101  1.0000
  S   S115      1.0  0.18014  0.64548  0.86298  1.0000
  S   S116      1.0  0.07906  0.76073  0.84734  1.0000
  S   S117      1.0  0.11960  0.72191  0.88427  1.0000
  H   H901      1.0  0.42082  0.92442  0.89847  1.0000
  H   H902      1.0  0.15641  0.67568  0.71974  1.0000
  Fe  Fe61      1.0  0.37699  0.95564  0.92998  1.0000
  S   S118      1.0  0.43588  0.95998  0.93494  1.0000
  C   C508      1.0  0.02287  0.71847  0.75170  1.0000
  S   S119      1.0  0.30107  0.87739  0.88900  1.0000
  S   S120      1.0  0.34493  0.91089  0.93811  1.0000
  C   C509      1.0  0.19035  0.83140  0.87977  1.0000
  C   C510      1.0  0.19504  0.86004  0.89154  1.0000
  C   C511      1.0  0.22885  0.87402  0.89480  1.0000
  C   C512      1.0  0.25827  0.85986  0.88595  1.0000
  C   C513      1.0  0.25361  0.83135  0.87407  1.0000
  C   C514      1.0  0.21982  0.81702  0.87106  1.0000
  H   H903      1.0  0.17239  0.87123  0.89841  1.0000
  H   H904      1.0  0.23208  0.89573  0.90415  1.0000
  H   H905      1.0  0.27627  0.82018  0.86721  1.0000
  H   H906      1.0  0.21657  0.79493  0.86201  1.0000
  C   C515      1.0  0.06014  0.72576  0.78110  1.0000
  C   C516      1.0  0.05220  0.70934  0.76322  1.0000
  H   H907      1.0  0.16480  0.73264  0.72022  1.0000
  H   H908      1.0  0.22894  0.52481  0.83550  1.0000
  H   H909      1.0  0.47114  0.97342  0.01223  1.0000
  C   C517      1.0  0.03815  0.75113  0.78758  1.0000
  H   H910      1.0  0.06873  0.68939  0.75828  1.0000
  H   H911      1.0  0.23365  0.81111  0.91426  1.0000
  H   H912      1.0  0.05014  0.65658  0.80066  1.0000
  H   H913      1.0  0.27787  0.85493  0.92972  1.0000
  H   H914      1.0  0.33861  0.93920  0.76318  1.0000
  H   H915      1.0  0.29654  0.82558  0.94679  1.0000
  H   H916      1.0  0.27577  0.86259  0.95585  1.0000
  C   C518      1.0  0.19243  0.57373  0.91474  1.0000
  C   C519      1.0  0.17212  0.60246  0.91700  1.0000
  C   C520      1.0  0.16732  0.62439  0.90116  1.0000
  C   C521      1.0  0.18339  0.61799  0.88306  1.0000
  C   C522      1.0  0.20348  0.58921  0.88082  1.0000
  C   C523      1.0  0.20775  0.56703  0.89652  1.0000
  H   H917      1.0  0.16028  0.60785  0.93109  1.0000
  H   H918      1.0  0.15183  0.64650  0.90305  1.0000
  H   H919      1.0  0.21625  0.58432  0.86693  1.0000
  H   H920      1.0  0.38748  0.91857  0.84366  1.0000
  C   C524      1.0  0.46152  0.95221  0.91398  1.0000
  C   C525      1.0  0.27026  0.97181  0.82469  1.0000
  S   S121      1.0  0.28450  0.93139  0.98142  1.0000
  S   S122      1.0  0.01606  0.70149  0.87785  1.0000
  C   C526      1.0  0.46911  0.92626  0.88191  1.0000
  C   C527      1.0  0.44771  0.93370  0.89808  1.0000
  H   H921      1.0  0.38154  0.85178  0.99412  1.0000
  C   C528      1.0  0.03314  0.63418  0.79885  1.0000
  N   N27       1.0  0.42345  0.94825  0.00174  1.0000
  H   H922      1.0  0.47344  0.97963  0.97514  1.0000
  H   H923      1.0  0.33577  0.94122  0.82716  1.0000
  C   C529      1.0  0.41436  0.91525  0.99216  1.0000
  C   C530      1.0  0.09685  0.75144  0.69877  1.0000
  S   S123      1.0  0.40779  0.97534  0.70275  1.0000
  H   H924      1.0  0.08983  0.60201  0.86415  1.0000
  H   H925      1.0  0.41342  0.00651  0.83158  1.0000
  H   H926      1.0  0.25544  0.75576  0.89849  1.0000
  C   C531      1.0  0.47239  0.94245  0.82228  1.0000
  H   H927      1.0  0.02343  0.55139  0.91837  1.0000
  S   S124      1.0  0.34297  0.99164  0.94636  1.0000
  H   H928      1.0  0.05578  0.80803  0.69947  1.0000
  C   C532      1.0  0.27449  0.84294  0.94425  1.0000
  C   C533      1.0  0.33183  0.93076  0.84201  1.0000
  S   S125      1.0  0.27504  0.95336  0.92522  1.0000
  H   H929      1.0  0.12616  0.57416  0.86689  1.0000
  H   H930      1.0  0.41960  0.94215  0.76808  1.0000
  H   H931      1.0  0.42230  0.91515  0.97640  1.0000
  C   C534      1.0  0.48160  0.95639  0.98240  1.0000
  H   H932      1.0  0.37776  0.97278  0.98982  1.0000
  H   H933      1.0  0.18213  0.73374  0.91218  1.0000
  H   H934      1.0  0.47959  0.96227  0.83312  1.0000
  H   H935      1.0  0.25940  0.99647  0.86273  1.0000
  H   H936      1.0  0.00731  0.81063  0.85410  1.0000
  H   H937      1.0  0.00535  0.84277  0.83587  1.0000
  H   H938      1.0  0.01155  0.54822  0.73128  1.0000
  H   H939      1.0  0.36466  0.99530  0.77845  1.0000
  H   H940      1.0  0.16629  0.71668  0.94364  1.0000
  C   C535      1.0  0.25033  0.91984  0.84065  1.0000
  C   C536      1.0  0.36765  0.93174  0.85265  1.0000
  H   H941      1.0  0.22103  0.92209  0.84095  1.0000
  C   C537      1.0  0.00306  0.81562  0.83817  1.0000
  C   C538      1.0  0.23199  0.95592  0.87642  1.0000
  H   H942      1.0  0.41381  0.97257  0.97390  1.0000
  H   H943      1.0  0.36583  0.91888  0.86702  1.0000
  H   H944      1.0  0.02429  0.53244  0.76488  1.0000
  C   C539      1.0  0.28449  0.00802  0.82611  1.0000
  H   H945      1.0  0.16914  0.76601  0.70307  1.0000
  H   H946      1.0  0.13638  0.53996  0.74674  1.0000
  H   H947      1.0  0.09040  0.63488  0.73046  1.0000
  N   N28       1.0  0.08940  0.59800  0.80126  1.0000
  C   C540      1.0  0.08181  0.59240  0.82282  1.0000
  H   H948      1.0  0.01914  0.62636  0.92759  1.0000
  C   C541      1.0  0.11331  0.62790  0.79857  1.0000
  C   C542      1.0  0.15385  0.62207  0.79873  1.0000
  C   C543      1.0  0.21135  0.73111  0.70237  1.0000
  C   C544      1.0  0.11404  0.58678  0.83655  1.0000
  H   H949      1.0  0.01851  0.53616  0.69678  1.0000
  C   C545      1.0  0.17428  0.65477  0.80128  1.0000
  C   C546      1.0  0.30364  0.94994  0.85372  1.0000
  H   H950      1.0  0.06852  0.61419  0.82934  1.0000
  H   H951      1.0  0.01875  0.79075  0.71251  1.0000
  H   H952      1.0  0.16921  0.81079  0.91940  1.0000
  S   S126      1.0  0.16771  0.58339  0.69897  1.0000
  H   H953      1.0  0.10738  0.64047  0.78438  1.0000
  H   H954      1.0  0.10768  0.64690  0.81001  1.0000
  H   H955      1.0  0.16254  0.60543  0.81062  1.0000
  C   C547      1.0  0.05442  0.60415  0.79102  1.0000
  H   H956      1.0  0.46660  0.97423  0.78511  1.0000
  N   N29       1.0  0.11011  0.71686  0.69469  1.0000
  H   H957      1.0  0.13070  0.60953  0.83726  1.0000
  H   H958      1.0  0.19406  0.76910  0.89897  1.0000
  H   H959      1.0  0.35974  0.92196  0.98225  1.0000
  H   H960      1.0  0.02119  0.62840  0.81330  1.0000
  H   H961      1.0  0.16836  0.66634  0.81579  1.0000
  H   H962      1.0  0.16719  0.67226  0.78936  1.0000
  H   H963      1.0  0.08684  0.54507  0.79586  1.0000
  H   H964      1.0  0.21819  0.84378  0.94317  1.0000
  H   H965      1.0  0.27840  0.55390  0.72192  1.0000
  H   H966      1.0  0.16257  0.54724  0.76874  1.0000
  H   H967      1.0  0.37004  0.99962  0.82069  1.0000
  C   C548      1.0  0.17227  0.73886  0.70491  1.0000
  H   H968      1.0  0.27945  0.90989  0.02148  1.0000
  C   C549      1.0  0.44944  0.98352  0.79705  1.0000
  H   H969      1.0  0.16214  0.61072  0.78460  1.0000
  H   H970      1.0  0.28696  0.95852  0.81398  1.0000
  C   C550      1.0  0.17142  0.79361  0.93210  1.0000
  H   H971      1.0  0.22097  0.98217  0.84958  1.0000
  H   H972      1.0  0.20600  0.81876  0.69225  1.0000
  C   C551      1.0  0.44069  0.95262  0.80973  1.0000
  H   H973      1.0  0.30866  0.00861  0.79707  1.0000
  H   H974      1.0  0.36983  0.91069  0.75283  1.0000
  H   H975      1.0  0.07969  0.78233  0.93301  1.0000
  H   H976      1.0  0.25717  0.90300  0.85301  1.0000
  Fe  Fe62      1.0  0.30858  0.94727  0.95248  1.0000
  N   N30       1.0  0.26789  0.95343  0.84391  1.0000
  H   H977      1.0  0.43340  0.93122  0.80004  1.0000
  H   H978      1.0  0.08407  0.55837  0.85819  1.0000
  H   H979      1.0  0.08586  0.55813  0.92840  1.0000
  H   H980      1.0  0.25474  0.51516  0.72446  1.0000
  H   H981      1.0  0.41844  0.95655  0.81980  1.0000
  Fe  Fe63      1.0  0.31370  0.91996  0.91038  1.0000
  H   H982      1.0  0.05856  0.60860  0.77505  1.0000
  C   C552      1.0  0.19449  0.71704  0.94802  1.0000
  C   C553      1.0  0.36488  0.92783  0.76540  1.0000
  H   H983      1.0  0.21672  0.86355  0.82583  1.0000
  H   H984      1.0  0.04078  0.74947  0.68963  1.0000
  C   C554      1.0  0.40691  0.97528  0.98970  1.0000
  N   N31       1.0  0.41867  0.00222  0.78845  1.0000
  C   C555      1.0  0.23089  0.70971  0.88964  1.0000
  Fe  Fe64      1.0  0.31306  0.99474  0.91762  1.0000
  H   H985      1.0  0.20867  0.70110  0.93736  1.0000
  H   H986      1.0  0.02458  0.77201  0.88693  1.0000
  H   H987      1.0  0.24357  0.97270  0.81761  1.0000
  H   H988      1.0  0.01676  0.70533  0.73811  1.0000
  H   H989      1.0  0.21385  0.93491  0.87273  1.0000
  H   H990      1.0  0.26103  0.85164  0.83271  1.0000
  H   H991      1.0  0.28903  0.51527  0.69407  1.0000
  C   C556      1.0  0.26396  0.52913  0.69413  1.0000
  H   H992      1.0  0.21465  0.68931  0.89587  1.0000
  H   H993      1.0  0.13568  0.62345  0.73454  1.0000
  C   C557      1.0  0.46312  0.95209  0.00257  1.0000
  C   C558      1.0  0.05686  0.75437  0.70310  1.0000
  C   C559      1.0  0.20272  0.75339  0.91147  1.0000
  H   H994      1.0  0.23635  0.81368  0.95988  1.0000
  H   H995      1.0  0.20309  0.65018  0.80073  1.0000
  H   H996      1.0  0.15101  0.55560  0.99238  1.0000
  H   H997      1.0  0.07637  0.68536  0.71221  1.0000
  H   H998      1.0  0.22388  0.54531  0.89476  1.0000
  C   C560      1.0  0.10927  0.56694  0.76980  1.0000
  C   C561      1.0  0.24503  0.97362  0.85757  1.0000
  H   H999      1.0  0.08365  0.56155  0.76228  1.0000
  H   H1000     1.0  0.25160  0.72588  0.91789  1.0000
  H   H1001     1.0  0.10438  0.80861  0.91675  1.0000
  H   H1002     1.0  0.01817  0.63031  0.89159  1.0000
  H   H1003     1.0  0.04443  0.58479  0.90589  1.0000
  H   H1004     1.0  0.11074  0.76249  0.71185  1.0000
  H   H1005     1.0  0.20518  0.64454  0.69216  1.0000
  C   C562      1.0  0.12943  0.66642  0.71605  1.0000
  H   H1006     1.0  0.14482  0.56118  0.96626  1.0000
  H   H1007     1.0  0.25440  0.94613  0.88503  1.0000
  C   C563      1.0  0.13622  0.77395  0.93360  1.0000
  C   C564      1.0  0.11756  0.64475  0.73315  1.0000
  H   H1008     1.0  0.24228  0.91352  0.80876  1.0000
  C   C565      1.0  0.10434  0.56671  0.79253  1.0000
  H   H1009     1.0  0.10531  0.71104  0.72640  1.0000
  C   C566      1.0  0.19761  0.70078  0.96820  1.0000
  C   C567      1.0  0.10261  0.57984  0.85768  1.0000
  H   H1010     1.0  0.06302  0.57108  0.82440  1.0000
  H   H1011     1.0  0.44071  0.00030  0.75909  1.0000
  C   C568      1.0  0.31314  0.98234  0.00430  1.0000
  H   H1012     1.0  0.30097  0.93669  0.86785  1.0000
  H   H1013     1.0  0.25635  0.69922  0.88478  1.0000
  H   H1014     1.0  0.21701  0.71984  0.87654  1.0000
  H   H1015     1.0  0.30857  0.95446  0.70147  1.0000
  C   C569      1.0  0.04772  0.78914  0.71039  1.0000
  C   C570      1.0  0.13272  0.55072  0.97973  1.0000
  H   H1016     1.0  0.22571  0.69956  0.97298  1.0000
  H   H1017     1.0  0.20067  0.76576  0.96173  1.0000
  H   H1018     1.0  0.13004  0.56072  0.79949  1.0000
  H   H1019     1.0  0.22740  0.74574  0.71324  1.0000
  H   H1020     1.0  0.37696  0.95768  0.85517  1.0000
  H   H1021     1.0  0.32397  0.90423  0.84075  1.0000
  H   H1022     1.0  0.23940  0.74947  0.95133  1.0000
  C   C571      1.0  0.21063  0.75268  0.94840  1.0000
  H   H1023     1.0  0.11845  0.59142  0.76455  1.0000
  H   H1024     1.0  0.22903  0.00055  0.89476  1.0000
  H   H1025     1.0  0.36305  0.90617  0.00688  1.0000
  H   H1026     1.0  0.47505  0.93005  0.00963  1.0000
  H   H1027     1.0  0.39382  0.96717  0.75178  1.0000
  H   H1028     1.0  0.18672  0.67509  0.96732  1.0000
  H   H1029     1.0  0.17237  0.80961  0.94553  1.0000
  C   C572      1.0  0.23764  0.73690  0.90512  1.0000
  H   H1030     1.0  0.13333  0.75475  0.92197  1.0000
  H   H1031     1.0  0.06096  0.79456  0.72479  1.0000
  H   H1032     1.0  0.28542  0.90177  0.81672  1.0000
  N   N32       1.0  0.20473  0.77363  0.93032  1.0000
  H   H1033     1.0  0.18247  0.71485  0.97937  1.0000
  H   H1034     1.0  0.12791  0.51595  0.76849  1.0000
  H   H1035     1.0  0.36490  0.91318  0.77918  1.0000
  H   H1036     1.0  0.02432  0.58669  0.86519  1.0000
  C   C573      1.0  0.21169  0.97967  0.88968  1.0000
  H   H1037     1.0  0.37809  0.96609  0.79607  1.0000
  H   H1038     1.0  0.02392  0.80334  0.82948  1.0000
  C   C574      1.0  0.03417  0.57677  0.92037  1.0000
  C   C575      1.0  0.23888  0.82475  0.94505  1.0000
  C   C576      1.0  0.29733  0.95084  0.00388  1.0000
  H   H1039     1.0  0.31663  0.99568  0.99070  1.0000
  S   S127      1.0  0.47932  0.94618  0.74144  1.0000
  C   C577      1.0  0.06577  0.57509  0.93455  1.0000
  H   H1040     1.0  0.49557  0.93727  0.81294  1.0000
  C   C578      1.0  0.10381  0.69567  0.71264  1.0000
  H   H1041     1.0  0.04867  0.73661  0.71452  1.0000
  H   H1042     1.0  0.42968  0.89501  0.99909  1.0000
  H   H1043     1.0  0.24824  0.85318  0.80708  1.0000
  H   H1044     1.0  0.31484  0.97456  0.85813  1.0000
  H   H1045     1.0  0.05744  0.56546  0.94908  1.0000
  H   H1046     1.0  0.13148  0.65031  0.70289  1.0000
  H   H1047     1.0  0.13016  0.56571  0.83151  1.0000
  C   C579      1.0  0.00602  0.60148  0.92796  1.0000
  C   C580      1.0  0.37471  0.90519  0.99199  1.0000
  H   H1048     1.0  0.26081  0.78452  0.92823  1.0000
  H   H1049     1.0  0.03690  0.58174  0.79185  1.0000
  C   C581      1.0  0.13565  0.54088  0.76311  1.0000
  C   C582      1.0  0.49658  0.96376  0.91348  1.0000
  C   C583      1.0  0.00626  0.60789  0.86339  1.0000
  C   C584      1.0  0.25730  0.90149  0.82084  1.0000
  H   H1050     1.0  0.10544  0.81656  0.94310  1.0000
  C   C585      1.0  0.38752  0.98002  0.78313  1.0000
  H   H1051     1.0  0.34040  0.86430  0.98299  1.0000
  H   H1052     1.0  0.47523  0.93542  0.97225  1.0000
  H   H1053     1.0  0.07825  0.59998  0.93656  1.0000
  C   C586      1.0  0.39385  0.95453  0.76627  1.0000
  H   H1054     1.0  0.04438  0.51459  0.83799  1.0000
  H   H1055     1.0  0.23139  0.55155  0.71689  1.0000
  C   C587      1.0  0.24500  0.86529  0.82171  1.0000
  H   H1056     1.0  0.18844  0.98969  0.88172  1.0000
  C   C588      1.0  0.36916  0.86991  0.98405  1.0000
  H   H1057     1.0  0.46684  0.00061  0.80591  1.0000
  H   H1058     1.0  0.46582  0.91963  0.83057  1.0000
  H   H1059     1.0  0.38060  0.86722  0.96912  1.0000
  H   H1060     1.0  0.09084  0.51475  0.00183  1.0000
  C   C589      1.0  0.00284  0.64280  0.78483  1.0000
  C   C590      1.0  0.25670  0.53814  0.71565  1.0000
  H   H1061     1.0  0.21618  0.70438  0.70485  1.0000
  H   H1062     1.0  0.20220  0.96626  0.90287  1.0000
  H   H1063     1.0  0.00592  0.60490  0.74382  1.0000
  C   C591      1.0  0.14866  0.72002  0.68951  1.0000
  H   H1064     1.0  0.50040  0.86376  0.93917  1.0000
  H   H1065     1.0  0.01277  0.64775  0.76981  1.0000
  C   C592      1.0  0.00938  0.76093  0.77577  1.0000
  H   H1066     1.0  0.21744  0.52201  0.86128  1.0000
  H   H1067     1.0  0.02034  0.62798  0.85548  1.0000
  H   H1068     1.0  0.50137  0.00875  0.86427  1.0000
  H   H1069     1.0  0.31043  0.00931  0.83376  1.0000
  C   C593      1.0  0.12656  0.51348  0.97685  1.0000
  C   C594      1.0  0.41562  0.01134  0.99651  1.0000
  Fe  Fe65      1.0  0.87547  0.49121  0.17325  1.0000
  H   H1070     1.0  0.77857  0.30113  0.34488  1.0000
  S   S128      1.0  0.82403  0.46957  0.16039  1.0000
  H   H1071     1.0  0.61430  0.07810  0.27730  1.0000
  H   H1072     1.0  0.57495  0.32331  0.33699  1.0000
  C   C595      1.0  0.56487  0.16529  0.25164  1.0000
  H   H1073     1.0  0.86835  0.48498  0.26247  1.0000
  Fe  Fe66      1.0  0.72530  0.28283  0.08449  1.0000
  S   S129      1.0  0.75787  0.25660  0.10730  1.0000
  S   S130      1.0  0.74989  0.29823  0.05539  1.0000
  Fe  Fe67      1.0  0.66280  0.28789  0.11245  1.0000
  S   S131      1.0  0.69107  0.26342  0.13759  1.0000
  S   S132      1.0  0.60432  0.29804  0.11136  1.0000
  Fe  Fe68      1.0  0.73786  0.29515  0.12861  1.0000
  S   S133      1.0  0.77920  0.31709  0.15001  1.0000
  Fe  Fe69      1.0  0.70881  0.22741  0.11444  1.0000
  S   S134      1.0  0.70311  0.17133  0.11608  1.0000
  S   S135      1.0  0.70771  0.32285  0.10542  1.0000
  S   S136      1.0  0.67816  0.25033  0.08967  1.0000
  C   C596      1.0  0.61673  0.21424  0.17801  1.0000
  C   C597      1.0  0.68449  0.11770  0.13816  1.0000
  Fe  Fe70      1.0  0.59857  0.22214  0.33719  1.0000
  S   S137      1.0  0.58376  0.24401  0.30751  1.0000
  C   C598      1.0  0.68369  0.11647  0.17393  1.0000
  H   H1074     1.0  0.80025  0.07837  0.18754  1.0000
  H   H1075     1.0  0.73756  0.39636  0.33861  1.0000
  C   C599      1.0  0.69597  0.14945  0.17441  1.0000
  C   C600      1.0  0.97662  0.49194  0.25300  1.0000
  C   C601      1.0  0.54651  0.23070  0.29344  1.0000
  H   H1076     1.0  0.71438  0.34735  0.34439  1.0000
  H   H1077     1.0  0.50290  0.23187  0.33527  1.0000
  S   S138      1.0  0.67888  0.09473  0.19621  1.0000
  H   H1078     1.0  0.64255  0.22849  0.27923  1.0000
  C   C602      1.0  0.53825  0.24692  0.27579  1.0000
  H   H1079     1.0  0.70212  0.28757  0.34909  1.0000
  N   N33       1.0  0.79121  0.35268  0.35146  1.0000
  H   H1080     1.0  0.55529  0.26672  0.27070  1.0000
  C   C603      1.0  0.69603  0.15090  0.13860  1.0000
  C   C604      1.0  0.70155  0.16684  0.15680  1.0000
  H   H1081     1.0  0.71069  0.19237  0.15730  1.0000
  H   H1082     1.0  0.70112  0.16166  0.18844  1.0000
  C   C605      1.0  0.58175  0.29435  0.13371  1.0000
  C   C606      1.0  0.59902  0.30008  0.15176  1.0000
  C   C607      1.0  0.58005  0.29827  0.16939  1.0000
  C   C608      1.0  0.54417  0.28935  0.16909  1.0000
  C   C609      1.0  0.52715  0.28262  0.15109  1.0000
  C   C610      1.0  0.54568  0.28605  0.13340  1.0000
  H   H1083     1.0  0.62676  0.30680  0.15210  1.0000
  H   H1084     1.0  0.59331  0.30362  0.18330  1.0000
  H   H1085     1.0  0.66790  0.07550  0.15520  1.0000
  H   H1086     1.0  0.53224  0.28175  0.11943  1.0000
  C   C611      1.0  0.81262  0.42695  0.15727  1.0000
  C   C612      1.0  0.83487  0.40163  0.16355  1.0000
  C   C613      1.0  0.82439  0.36814  0.16108  1.0000
  C   C614      1.0  0.79178  0.35956  0.15216  1.0000
  C   C615      1.0  0.76975  0.38486  0.14568  1.0000
  C   C616      1.0  0.78015  0.41833  0.14820  1.0000
  H   H1087     1.0  0.85992  0.40786  0.17055  1.0000
  H   H1088     1.0  0.84154  0.34876  0.16626  1.0000
  H   H1089     1.0  0.74430  0.37858  0.13922  1.0000
  H   H1090     1.0  0.76267  0.43770  0.14337  1.0000
  H   H1091     1.0  0.70649  0.03143  0.16296  1.0000
  H   H1092     1.0  0.63936  0.19826  0.18193  1.0000
  S   S139      1.0  0.52092  0.28884  0.19135  1.0000
  H   H1093     1.0  0.54828  0.03310  0.32950  1.0000
  H   H1094     1.0  0.72520  0.04920  0.12921  1.0000
  H   H1095     1.0  0.57635  0.18889  0.25745  1.0000
  C   C617      1.0  0.57292  0.12236  0.28756  1.0000
  C   C618      1.0  0.73110  0.28658  0.03219  1.0000
  H   H1096     1.0  0.68054  0.10515  0.12412  1.0000
  H   H1097     1.0  0.68799  0.25815  0.04400  1.0000
  H   H1098     1.0  0.69808  0.07672  0.27325  1.0000
  H   H1099     1.0  0.59389  0.20802  0.18747  1.0000
  H   H1100     1.0  0.62457  0.24046  0.18095  1.0000
  C   C619      1.0  0.50777  0.23805  0.26477  1.0000
  H   H1101     1.0  0.73856  0.33796  0.32214  1.0000
  H   H1102     1.0  0.80428  0.31451  0.31652  1.0000
  H   H1103     1.0  0.63353  0.15639  0.29849  1.0000
  C   C620      1.0  0.71061  0.29700  0.33455  1.0000
  H   H1104     1.0  0.82250  0.13182  0.17516  1.0000
  H   H1105     1.0  0.67203  0.20797  0.29624  1.0000
  H   H1106     1.0  0.76987  0.07032  0.14528  1.0000
  C   C621      1.0  0.79893  0.11982  0.16813  1.0000
  H   H1107     1.0  0.64703  0.10349  0.28880  1.0000
  C   C622      1.0  0.76524  0.32402  0.35001  1.0000
  H   H1108     1.0  0.75041  0.04454  0.19445  1.0000
  C   C623      1.0  0.83108  0.34963  0.29833  1.0000
  H   H1109     1.0  0.53107  0.19178  0.31301  1.0000
  H   H1110     1.0  0.52006  0.09624  0.20288  1.0000
  H   H1111     1.0  0.00157  0.42795  0.22168  1.0000
  N   N34       1.0  0.60449  0.13080  0.27503  1.0000
  S   S140      1.0  0.93655  0.48575  0.23979  1.0000
  H   H1112     1.0  0.59557  0.08739  0.30910  1.0000
  H   H1113     1.0  0.84710  0.32821  0.32559  1.0000
  H   H1114     1.0  0.84428  0.33004  0.28958  1.0000
  H   H1115     1.0  0.52947  0.15523  0.11894  1.0000
  H   H1116     1.0  0.66641  0.02222  0.13287  1.0000
  C   C624      1.0  0.76744  0.06504  0.16127  1.0000
  H   H1117     1.0  0.61283  0.14083  0.24393  1.0000
  H   H1118     1.0  0.69574  0.06488  0.24755  1.0000
  C   C625      1.0  0.54719  0.10620  0.32066  1.0000
  H   H1119     1.0  0.72119  0.45017  0.35341  1.0000
  S   S141      1.0  0.58846  0.05258  0.20562  1.0000
  H   H1120     1.0  0.79898  0.12550  0.15213  1.0000
  H   H1121     1.0  0.64523  0.18098  0.25617  1.0000
  H   H1122     1.0  0.55531  0.14404  0.28888  1.0000
  H   H1123     1.0  0.83477  0.50456  0.27719  1.0000
  H   H1124     1.0  0.77494  0.42357  0.34197  1.0000
  C   C626      1.0  0.72809  0.01770  0.15564  1.0000
  H   H1125     1.0  0.77493  0.13059  0.17483  1.0000
  H   H1126     1.0  0.68659  0.30148  0.32547  1.0000
  H   H1127     1.0  0.53673  0.21970  0.12694  1.0000
  H   H1128     1.0  0.81891  0.01829  0.16287  1.0000
  Fe  Fe71      1.0  0.64501  0.04816  0.19715  1.0000
  H   H1129     1.0  0.82478  0.07309  0.16514  1.0000
  H   H1130     1.0  0.68731  0.22016  0.27226  1.0000
  C   C627      1.0  0.66430  0.21038  0.28047  1.0000
  H   H1131     1.0  0.59735  0.12993  0.31703  1.0000
  H   H1132     1.0  0.55678  0.10223  0.28034  1.0000
  N   N35       1.0  0.82690  0.37030  0.08670  1.0000
  C   C628      1.0  0.83437  0.38272  0.06620  1.0000
  C   C629      1.0  0.85020  0.38809  0.10192  1.0000
  C   C630      1.0  0.83601  0.33394  0.08697  1.0000
  C   C631      1.0  0.78845  0.37342  0.09187  1.0000
  C   C632      1.0  0.77316  0.40876  0.09107  1.0000
  H   H1133     1.0  0.78354  0.36959  0.05156  1.0000
  C   C633      1.0  0.83300  0.31668  0.10722  1.0000
  C   C634      1.0  0.86109  0.42459  0.09779  1.0000
  C   C635      1.0  0.88196  0.43976  0.11516  1.0000
  C   C636      1.0  0.73305  0.40809  0.09323  1.0000
  H   H1134     1.0  0.54314  0.04365  0.29209  1.0000
  C   C637      1.0  0.84868  0.28199  0.10654  1.0000
  H   H1135     1.0  0.86279  0.37910  0.06279  1.0000
  H   H1136     1.0  0.83022  0.40977  0.06519  1.0000
  H   H1137     1.0  0.83760  0.38753  0.11671  1.0000
  H   H1138     1.0  0.87571  0.37493  0.10384  1.0000
  H   H1139     1.0  0.86336  0.33037  0.08151  1.0000
  H   H1140     1.0  0.81829  0.31934  0.07686  1.0000
  H   H1141     1.0  0.77182  0.35655  0.08244  1.0000
  H   H1142     1.0  0.78382  0.36462  0.10710  1.0000
  H   H1143     1.0  0.77887  0.42108  0.07694  1.0000
  H   H1144     1.0  0.78420  0.42399  0.10345  1.0000
  H   H1145     1.0  0.53242  0.15002  0.14467  1.0000
  H   H1146     1.0  0.58491  0.03639  0.34673  1.0000
  H   H1147     1.0  0.80481  0.31398  0.11106  1.0000
  H   H1148     1.0  0.84661  0.33069  0.11929  1.0000
  H   H1149     1.0  0.87852  0.42574  0.08474  1.0000
  H   H1150     1.0  0.83790  0.44030  0.09498  1.0000
  H   H1151     1.0  0.88929  0.46587  0.11192  1.0000
  H   H1152     1.0  0.86584  0.43965  0.12869  1.0000
  H   H1153     1.0  0.66600  0.03982  0.35248  1.0000
  H   H1154     1.0  0.52902  0.20753  0.15214  1.0000
  H   H1155     1.0  0.72045  0.39325  0.08111  1.0000
  H   H1156     1.0  0.53964  0.16018  0.25924  1.0000
  H   H1157     1.0  0.74352  0.07826  0.16632  1.0000
  C   C638      1.0  0.52527  0.29617  0.33512  1.0000
  H   H1158     1.0  0.87754  0.28343  0.10397  1.0000
  H   H1159     1.0  0.84415  0.26960  0.12087  1.0000
  H   H1160     1.0  0.83584  0.26675  0.09468  1.0000
  H   H1161     1.0  0.80677  0.35698  0.29026  1.0000
  C   C639      1.0  0.65255  0.09563  0.25713  1.0000
  C   C640      1.0  0.52457  0.20486  0.29969  1.0000
  H   H1162     1.0  0.52407  0.29911  0.31888  1.0000
  C   C641      1.0  0.81224  0.36660  0.04913  1.0000
  C   C642      1.0  0.73190  0.32925  0.33709  1.0000
  H   H1163     1.0  0.53901  0.27288  0.33853  1.0000
  C   C643      1.0  0.82201  0.33636  0.31872  1.0000
  C   C644      1.0  0.65273  0.17681  0.27177  1.0000
  H   H1164     1.0  0.53661  0.34884  0.33996  1.0000
  C   C645      1.0  0.80421  0.36340  0.33150  1.0000
  S   S142      1.0  0.64380  0.10745  0.35080  1.0000
  C   C646      1.0  0.54822  0.32446  0.34354  1.0000
  H   H1165     1.0  0.55394  0.09914  0.33602  1.0000
  H   H1166     1.0  0.72552  0.39733  0.10759  1.0000
  H   H1167     1.0  0.78254  0.37340  0.32232  1.0000
  H   H1168     1.0  0.54541  0.40666  0.21251  1.0000
  C   C647      1.0  0.67993  0.06898  0.26103  1.0000
  H   H1169     1.0  0.90653  0.42574  0.11797  1.0000
  H   H1170     1.0  0.54244  0.02128  0.35478  1.0000
  H   H1171     1.0  0.84918  0.37961  0.02592  1.0000
  C   C648      1.0  0.97810  0.48372  0.27308  1.0000
  H   H1172     1.0  0.72285  0.43373  0.09263  1.0000
  H   H1173     1.0  0.53045  0.08632  0.31395  1.0000
  C   C649      1.0  0.53193  0.38781  0.20294  1.0000
  S   S143      1.0  0.99421  0.50168  0.14192  1.0000
  C   C650      1.0  0.58112  0.11115  0.30897  1.0000
  H   H1174     1.0  0.53185  0.12943  0.32115  1.0000
  H   H1175     1.0  0.84931  0.37137  0.29964  1.0000
  N   N36       1.0  0.58149  0.16546  0.13118  1.0000
  C   C651      1.0  0.59550  0.18875  0.11568  1.0000
  C   C652      1.0  0.59862  0.17296  0.15103  1.0000
  C   C653      1.0  0.59165  0.13077  0.12502  1.0000
  C   C654      1.0  0.54178  0.16614  0.13254  1.0000
  H   H1176     1.0  0.66670  0.11827  0.25240  1.0000
  C   C655      1.0  0.57871  0.18471  0.09478  1.0000
  C   C656      1.0  0.58545  0.10300  0.14037  1.0000
  C   C657      1.0  0.60670  0.20984  0.15625  1.0000
  H   H1177     1.0  0.81788  0.33981  0.04753  1.0000
  C   C658      1.0  0.59551  0.20864  0.08023  1.0000
  C   C659      1.0  0.59561  0.06928  0.13182  1.0000
  H   H1178     1.0  0.62467  0.18600  0.11441  1.0000
  H   H1179     1.0  0.59208  0.21515  0.11990  1.0000
  H   H1180     1.0  0.58251  0.16220  0.16309  1.0000
  H   H1181     1.0  0.62474  0.16071  0.15213  1.0000
  H   H1182     1.0  0.62007  0.13030  0.12101  1.0000
  H   H1183     1.0  0.57689  0.12275  0.11151  1.0000
  C   C660      1.0  0.52523  0.20036  0.13640  1.0000
  S   S144      1.0  0.53284  0.02384  0.16363  1.0000
  H   H1184     1.0  0.82349  0.38437  0.33340  1.0000
  H   H1185     1.0  0.87228  0.48557  0.28894  1.0000
  H   H1186     1.0  0.58237  0.15940  0.08874  1.0000
  H   H1187     1.0  0.55006  0.19001  0.09515  1.0000
  H   H1188     1.0  0.55734  0.10128  0.14468  1.0000
  H   H1189     1.0  0.60161  0.10736  0.15392  1.0000
  H   H1190     1.0  0.62937  0.21877  0.14742  1.0000
  S   S145      1.0  0.92514  0.46434  0.18150  1.0000
  H   H1191     1.0  0.54928  0.38214  0.19026  1.0000
  C   C661      1.0  0.55600  0.17059  0.22989  1.0000
  H   H1192     1.0  0.62362  0.20227  0.07801  1.0000
  H   H1193     1.0  0.58163  0.20671  0.06576  1.0000
  H   H1194     1.0  0.59380  0.23466  0.08567  1.0000
  H   H1195     1.0  0.81439  0.40941  0.02976  1.0000
  H   H1196     1.0  0.59406  0.05026  0.14346  1.0000
  H   H1197     1.0  0.57723  0.06184  0.11965  1.0000
  H   H1198     1.0  0.58409  0.22604  0.15316  1.0000
  H   H1199     1.0  0.66652  0.04532  0.26484  1.0000
  C   C662      1.0  0.67743  0.10082  0.15573  1.0000
  C   C663      1.0  0.62210  0.16153  0.28368  1.0000
  C   C664      1.0  0.75541  0.40783  0.34980  1.0000
  H   H1200     1.0  0.63572  0.08672  0.24456  1.0000
  H   H1201     1.0  0.52802  0.36484  0.21161  1.0000
  H   H1202     1.0  0.60230  0.18110  0.28644  1.0000
  C   C665      1.0  0.62938  0.10172  0.27555  1.0000
  C   C666      1.0  0.86353  0.50003  0.27597  1.0000
  H   H1203     1.0  0.58027  0.17614  0.22143  1.0000
  H   H1204     1.0  0.57758  0.11317  0.24860  1.0000
  H   H1205     1.0  0.53809  0.19202  0.22853  1.0000
  C   C667      1.0  0.59092  0.13624  0.25428  1.0000
  H   H1206     1.0  0.95458  0.47452  0.28022  1.0000
  H   H1207     1.0  0.67595  0.16040  0.27245  1.0000
  C   C668      1.0  0.70061  0.26676  0.03075  1.0000
  C   C669      1.0  0.79979  0.08237  0.17139  1.0000
  H   H1208     1.0  0.72649  0.27776  0.32705  1.0000
  H   H1209     1.0  0.62302  0.06991  0.12622  1.0000
  C   C670      1.0  0.72400  0.02257  0.13306  1.0000
  H   H1210     1.0  0.54258  0.14829  0.22346  1.0000
  S   S146      1.0  0.65413  0.20526  0.34290  1.0000
  Fe  Fe72      1.0  0.92820  0.49961  0.20764  1.0000
  S   S147      1.0  0.58172  0.02247  0.25882  1.0000
  C   C671      1.0  0.82082  0.38263  0.02941  1.0000
  Fe  Fe73      1.0  0.95299  0.50555  0.16548  1.0000
  C   C672      1.0  0.53019  0.02147  0.28649  1.0000
  S   S148      1.0  0.57420  0.17584  0.34898  1.0000
  H   H1211     1.0  0.94835  0.50687  0.33213  1.0000
  N   N37       1.0  0.76307  0.02827  0.16475  1.0000
  H   H1212     1.0  0.79021  0.02176  0.19276  1.0000
  C   C673      1.0  0.56124  0.02140  0.34234  1.0000
  H   H1213     1.0  0.79688  0.01890  0.13985  1.0000
  C   C674      1.0  0.76272  0.02296  0.18684  1.0000
  C   C675      1.0  0.61588  0.13930  0.63314  1.0000
  S   S149      1.0  0.92120  0.39809  0.64669  1.0000
  C   C676      1.0  0.57737  0.04885  0.39568  1.0000
  S   S150      1.0  0.75432  0.37019  0.62542  1.0000
  S   S151      1.0  0.84415  0.40190  0.60686  1.0000
  H   H1214     1.0  0.81518  0.35855  0.65859  1.0000
  C   C677      1.0  0.53242  0.24005  0.65625  1.0000
  S   S152      1.0  0.59486  0.25093  0.36585  1.0000
  H   H1215     1.0  0.89912  0.31815  0.65413  1.0000
  C   C678      1.0  0.83926  0.41942  0.54360  1.0000
  S   S153      1.0  0.78164  0.45509  0.45053  1.0000
  S   S154      1.0  0.72664  0.04695  0.62101  1.0000
  H   H1216     1.0  0.75510  0.31773  0.36485  1.0000
  H   H1217     1.0  0.91027  0.49543  0.41573  1.0000
  S   S155      1.0  0.57097  0.21662  0.65552  1.0000
  H   H1218     1.0  0.62469  0.14790  0.61847  1.0000
  H   H1219     1.0  0.92078  0.27396  0.63388  1.0000
  H   H1220     1.0  0.84016  0.46804  0.49437  1.0000
  C   C679      1.0  0.55113  0.06256  0.42817  1.0000
  S   S156      1.0  0.66400  0.21871  0.67616  1.0000
  H   H1221     1.0  0.64944  0.41165  0.62551  1.0000
  Fe  Fe74      1.0  0.85203  0.42707  0.41276  1.0000
  S   S157      1.0  0.88658  0.41430  0.38679  1.0000
  H   H1222     1.0  0.62380  0.15834  0.64435  1.0000
  S   S158      1.0  0.71979  0.40519  0.41293  1.0000
  S   S159      1.0  0.81913  0.39034  0.42944  1.0000
  H   H1223     1.0  0.80869  0.29992  0.66549  1.0000
  S   S160      1.0  0.84120  0.47694  0.56653  1.0000
  H   H1224     1.0  0.53910  0.30946  0.64818  1.0000
  S   S161      1.0  0.83923  0.39742  0.48491  1.0000
  H   H1225     1.0  0.84080  0.49825  0.52646  1.0000
  H   H1226     1.0  0.64749  0.06230  0.61567  1.0000
  C   C680      1.0  0.50684  0.08106  0.39207  1.0000
  H   H1227     1.0  0.80457  0.35303  0.39308  1.0000
  Fe  Fe75      1.0  0.57443  0.20277  0.37797  1.0000
  H   H1228     1.0  0.76657  0.45227  0.50005  1.0000
  Fe  Fe76      1.0  0.64865  0.23036  0.37253  1.0000
  S   S162      1.0  0.69654  0.25441  0.38753  1.0000
  C   C681      1.0  0.64324  0.35980  0.44463  1.0000
  C   C682      1.0  0.81587  0.24234  0.64543  1.0000
  H   H1229     1.0  0.71067  0.43011  0.48598  1.0000
  S   S163      1.0  0.62762  0.18437  0.38704  1.0000
  C   C683      1.0  0.66819  0.08584  0.36884  1.0000
  C   C684      1.0  0.68023  0.10150  0.38618  1.0000
  C   C685      1.0  0.69713  0.08308  0.40095  1.0000
  C   C686      1.0  0.70200  0.04885  0.39855  1.0000
  C   C687      1.0  0.69114  0.03340  0.38090  1.0000
  C   C688      1.0  0.71296  0.31067  0.52906  1.0000
  H   H1230     1.0  0.67636  0.12776  0.38830  1.0000
  H   H1231     1.0  0.70604  0.09531  0.41441  1.0000
  C   C689      1.0  0.52361  0.36071  0.64808  1.0000
  H   H1232     1.0  0.76250  0.35376  0.45510  1.0000
  C   C690      1.0  0.71305  0.36319  0.40608  1.0000
  C   C691      1.0  0.73763  0.33912  0.41112  1.0000
  C   C692      1.0  0.73172  0.30587  0.40560  1.0000
  C   C693      1.0  0.70133  0.29633  0.39485  1.0000
  C   C694      1.0  0.67653  0.32031  0.38986  1.0000
  C   C695      1.0  0.68237  0.35365  0.39553  1.0000
  H   H1233     1.0  0.76108  0.34599  0.41941  1.0000
  H   H1234     1.0  0.75091  0.28739  0.40958  1.0000
  H   H1235     1.0  0.65306  0.31319  0.38154  1.0000
  H   H1236     1.0  0.66316  0.37215  0.39162  1.0000
  C   C696      1.0  0.83946  0.41973  0.50751  1.0000
  C   C697      1.0  0.98246  0.44783  0.40578  1.0000
  C   C698      1.0  0.94728  0.43656  0.40544  1.0000
  C   C699      1.0  0.92992  0.43060  0.38745  1.0000
  H   H1237     1.0  0.76180  0.40047  0.47552  1.0000
  H   H1238     1.0  0.60011  0.04113  0.44126  1.0000
  H   H1239     1.0  0.53553  0.03969  0.42438  1.0000
  H   H1240     1.0  0.93381  0.43177  0.41912  1.0000
  C   C700      1.0  0.50650  0.15033  0.65542  1.0000
  H   H1241     1.0  0.79712  0.33846  0.48758  1.0000
  H   H1242     1.0  0.51957  0.16693  0.66653  1.0000
  H   H1243     1.0  0.71145  0.41621  0.36957  1.0000
  C   C701      1.0  0.51748  0.09854  0.67445  1.0000
  C   C702      1.0  0.55129  0.33352  0.64395  1.0000
  H   H1244     1.0  0.59611  0.37268  0.63012  1.0000
  C   C703      1.0  0.94323  0.31840  0.62186  1.0000
  H   H1245     1.0  0.53381  0.04679  0.46677  1.0000
  N   N38       1.0  0.58687  0.33817  0.65402  1.0000
  C   C704      1.0  0.71707  0.06931  0.64275  1.0000
  C   C705      1.0  0.72252  0.05581  0.66141  1.0000
  C   C706      1.0  0.71661  0.07519  0.67839  1.0000
  C   C707      1.0  0.70442  0.10779  0.67684  1.0000
  C   C708      1.0  0.69808  0.12098  0.65820  1.0000
  C   C709      1.0  0.70473  0.10187  0.64120  1.0000
  H   H1246     1.0  0.73224  0.03084  0.66269  1.0000
  H   H1247     1.0  0.54055  0.31255  0.46157  1.0000
  H   H1248     1.0  0.68904  0.14617  0.65685  1.0000
  H   H1249     1.0  0.70066  0.11247  0.62678  1.0000
  H   H1250     1.0  0.83888  0.37552  0.52509  1.0000
  H   H1251     1.0  0.83916  0.40584  0.55726  1.0000
  C   C710      1.0  0.74000  0.35148  0.64738  1.0000
  C   C711      1.0  0.74301  0.36773  0.66564  1.0000
  C   C712      1.0  0.73011  0.35242  0.68271  1.0000
  C   C713      1.0  0.88475  0.31493  0.63977  1.0000
  C   C714      1.0  0.71151  0.30449  0.66341  1.0000
  C   C715      1.0  0.72418  0.31988  0.64633  1.0000
  H   H1252     1.0  0.75487  0.39224  0.66657  1.0000
  H   H1253     1.0  0.85293  0.29692  0.67459  1.0000
  H   H1254     1.0  0.69964  0.28005  0.66245  1.0000
  H   H1255     1.0  0.72189  0.30723  0.63224  1.0000
  C   C716      1.0  0.58038  0.34246  0.67583  1.0000
  C   C717      1.0  0.85099  0.26174  0.64217  1.0000
  H   H1256     1.0  0.59811  0.02352  0.61076  1.0000
  C   C718      1.0  0.96105  0.42084  0.64681  1.0000
  C   C719      1.0  0.96664  0.44607  0.63322  1.0000
  H   H1257     1.0  0.62773  0.36983  0.68596  1.0000
  H   H1258     1.0  0.53139  0.08012  0.43418  1.0000
  H   H1259     1.0  0.62929  0.11567  0.63649  1.0000
  H   H1260     1.0  0.94656  0.45151  0.62232  1.0000
  C   C720      1.0  0.60754  0.30684  0.65079  1.0000
  C   C721      1.0  0.60952  0.29459  0.62907  1.0000
  H   H1261     1.0  0.75793  0.32998  0.51395  1.0000
  H   H1262     1.0  0.55439  0.33209  0.62766  1.0000
  C   C722      1.0  0.63814  0.26868  0.62635  1.0000
  H   H1263     1.0  0.59575  0.28614  0.65937  1.0000
  H   H1264     1.0  0.63485  0.30933  0.65671  1.0000
  H   H1265     1.0  0.65536  0.35177  0.63374  1.0000
  H   H1266     1.0  0.58396  0.28273  0.62459  1.0000
  H   H1267     1.0  0.61487  0.31543  0.61894  1.0000
  S   S164      1.0  0.72163  0.02632  0.41790  1.0000
  C   C723      1.0  0.84022  0.47144  0.52621  1.0000
  H   H1268     1.0  0.63759  0.25932  0.61090  1.0000
  H   H1269     1.0  0.66457  0.27971  0.62948  1.0000
  H   H1270     1.0  0.63368  0.24739  0.63630  1.0000
  C   C724      1.0  0.73312  0.43058  0.36262  1.0000
  H   H1271     1.0  0.79529  0.24971  0.63463  1.0000
  H   H1272     1.0  0.87034  0.25339  0.65353  1.0000
  H   H1273     1.0  0.69078  0.33236  0.44293  1.0000
  H   H1274     1.0  0.70402  0.40445  0.50717  1.0000
  C   C725      1.0  0.82249  0.31186  0.62787  1.0000
  C   C726      1.0  0.82854  0.30194  0.60609  1.0000
  H   H1275     1.0  0.82080  0.32648  0.45453  1.0000
  H   H1276     1.0  0.92691  0.50675  0.44004  1.0000
  H   H1277     1.0  0.86149  0.25281  0.62791  1.0000
  H   H1278     1.0  0.58554  0.07780  0.45317  1.0000
  C   C727      1.0  0.79815  0.31329  0.59288  1.0000
  H   H1279     1.0  0.59283  0.03055  0.57339  1.0000
  C   C728      1.0  0.57585  0.13413  0.63292  1.0000
  H   H1280     1.0  0.53123  0.26367  0.39615  1.0000
  H   H1281     1.0  0.53356  0.11895  0.40912  1.0000
  C   C729      1.0  0.94790  0.43633  0.36977  1.0000
  H   H1282     1.0  0.51200  0.35697  0.66288  1.0000
  C   C730      1.0  0.83912  0.40232  0.52536  1.0000
  H   H1283     1.0  0.68310  0.34717  0.49887  1.0000
  H   H1284     1.0  0.79512  0.30455  0.63189  1.0000
  H   H1285     1.0  0.82247  0.33939  0.62821  1.0000
  H   H1286     1.0  0.83052  0.27474  0.60418  1.0000
  H   H1287     1.0  0.85285  0.31421  0.60065  1.0000
  C   C731      1.0  0.81635  0.33213  0.38492  1.0000
  H   H1288     1.0  0.55369  0.03349  0.39183  1.0000
  H   H1289     1.0  0.66563  0.32498  0.46482  1.0000
  H   H1290     1.0  0.65171  0.37981  0.43451  1.0000
  C   C732      1.0  0.62081  0.02125  0.60069  1.0000
  H   H1291     1.0  0.89902  0.28858  0.61209  1.0000
  H   H1292     1.0  0.76154  0.42647  0.52157  1.0000
  H   H1293     1.0  0.55416  0.11013  0.38628  1.0000
  H   H1294     1.0  0.97438  0.36384  0.40481  1.0000
  H   H1295     1.0  0.77262  0.30261  0.59785  1.0000
  H   H1296     1.0  0.79650  0.34076  0.59309  1.0000
  H   H1297     1.0  0.80266  0.30510  0.57744  1.0000
  H   H1298     1.0  0.83471  0.31902  0.35628  1.0000
  H   H1299     1.0  0.82932  0.29328  0.47134  1.0000
  H   H1300     1.0  0.53036  0.30293  0.43608  1.0000
  H   H1301     1.0  0.86309  0.30151  0.38825  1.0000
  H   H1302     1.0  0.71459  0.28546  0.52241  1.0000
  S   S165      1.0  0.87282  0.47584  0.62124  1.0000
  Fe  Fe77      1.0  0.81842  0.48635  0.43230  1.0000
  H   H1303     1.0  0.74956  0.44270  0.37434  1.0000
  C   C733      1.0  0.60474  0.36864  0.64566  1.0000
  C   C734      1.0  0.91111  0.29646  0.62631  1.0000
  H   H1304     1.0  0.62878  0.34054  0.43580  1.0000
  Fe  Fe78      1.0  0.82899  0.42340  0.45596  1.0000
  Fe  Fe79      1.0  0.87476  0.42377  0.63255  1.0000
  N   N39       1.0  0.84872  0.29908  0.64277  1.0000
  C   C735      1.0  0.84002  0.45411  0.54408  1.0000
  S   S166      1.0  0.82749  0.42912  0.65192  1.0000
  H   H1305     1.0  0.65791  0.36207  0.65936  1.0000
  H   H1306     1.0  0.59616  0.39122  0.65380  1.0000
  H   H1307     1.0  0.68487  0.31666  0.53176  1.0000
  C   C736      1.0  0.50411  0.25602  0.39842  1.0000
  H   H1308     1.0  0.95059  0.50022  0.68194  1.0000
  Fe  Fe80      1.0  0.60594  0.21750  0.68245  1.0000
  H   H1309     1.0  0.62138  0.07433  0.59462  1.0000
  H   H1310     1.0  0.68901  0.40357  0.63943  1.0000
  C   C737      1.0  0.74719  0.43959  0.50966  1.0000
  Fe  Fe81      1.0  0.77388  0.42379  0.42311  1.0000
  H   H1311     1.0  0.50292  0.36541  0.61808  1.0000
  H   H1312     1.0  0.52040  0.23116  0.62550  1.0000
  H   H1313     1.0  0.96460  0.33144  0.38702  1.0000
  C   C738      1.0  0.98213  0.35309  0.39036  1.0000
  H   H1314     1.0  0.53564  0.38589  0.64759  1.0000
  H   H1315     1.0  0.73682  0.31741  0.45939  1.0000
  C   C739      1.0  0.57627  0.05459  0.44578  1.0000
  H   H1316     1.0  0.53099  0.07775  0.63360  1.0000
  H   H1317     1.0  0.76766  0.38077  0.49819  1.0000
  N   N40       1.0  0.52350  0.11670  0.65537  1.0000
  H   H1318     1.0  0.58717  0.05958  0.38162  1.0000
  H   H1319     1.0  0.56954  0.11585  0.62103  1.0000
  C   C740      1.0  0.83566  0.34657  0.66773  1.0000
  H   H1320     1.0  0.70956  0.38795  0.45462  1.0000
  C   C741      1.0  0.52450  0.29624  0.45157  1.0000
  C   C742      1.0  0.99859  0.46400  0.63346  1.0000
  H   H1321     1.0  0.57569  0.02942  0.47389  1.0000
  H   H1322     1.0  0.73035  0.45872  0.51654  1.0000
  H   H1323     1.0  0.62504  0.37021  0.45575  1.0000
  C   C743      1.0  0.98304  0.44813  0.37011  1.0000
  H   H1324     1.0  0.50616  0.11201  0.62491  1.0000
  S   S167      1.0  0.78755  0.46207  0.61393  1.0000
  C   C744      1.0  0.63933  0.05510  0.60041  1.0000
  S   S168      1.0  0.52741  0.19159  0.39688  1.0000
  H   H1325     1.0  0.79572  0.19174  0.64570  1.0000
  H   H1326     1.0  0.77177  0.30032  0.48684  1.0000
  C   C745      1.0  0.71434  0.32077  0.68167  1.0000
  H   H1327     1.0  0.88178  0.34050  0.63397  1.0000
  H   H1328     1.0  0.53730  0.25337  0.68700  1.0000
  H   H1329     1.0  0.84102  0.19608  0.65379  1.0000
  C   C746      1.0  0.98760  0.41352  0.66062  1.0000
  H   H1330     1.0  0.53209  0.27001  0.45373  1.0000
  H   H1331     1.0  0.57303  0.14030  0.66436  1.0000
  H   H1332     1.0  0.96218  0.30441  0.61270  1.0000
  C   C747      1.0  0.52166  0.25553  0.67367  1.0000
  H   H1333     1.0  0.57696  0.09823  0.65639  1.0000
  H   H1334     1.0  0.66342  0.05410  0.59124  1.0000
  H   H1335     1.0  0.82969  0.19888  0.62782  1.0000
  H   H1336     1.0  0.51075  0.16290  0.64112  1.0000
  C   C748      1.0  0.72433  0.41539  0.49746  1.0000
  N   N41       1.0  0.56788  0.07638  0.40981  1.0000
  C   C749      1.0  0.60045  0.09721  0.41411  1.0000
  H   H1337     1.0  0.79467  0.28856  0.45299  1.0000
  C   C750      1.0  0.54166  0.09821  0.39930  1.0000
  H   H1338     1.0  0.93504  0.34077  0.61362  1.0000
  H   H1339     1.0  0.72894  0.36065  0.52334  1.0000
  C   C751      1.0  0.59431  0.12959  0.42608  1.0000
  Fe  Fe82      1.0  0.82319  0.47970  0.63874  1.0000
  C   C752      1.0  0.60491  0.02369  0.40296  1.0000
  Fe  Fe83      1.0  0.83764  0.45457  0.59707  1.0000
  H   H1340     1.0  0.80583  0.24656  0.66054  1.0000
  C   C753      1.0  0.62863  0.14270  0.43553  1.0000
  H   H1341     1.0  0.62388  0.16696  0.44284  1.0000
  H   H1342     1.0  0.61291  0.10475  0.40002  1.0000
  H   H1343     1.0  0.62101  0.08278  0.42184  1.0000
  C   C754      1.0  0.56292  0.12182  0.65330  1.0000
  H   H1344     1.0  0.70558  0.31196  0.48996  1.0000
  C   C755      1.0  0.55746  0.03378  0.46126  1.0000
  H   H1345     1.0  0.98335  0.39398  0.67117  1.0000
  H   H1346     1.0  0.67896  0.38634  0.47430  1.0000
  Fe  Fe84      1.0  0.62923  0.16084  0.35711  1.0000
  H   H1347     1.0  0.86132  0.35895  0.66484  1.0000
  H   H1348     1.0  0.65219  0.42213  0.65157  1.0000
  H   H1349     1.0  0.58409  0.14901  0.41613  1.0000
  S   S169      1.0  0.80583  0.45826  0.40441  1.0000
  H   H1350     1.0  0.72723  0.31069  0.54347  1.0000
  C   C756      1.0  0.64576  0.36924  0.64517  1.0000
  H   H1351     1.0  0.56446  0.36491  0.67873  1.0000
  H   H1352     1.0  0.95680  0.32647  0.63575  1.0000
  H   H1353     1.0  0.57454  0.12606  0.43782  1.0000
  C   C757      1.0  0.65976  0.40379  0.64010  1.0000
  C   C758      1.0  0.83623  0.30883  0.66309  1.0000
  H   H1354     1.0  0.56368  0.15801  0.62896  1.0000
  H   H1355     1.0  0.56449  0.32102  0.68131  1.0000
  C   C759      1.0  0.83988  0.45437  0.50800  1.0000
  H   H1356     1.0  0.64921  0.14623  0.42416  1.0000
  H   H1357     1.0  0.63025  0.03581  0.40722  1.0000
  H   H1358     1.0  0.63849  0.12510  0.44674  1.0000
  C   C760      1.0  0.67459  0.05195  0.36602  1.0000
  Fe  Fe85      1.0  0.79640  0.41087  0.62561  1.0000
  S   S170      1.0  0.86651  0.45673  0.43993  1.0000
  N   N42       1.0  0.72666  0.35847  0.47944  1.0000
  C   C761      1.0  0.74691  0.38820  0.48753  1.0000
  C   C762      1.0  0.75125  0.33806  0.46699  1.0000
  C   C763      1.0  0.69798  0.37113  0.46587  1.0000
  C   C764      1.0  0.70991  0.33786  0.49540  1.0000
  C   C765      1.0  0.72982  0.33634  0.51556  1.0000
  C   C766      1.0  0.82107  0.20501  0.64301  1.0000
  C   C767      1.0  0.67531  0.34441  0.45470  1.0000
  C   C768      1.0  0.78212  0.32107  0.47786  1.0000
  C   C769      1.0  0.80820  0.30644  0.46320  1.0000
  H   H1359     1.0  0.86951  0.34443  0.39566  1.0000
  C   C770      1.0  0.00037  0.45374  0.38817  1.0000
  C   C771      1.0  0.51051  0.09599  0.63798  1.0000
  H   H1360     1.0  0.52953  0.07355  0.67356  1.0000
  H   H1361     1.0  0.79848  0.31025  0.38579  1.0000
  C   C772      1.0  0.85067  0.32312  0.39553  1.0000
  H   H1362     1.0  0.84494  0.31659  0.41105  1.0000
  C   C773      1.0  0.82306  0.34143  0.36313  1.0000
  C   C774      1.0  0.77521  0.38176  0.36235  1.0000
  H   H1363     1.0  0.99677  0.45242  0.35645  1.0000
  H   H1364     1.0  0.51181  0.06293  0.38005  1.0000
  C   C775      1.0  0.51201  0.24295  0.63903  1.0000
  H   H1365     1.0  0.97805  0.37183  0.37871  1.0000
  H   H1366     1.0  0.99584  0.45190  0.41979  1.0000
  H   H1367     1.0  0.75694  0.37273  0.37391  1.0000
  H   H1368     1.0  0.84411  0.36106  0.36312  1.0000
  H   H1369     1.0  0.55106  0.32222  0.35980  1.0000
  H   H1370     1.0  0.79607  0.39631  0.37054  1.0000
  H   H1371     1.0  0.93461  0.43152  0.35581  1.0000
  H   H1372     1.0  0.61481  0.01348  0.64799  1.0000
  H   H1373     1.0  0.63143  0.32525  0.68752  1.0000
  C   C776      1.0  0.76110  0.46074  0.87155  1.0000
  H   H1374     1.0  0.59824  0.13571  0.74811  1.0000
  H   H1375     1.0  0.62195  0.23282  0.94826  1.0000
  Fe  Fe86      1.0  0.96525  0.49495  0.82808  1.0000
  Fe  Fe87      1.0  0.90451  0.45881  0.84917  1.0000
  S   S171      1.0  0.85870  0.42244  0.84493  1.0000
  H   H1376     1.0  0.68928  0.10857  0.73767  1.0000
  Fe  Fe88      1.0  0.75813  0.29918  0.91327  1.0000
  S   S172      1.0  0.71163  0.32004  0.92925  1.0000
  S   S173      1.0  0.81103  0.32621  0.91354  1.0000
  Fe  Fe89      1.0  0.71838  0.23553  0.90116  1.0000
  S   S174      1.0  0.66918  0.25132  0.91630  1.0000
  S   S175      1.0  0.72412  0.18998  0.88153  1.0000
  Fe  Fe90      1.0  0.68011  0.30101  0.90314  1.0000
  S   S176      1.0  0.63813  0.33131  0.88823  1.0000
  Fe  Fe91      1.0  0.70470  0.26876  0.94132  1.0000
  S   S177      1.0  0.68343  0.25675  0.97167  1.0000
  S   S178      1.0  0.72707  0.28438  0.88619  1.0000
  S   S179      1.0  0.75358  0.24874  0.92718  1.0000
  H   H1377     1.0  0.60312  0.19312  0.92132  1.0000
  C   C777      1.0  0.59414  0.29491  0.94423  1.0000
  H   H1378     1.0  0.90486  0.27051  0.87117  1.0000
  H   H1379     1.0  0.61743  0.18969  0.84879  1.0000
  H   H1380     1.0  0.53875  0.24054  0.74097  1.0000
  H   H1381     1.0  0.70122  0.39701  0.88333  1.0000
  S   S180      1.0  0.67480  0.21465  0.72397  1.0000
  Fe  Fe92      1.0  0.61585  0.21322  0.72694  1.0000
  S   S181      1.0  0.59740  0.20410  0.75828  1.0000
  H   H1382     1.0  0.62769  0.34992  0.72028  1.0000
  H   H1383     1.0  0.78122  0.23747  0.85572  1.0000
  C   C778      1.0  0.98562  0.48542  0.72148  1.0000
  C   C779      1.0  0.55635  0.21692  0.76756  1.0000
  C   C780      1.0  0.54785  0.20946  0.78715  1.0000
  H   H1384     1.0  0.56331  0.08065  0.75457  1.0000
  C   C781      1.0  0.52243  0.07369  0.85544  1.0000
  H   H1385     1.0  0.56651  0.19627  0.79624  1.0000
  S   S182      1.0  0.60790  0.25620  0.70652  1.0000
  C   C782      1.0  0.70264  0.26863  0.99470  1.0000
  H   H1386     1.0  0.58374  0.08035  0.77852  1.0000
  C   C783      1.0  0.73309  0.28854  0.99610  1.0000
  C   C784      1.0  0.92245  0.48873  0.71462  1.0000
  H   H1387     1.0  0.74576  0.29701  0.98283  1.0000
  C   C785      1.0  0.69943  0.12808  0.87056  1.0000
  C   C786      1.0  0.69389  0.15615  0.88251  1.0000
  C   C787      1.0  0.66428  0.15687  0.89464  1.0000
  C   C788      1.0  0.81591  0.47831  0.88974  1.0000
  H   H1388     1.0  0.65975  0.17831  0.90389  1.0000
  C   C789      1.0  0.59835  0.30900  0.88529  1.0000
  C   C790      1.0  0.59836  0.27441  0.88507  1.0000
  C   C791      1.0  0.56645  0.25657  0.88495  1.0000
  C   C792      1.0  0.53430  0.27325  0.88484  1.0000
  C   C793      1.0  0.53418  0.30787  0.88386  1.0000
  C   C794      1.0  0.56626  0.32576  0.88404  1.0000
  H   H1389     1.0  0.62299  0.26132  0.88515  1.0000
  H   H1390     1.0  0.56683  0.22986  0.88568  1.0000
  C   C795      1.0  0.53232  0.23443  0.75601  1.0000
  H   H1391     1.0  0.56615  0.35257  0.88413  1.0000
  C   C796      1.0  0.84645  0.39487  0.86379  1.0000
  C   C797      1.0  0.81422  0.37738  0.86216  1.0000
  C   C798      1.0  0.80299  0.35629  0.87732  1.0000
  C   C799      1.0  0.82418  0.35222  0.89410  1.0000
  C   C800      1.0  0.85679  0.36905  0.89550  1.0000
  C   C801      1.0  0.86787  0.39040  0.88043  1.0000
  H   H1392     1.0  0.79770  0.38052  0.84921  1.0000
  H   H1393     1.0  0.77787  0.34339  0.87609  1.0000
  H   H1394     1.0  0.87342  0.36587  0.90840  1.0000
  H   H1395     1.0  0.89294  0.40344  0.88171  1.0000
  S   S183      1.0  0.90657  0.50173  0.82825  1.0000
  H   H1396     1.0  0.56598  0.24120  0.92565  1.0000
  S   S184      1.0  0.96298  0.44884  0.84676  1.0000
  H   H1397     1.0  0.60545  0.29992  0.98419  1.0000
  H   H1398     1.0  0.83373  0.19800  0.91747  1.0000
  C   C802      1.0  0.84973  0.45005  0.91725  1.0000
  H   H1399     1.0  0.82412  0.38019  0.69190  1.0000
  C   C803      1.0  0.60332  0.34843  0.71101  1.0000
  C   C804      1.0  0.56477  0.11910  0.84879  1.0000
  C   C805      1.0  0.71909  0.41114  0.87350  1.0000
  H   H1400     1.0  0.73235  0.36520  0.69678  1.0000
  C   C806      1.0  0.69341  0.02660  0.77329  1.0000
  C   C807      1.0  0.82921  0.18632  0.90275  1.0000
  H   H1401     1.0  0.75703  0.01502  0.69610  1.0000
  C   C808      1.0  0.57532  0.10639  0.82812  1.0000
  H   H1402     1.0  0.58739  0.37084  0.71391  1.0000
  S   S185      1.0  0.69839  0.30239  0.70340  1.0000
  C   C809      1.0  0.68654  0.25780  0.01210  1.0000
  H   H1403     1.0  0.54472  0.06190  0.86348  1.0000
  H   H1404     1.0  0.77089  0.31268  0.01575  1.0000
  H   H1405     1.0  0.56909  0.14640  0.84855  1.0000
  H   H1406     1.0  0.58431  0.10980  0.85956  1.0000
  H   H1407     1.0  0.54170  0.10683  0.88651  1.0000
  H   H1408     1.0  0.85561  0.47328  0.92563  1.0000
  H   H1409     1.0  0.98206  0.48120  0.73757  1.0000
  H   H1410     1.0  0.61003  0.25614  0.98168  1.0000
  H   H1411     1.0  0.77689  0.16972  0.91182  1.0000
  C   C810      1.0  0.64656  0.06033  0.71788  1.0000
  H   H1412     1.0  0.52621  0.31582  0.94698  1.0000
  H   H1413     1.0  0.88309  0.26265  0.84794  1.0000
  H   H1414     1.0  0.60413  0.04322  0.69794  1.0000
  H   H1415     1.0  0.56419  0.16249  0.88036  1.0000
  H   H1416     1.0  0.57095  0.07934  0.82631  1.0000
  H   H1417     1.0  0.56014  0.11975  0.81676  1.0000
  H   H1418     1.0  0.81134  0.14014  0.91572  1.0000
  H   H1419     1.0  0.55830  0.13766  0.78455  1.0000
  H   H1420     1.0  0.73979  0.39411  0.86824  1.0000
  H   H1421     1.0  0.79446  0.45859  0.91781  1.0000
  C   C811      1.0  0.66713  0.12134  0.74494  1.0000
  H   H1422     1.0  0.77531  0.27444  0.82738  1.0000
  C   C812      1.0  0.73559  0.44056  0.88480  1.0000
  H   H1423     1.0  0.50713  0.09824  0.81571  1.0000
  H   H1424     1.0  0.91882  0.47806  0.72958  1.0000
  N   N43       1.0  0.61540  0.28078  0.81789  1.0000
  C   C813      1.0  0.63133  0.27143  0.79830  1.0000
  C   C814      1.0  0.61366  0.25092  0.83121  1.0000
  C   C815      1.0  0.57801  0.29180  0.81386  1.0000
  C   C816      1.0  0.63498  0.30921  0.82794  1.0000
  C   C817      1.0  0.67477  0.30433  0.83221  1.0000
  C   C818      1.0  0.63358  0.29934  0.78275  1.0000
  C   C819      1.0  0.55502  0.29854  0.83228  1.0000
  C   C820      1.0  0.64409  0.22558  0.82992  1.0000
  C   C821      1.0  0.64363  0.20203  0.84743  1.0000
  C   C822      1.0  0.69237  0.33682  0.83913  1.0000
  H   H1425     1.0  0.69455  0.05136  0.74559  1.0000
  H   H1426     1.0  0.61594  0.25045  0.79150  1.0000
  H   H1427     1.0  0.65843  0.26187  0.80015  1.0000
  H   H1428     1.0  0.61155  0.25912  0.84684  1.0000
  H   H1429     1.0  0.58920  0.23598  0.82806  1.0000
  H   H1430     1.0  0.56374  0.27302  0.80449  1.0000
  H   H1431     1.0  0.57787  0.31519  0.80534  1.0000
  H   H1432     1.0  0.63172  0.33243  0.81944  1.0000
  H   H1433     1.0  0.62322  0.31473  0.84255  1.0000
  H   H1434     1.0  0.68907  0.29574  0.81900  1.0000
  H   H1435     1.0  0.67815  0.28623  0.84429  1.0000
  H   H1436     1.0  0.60684  0.30708  0.77799  1.0000
  H   H1437     1.0  0.64832  0.32123  0.78870  1.0000
  H   H1438     1.0  0.56584  0.31981  0.84100  1.0000
  H   H1439     1.0  0.55340  0.27664  0.84199  1.0000
  H   H1440     1.0  0.64092  0.21044  0.81620  1.0000
  H   H1441     1.0  0.67046  0.23760  0.82964  1.0000
  H   H1442     1.0  0.66391  0.18270  0.84539  1.0000
  H   H1443     1.0  0.64991  0.21577  0.86135  1.0000
  H   H1444     1.0  0.69105  0.35570  0.82736  1.0000
  H   H1445     1.0  0.67932  0.34657  0.85254  1.0000
  H   H1446     1.0  0.72054  0.33255  0.84283  1.0000
  C   C823      1.0  0.59137  0.27580  0.98564  1.0000
  H   H1447     1.0  0.80338  0.47921  0.84188  1.0000
  S   S186      1.0  0.69864  0.13151  0.69854  1.0000
  H   H1448     1.0  0.64801  0.03617  0.72552  1.0000
  H   H1449     1.0  0.68176  0.12633  0.77668  1.0000
  H   H1450     1.0  0.59862  0.29171  0.92810  1.0000
  C   C824      1.0  0.52487  0.12234  0.87670  1.0000
  H   H1451     1.0  0.94676  0.25348  0.84530  1.0000
  C   C825      1.0  0.60810  0.11673  0.75859  1.0000
  H   H1452     1.0  0.85198  0.46894  0.71763  1.0000
  H   H1453     1.0  0.50940  0.32091  0.88415  1.0000
  C   C826      1.0  0.54722  0.11986  0.77349  1.0000
  H   H1454     1.0  0.72165  0.16771  0.74584  1.0000
  H   H1455     1.0  0.74469  0.46949  0.85895  1.0000
  C   C827      1.0  0.53509  0.15897  0.88117  1.0000
  C   C828      1.0  0.85719  0.48567  0.70507  1.0000
  H   H1456     1.0  0.64819  0.03610  0.68912  1.0000
  C   C829      1.0  0.88874  0.50860  0.70965  1.0000
  H   H1457     1.0  0.66581  0.16347  0.76558  1.0000
  C   C830      1.0  0.93002  0.23448  0.85256  1.0000
  H   H1458     1.0  0.58799  0.32610  0.71536  1.0000
  C   C831      1.0  0.80124  0.15914  0.90544  1.0000
  C   C832      1.0  0.62290  0.08402  0.72971  1.0000
  H   H1459     1.0  0.94559  0.22343  0.86475  1.0000
  S   S187      1.0  0.90847  0.49135  0.87626  1.0000
  H   H1460     1.0  0.83149  0.50030  0.89518  1.0000
  C   C833      1.0  0.53252  0.11574  0.69337  1.0000
  H   H1461     1.0  0.75234  0.48934  0.90862  1.0000
  H   H1462     1.0  0.79449  0.14681  0.89113  1.0000
  H   H1463     1.0  0.74909  0.43078  0.89800  1.0000
  H   H1464     1.0  0.61796  0.13079  0.77174  1.0000
  N   N44       1.0  0.84319  0.23931  0.88263  1.0000
  C   C834      1.0  0.85746  0.25635  0.90114  1.0000
  C   C835      1.0  0.81679  0.21250  0.88780  1.0000
  C   C836      1.0  0.89116  0.24200  0.91096  1.0000
  H   H1465     1.0  0.77995  0.44296  0.86487  1.0000
  C   C837      1.0  0.89802  0.25808  0.93117  1.0000
  H   H1466     1.0  0.83626  0.25784  0.91238  1.0000
  H   H1467     1.0  0.86455  0.28276  0.89822  1.0000
  H   H1468     1.0  0.84094  0.28685  0.86782  1.0000
  H   H1469     1.0  0.80796  0.19867  0.87429  1.0000
  H   H1470     1.0  0.79247  0.22370  0.89390  1.0000
  H   H1471     1.0  0.88959  0.21491  0.91300  1.0000
  H   H1472     1.0  0.91460  0.24718  0.90176  1.0000
  H   H1473     1.0  0.90087  0.28542  0.92981  1.0000
  H   H1474     1.0  0.87589  0.25248  0.94129  1.0000
  H   H1475     1.0  0.92273  0.24829  0.93772  1.0000
  H   H1476     1.0  0.57494  0.34444  0.93699  1.0000
  C   C838      1.0  0.64874  0.06978  0.76267  1.0000
  Fe  Fe93      1.0  0.66699  0.17868  0.69875  1.0000
  C   C839      1.0  0.81419  0.45253  0.90649  1.0000
  C   C840      1.0  0.78979  0.28338  0.84078  1.0000
  H   H1477     1.0  0.51194  0.15296  0.83829  1.0000
  H   H1478     1.0  0.62326  0.17352  0.94227  1.0000
  N   N45       1.0  0.56224  0.27489  0.95041  1.0000
  C   C841      1.0  0.56507  0.24018  0.94206  1.0000
  H   H1479     1.0  0.66320  0.24214  0.01116  1.0000
  C   C842      1.0  0.55745  0.27450  0.97253  1.0000
  C   C843      1.0  0.57580  0.09652  0.76612  1.0000
  H   H1480     1.0  0.52569  0.10534  0.78042  1.0000
  S   S188      1.0  0.60856  0.17453  0.70312  1.0000
  H   H1481     1.0  0.68774  0.03175  0.78907  1.0000
  H   H1482     1.0  0.54133  0.22506  0.94561  1.0000
  C   C844      1.0  0.51534  0.21904  0.79509  1.0000
  H   H1483     1.0  0.54141  0.29598  0.97741  1.0000
  H   H1484     1.0  0.54189  0.25213  0.97678  1.0000
  H   H1485     1.0  0.67350  0.07056  0.71613  1.0000
  H   H1486     1.0  0.64693  0.33874  0.95811  1.0000
  H   H1487     1.0  0.80479  0.37045  0.01750  1.0000
  H   H1488     1.0  0.59248  0.21198  0.96488  1.0000
  H   H1489     1.0  0.57601  0.17140  0.93901  1.0000
  H   H1490     1.0  0.81176  0.30000  0.83617  1.0000
  C   C845      1.0  0.63129  0.05382  0.69719  1.0000
  C   C846      1.0  0.89679  0.25069  0.86052  1.0000
  H   H1491     1.0  0.51698  0.32907  0.81653  1.0000
  H   H1492     1.0  0.53413  0.29335  0.92486  1.0000
  H   H1493     1.0  0.61795  0.13030  0.90444  1.0000
  H   H1494     1.0  0.61576  0.10503  0.71994  1.0000
  H   H1495     1.0  0.84880  0.42916  0.92778  1.0000
  H   H1496     1.0  0.72911  0.16896  0.77216  1.0000
  H   H1497     1.0  0.84847  0.34408  0.69909  1.0000
  H   H1498     1.0  0.86047  0.20896  0.85810  1.0000
  H   H1499     1.0  0.52219  0.17597  0.87063  1.0000
  H   H1500     1.0  0.80297  0.27666  0.88109  1.0000
  N   N46       1.0  0.63742  0.09730  0.74915  1.0000
  H   H1501     1.0  0.59811  0.06975  0.73175  1.0000
  C   C847      1.0  0.80405  0.25385  0.85219  1.0000
  H   H1502     1.0  0.63109  0.10004  0.83519  1.0000
  C   C848      1.0  0.72005  0.15306  0.75959  1.0000
  H   H1503     1.0  0.83225  0.46639  0.87823  1.0000
  C   C849      1.0  0.59655  0.21932  0.94934  1.0000
  C   C850      1.0  0.53012  0.29037  0.94099  1.0000
  H   H1504     1.0  0.92260  0.46727  0.70416  1.0000
  C   C851      1.0  0.68739  0.05749  0.76092  1.0000
  C   C852      1.0  0.64065  0.12963  0.89492  1.0000
  C   C853      1.0  0.59976  0.18741  0.93718  1.0000
  H   H1505     1.0  0.72221  0.12731  0.86110  1.0000
  C   C854      1.0  0.64646  0.10137  0.88315  1.0000
  H   H1506     1.0  0.82188  0.24019  0.84225  1.0000
  H   H1507     1.0  0.65829  0.14009  0.73407  1.0000
  N   N47       1.0  0.52787  0.11080  0.85551  1.0000
  C   C855      1.0  0.82330  0.26550  0.87141  1.0000
  H   H1508     1.0  0.53410  0.07171  0.71165  1.0000
  C   C856      1.0  0.67588  0.10079  0.87088  1.0000
  C   C857      1.0  0.65265  0.28761  0.76423  1.0000
  H   H1509     1.0  0.68000  0.27993  0.76786  1.0000
  H   H1510     1.0  0.88804  0.20728  0.87877  1.0000
  C   C858      1.0  0.59212  0.33277  0.94829  1.0000
  H   H1511     1.0  0.73800  0.13161  0.75835  1.0000
  H   H1512     1.0  0.92296  0.21490  0.84151  1.0000
  H   H1513     1.0  0.62604  0.37643  0.95035  1.0000
  H   H1514     1.0  0.64568  0.07731  0.77840  1.0000
  H   H1515     1.0  0.62119  0.10385  0.80932  1.0000
  Fe  Fe94      1.0  0.96677  0.48426  0.87261  1.0000
  H   H1516     1.0  0.85369  0.17428  0.89769  1.0000
  C   C859      1.0  0.58250  0.27180  0.00743  1.0000
  C   C860      1.0  0.81310  0.50307  0.84829  1.0000
  H   H1517     1.0  0.77134  0.29773  0.85003  1.0000
  H   H1518     1.0  0.63818  0.26647  0.75716  1.0000
  H   H1519     1.0  0.63093  0.04804  0.76053  1.0000
  H   H1520     1.0  0.65408  0.30806  0.75341  1.0000
  S   S189      1.0  0.61595  0.06773  0.88397  1.0000
  C   C861      1.0  0.87188  0.22484  0.87013  1.0000
  H   H1521     1.0  0.62044  0.14011  0.82503  1.0000
  H   H1522     1.0  0.53594  0.13417  0.76106  1.0000
  H   H1523     1.0  0.61865  0.28574  0.95128  1.0000
  C   C862      1.0  0.61441  0.11313  0.82425  1.0000
  H   H1524     1.0  0.56413  0.29139  0.01232  1.0000
  C   C863      1.0  0.68215  0.14117  0.76301  1.0000
  H   H1525     1.0  0.68068  0.07919  0.86178  1.0000
  C   C864      1.0  0.62838  0.34951  0.94716  1.0000
  Fe  Fe95      1.0  0.62028  0.02172  0.86453  1.0000
  H   H1526     1.0  0.70631  0.07675  0.76638  1.0000
  H   H1527     1.0  0.63918  0.34645  0.93212  1.0000
  Fe  Fe96      1.0  0.66653  0.25457  0.70166  1.0000
  H   H1528     1.0  0.58098  0.33809  0.96302  1.0000
  H   H1529     1.0  0.50904  0.21318  0.81017  1.0000
  C   C865      1.0  0.52232  0.09678  0.71187  1.0000
  H   H1530     1.0  0.96581  0.43450  0.71708  1.0000
  H   H1531     1.0  0.70343  0.41979  0.86064  1.0000
  H   H1532     1.0  0.57044  0.24701  0.01003  1.0000
  C   C866      1.0  0.51729  0.30717  0.82631  1.0000
  H   H1533     1.0  0.87135  0.44550  0.90670  1.0000
  H   H1534     1.0  0.86207  0.47066  0.69156  1.0000
  H   H1535     1.0  0.80774  0.42771  0.90010  1.0000
  H   H1536     1.0  0.92514  0.49344  0.92810  1.0000
  H   H1537     1.0  0.53461  0.19362  0.90598  1.0000
  H   H1538     1.0  0.50419  0.28584  0.81861  1.0000
  H   H1539     1.0  0.84067  0.49993  0.85349  1.0000
  H   H1540     1.0  0.53243  0.11038  0.72512  1.0000
  N   N48       1.0  0.95709  0.50772  0.71367  1.0000
  H   H1541     1.0  0.71351  0.45614  0.88989  1.0000
  C   C867      1.0  0.74726  0.29743  0.01478  1.0000
  H   H1542     1.0  0.52305  0.06322  0.84031  1.0000
  N   N49       1.0  0.78118  0.48948  0.88110  1.0000
  H   H1543     1.0  0.53446  0.15076  0.91295  1.0000
  H   H1544     1.0  0.99154  0.48753  0.97421  1.0000
  C   C868      1.0  0.52405  0.16865  0.90206  1.0000
  H   H1545     1.0  0.83332  0.50075  0.70235  1.0000
  H   H1546     1.0  0.58051  0.02138  0.75274  1.0000
  H   H1547     1.0  0.56177  0.11662  0.69304  1.0000
  H   H1548     1.0  0.60707  0.27405  0.01647  1.0000
  H   H1549     1.0  0.52252  0.14130  0.69495  1.0000
  S   S190      1.0  0.99441  0.51326  0.80103  1.0000
  H   H1550     1.0  0.72131  0.01879  0.77212  1.0000
  H   H1551     1.0  0.72188  0.06507  0.69278  1.0000
  H   H1552     1.0  0.80179  0.34059  0.69335  1.0000
  H   H1553     1.0  0.98376  0.45264  0.69530  1.0000
  C   C869      1.0  0.98727  0.45076  0.71146  1.0000
  H   H1554     1.0  0.75800  0.02857  0.72152  1.0000
  H   H1555     1.0  0.63061  0.07722  0.68868  1.0000
  H   H1556     1.0  0.99891  0.44672  0.96368  1.0000
  C   C870      1.0  0.82695  0.35312  0.68936  1.0000
  C   C871      1.0  0.61345  0.34644  0.68928  1.0000
  C   C872      1.0  0.76059  0.50682  0.89701  1.0000
  H   H1557     1.0  0.00108  0.48274  0.94834  1.0000
  S   S191      1.0  0.00150  0.48356  0.89965  1.0000
  H   H1558     1.0  0.69286  0.51048  0.91393  1.0000
  H   H1559     1.0  0.71200  0.51046  0.87874  1.0000
  Fe  Fe97      1.0  0.82417  0.75873  0.12992  1.0000
  S   S192      1.0  0.87993  0.76596  0.12056  1.0000
  S   S193      1.0  0.80619  0.70581  0.13516  1.0000
  Fe  Fe98      1.0  0.80778  0.83278  0.12614  1.0000
  S   S194      1.0  0.86335  0.84473  0.11657  1.0000
  S   S195      1.0  0.76733  0.87426  0.12525  1.0000
  Fe  Fe99      1.0  0.85801  0.79916  0.09729  1.0000
  S   S196      1.0  0.88137  0.79169  0.06688  1.0000
  Fe  Fe100     1.0  0.88004  0.81012  0.14069  1.0000
  S   S197      1.0  0.92469  0.82158  0.16247  1.0000
  S   S198      1.0  0.80176  0.78908  0.10522  1.0000
  S   S199      1.0  0.82479  0.80133  0.15164  1.0000
  H   H1560     1.0  0.96320  0.54560  0.32153  1.0000
  C   C873      1.0  0.79444  0.68657  0.34834  1.0000
  H   H1561     1.0  0.53729  0.96437  0.24967  1.0000
  H   H1562     1.0  0.68602  0.01334  0.10938  1.0000
  S   S200      1.0  0.58384  0.97091  0.20604  1.0000
  H   H1563     1.0  0.71318  0.99620  0.19244  1.0000
  Fe  Fe101     1.0  0.64148  0.97248  0.19751  1.0000
  S   S201      1.0  0.67649  0.92711  0.19749  1.0000
  C   C874      1.0  0.96599  0.61400  0.14346  1.0000
  H   H1564     1.0  0.74917  0.77628  0.07102  1.0000
  H   H1565     1.0  0.76870  0.65735  0.05998  1.0000
  H   H1566     1.0  0.94669  0.61124  0.22554  1.0000
  H   H1567     1.0  0.65894  0.97758  0.26186  1.0000
  C   C875      1.0  0.85059  0.62633  0.16184  1.0000
  S   S202      1.0  0.88537  0.70337  0.33378  1.0000
  Fe  Fe102     1.0  0.94361  0.71114  0.33021  1.0000
  H   H1568     1.0  0.71242  0.89505  0.34632  1.0000
  C   C876      1.0  0.57136  0.98584  0.33723  1.0000
  S   S203      1.0  0.96030  0.53821  0.19219  1.0000
  H   H1569     1.0  0.81984  0.67319  0.34823  1.0000
  H   H1570     1.0  0.99162  0.82739  0.18264  1.0000
  H   H1571     1.0  0.90920  0.71525  0.08964  1.0000
  H   H1572     1.0  0.95118  0.62787  0.25012  1.0000
  H   H1573     1.0  0.95432  0.59078  0.14936  1.0000
  H   H1574     1.0  0.51820  0.90632  0.32230  1.0000
  H   H1575     1.0  0.81294  0.57494  0.06322  1.0000
  H   H1576     1.0  0.83059  0.61859  0.20569  1.0000
  H   H1577     1.0  0.93042  0.55701  0.23641  1.0000
  C   C877      1.0  0.00199  0.71215  0.28959  1.0000
  H   H1578     1.0  0.70741  0.75456  0.06955  1.0000
  H   H1579     1.0  0.70016  0.99349  0.27186  1.0000
  Fe  Fe103     1.0  0.90836  0.56007  0.18327  1.0000
  C   C878      1.0  0.79275  0.97247  0.15568  1.0000
  C   C879      1.0  0.83582  0.68050  0.14840  1.0000
  H   H1580     1.0  0.86880  0.89526  0.02286  1.0000
  C   C880      1.0  0.86693  0.69368  0.15679  1.0000
  H   H1581     1.0  0.91328  0.68384  0.17439  1.0000
  H   H1582     1.0  0.87350  0.71957  0.15488  1.0000
  C   C881      1.0  0.96206  0.79594  0.16238  1.0000
  C   C882      1.0  0.69329  0.91528  0.34873  1.0000
  C   C883      1.0  0.66925  0.91850  0.33065  1.0000
  H   H1583     1.0  0.91677  0.53537  0.32214  1.0000
  H   H1584     1.0  0.79906  0.86946  0.04058  1.0000
  C   C884      1.0  0.96259  0.76676  0.15114  1.0000
  H   H1585     1.0  0.65508  0.89449  0.32865  1.0000
  S   S204      1.0  0.90830  0.61617  0.18640  1.0000
  H   H1586     1.0  0.54672  0.97207  0.33318  1.0000
  H   H1587     1.0  0.93983  0.75923  0.14255  1.0000
  C   C885      1.0  0.74228  0.88843  0.14555  1.0000
  C   C886      1.0  0.71634  0.91253  0.14240  1.0000
  C   C887      1.0  0.69608  0.92471  0.15815  1.0000
  C   C888      1.0  0.70155  0.91284  0.17722  1.0000
  C   C889      1.0  0.72749  0.88879  0.18038  1.0000
  C   C890      1.0  0.74783  0.87668  0.16465  1.0000
  H   H1588     1.0  0.71177  0.92163  0.12766  1.0000
  H   H1589     1.0  0.67584  0.94281  0.15552  1.0000
  H   H1590     1.0  0.73185  0.87940  0.19507  1.0000
  H   H1591     1.0  0.76769  0.85817  0.16729  1.0000
  H   H1592     1.0  0.74131  0.00962  0.22511  1.0000
  C   C891      1.0  0.85477  0.78889  0.04539  1.0000
  C   C892      1.0  0.81929  0.79794  0.04548  1.0000
  S   S205      1.0  0.96380  0.69506  0.30017  1.0000
  H   H1593     1.0  0.80752  0.80667  0.05901  1.0000
  C   C893      1.0  0.88109  0.63983  0.17072  1.0000
  H   H1594     1.0  0.84396  0.60043  0.16387  1.0000
  C   C894      1.0  0.63301  0.95183  0.29699  1.0000
  C   C895      1.0  0.68836  0.00922  0.12551  1.0000
  H   H1595     1.0  0.58428  0.99252  0.30652  1.0000
  H   H1596     1.0  0.90230  0.64794  0.30423  1.0000
  S   S206      1.0  0.87627  0.52360  0.20058  1.0000
  H   H1597     1.0  0.81706  0.96466  0.12702  1.0000
  H   H1598     1.0  0.64380  0.92697  0.29340  1.0000
  C   C896      1.0  0.94220  0.53354  0.33034  1.0000
  C   C897      1.0  0.80928  0.69808  0.03856  1.0000
  S   S207      1.0  0.94411  0.75786  0.34897  1.0000
  H   H1599     1.0  0.69110  0.94959  0.27214  1.0000
  H   H1600     1.0  0.68639  0.92244  0.31771  1.0000
  H   H1601     1.0  0.56879  0.91768  0.28768  1.0000
  H   H1602     1.0  0.87851  0.54641  0.28921  1.0000
  H   H1603     1.0  0.84182  0.65565  0.21971  1.0000
  H   H1604     1.0  0.99706  0.57343  0.23158  1.0000
  H   H1605     1.0  0.81314  0.62539  0.04323  1.0000
  C   C898      1.0  0.74881  0.98726  0.21651  1.0000
  S   S208      1.0  0.90336  0.53018  0.15538  1.0000
  C   C899      1.0  0.82144  0.95782  0.14268  1.0000
  C   C900      1.0  0.50348  0.96068  0.16135  1.0000
  C   C901      1.0  0.59821  0.98462  0.32015  1.0000
  N   N50       1.0  0.89355  0.58512  0.25374  1.0000
  C   C902      1.0  0.93083  0.57616  0.24839  1.0000
  C   C903      1.0  0.87274  0.55363  0.25737  1.0000
  C   C904      1.0  0.87729  0.60168  0.23596  1.0000
  C   C905      1.0  0.89174  0.60845  0.27127  1.0000
  C   C906      1.0  0.92043  0.60488  0.28770  1.0000
  C   C907      1.0  0.83766  0.61057  0.23725  1.0000
  C   C908      1.0  0.86986  0.77801  0.02768  1.0000
  C   C909      1.0  0.88418  0.53279  0.27533  1.0000
  C   C910      1.0  0.90897  0.62163  0.30686  1.0000
  C   C911      1.0  0.82271  0.88603  0.04042  1.0000
  H   H1606     1.0  0.94484  0.56423  0.26080  1.0000
  H   H1607     1.0  0.84453  0.55910  0.25999  1.0000
  H   H1608     1.0  0.84802  0.96659  0.14765  1.0000
  H   H1609     1.0  0.88044  0.58587  0.22255  1.0000
  H   H1610     1.0  0.93070  0.62095  0.31795  1.0000
  H   H1611     1.0  0.89372  0.63471  0.26650  1.0000
  H   H1612     1.0  0.86528  0.60632  0.27820  1.0000
  H   H1613     1.0  0.99982  0.67816  0.26488  1.0000
  H   H1614     1.0  0.92649  0.57885  0.29111  1.0000
  C   C912      1.0  0.59018  0.92320  0.31779  1.0000
  H   H1615     1.0  0.83207  0.62438  0.25108  1.0000
  H   H1616     1.0  0.82087  0.58783  0.23656  1.0000
  H   H1617     1.0  0.89141  0.62532  0.23279  1.0000
  S   S209      1.0  0.65583  0.01085  0.22063  1.0000
  H   H1618     1.0  0.95134  0.62046  0.12979  1.0000
  C   C913      1.0  0.82645  0.63203  0.21986  1.0000
  C   C914      1.0  0.84020  0.68621  0.02552  1.0000
  H   H1619     1.0  0.99004  0.89220  0.12688  1.0000
  H   H1620     1.0  0.88561  0.60865  0.31303  1.0000
  C   C915      1.0  0.98584  0.70440  0.20005  1.0000
  H   H1621     1.0  0.85584  0.85258  0.02469  1.0000
  C   C916      1.0  0.99187  0.80488  0.17384  1.0000
  H   H1622     1.0  0.81412  0.91223  0.04002  1.0000
  N   N51       1.0  0.94227  0.73571  0.22258  1.0000
  C   C917      1.0  0.96525  0.76646  0.22176  1.0000
  C   C918      1.0  0.91430  0.73795  0.20665  1.0000
  C   C919      1.0  0.92616  0.73374  0.24280  1.0000
  C   C920      1.0  0.96328  0.70477  0.21900  1.0000
  C   C921      1.0  0.84575  0.87804  0.02268  1.0000
  S   S210      1.0  0.63482  0.00994  0.17342  1.0000
  C   C922      1.0  0.89799  0.70592  0.24552  1.0000
  C   C923      1.0  0.88648  0.76537  0.20953  1.0000
  C   C924      1.0  0.85887  0.76374  0.19301  1.0000
  H   H1623     1.0  0.73694  0.70104  0.06721  1.0000
  C   C925      1.0  0.52688  0.97689  0.26248  1.0000
  C   C926      1.0  0.88033  0.70889  0.26559  1.0000
  H   H1624     1.0  0.94977  0.78873  0.22576  1.0000
  H   H1625     1.0  0.97404  0.77082  0.20644  1.0000
  H   H1626     1.0  0.92661  0.74291  0.19212  1.0000
  H   H1627     1.0  0.90014  0.71380  0.20462  1.0000
  H   H1628     1.0  0.91450  0.75793  0.24708  1.0000
  H   H1629     1.0  0.94692  0.72934  0.25419  1.0000
  H   H1630     1.0  0.98112  0.69988  0.23175  1.0000
  H   H1631     1.0  0.94528  0.68276  0.21792  1.0000
  H   H1632     1.0  0.79779  0.96363  0.17088  1.0000
  H   H1633     1.0  0.96936  0.70820  0.18669  1.0000
  H   H1634     1.0  0.79235  0.65862  0.08249  1.0000
  H   H1635     1.0  0.80134  0.59836  0.08490  1.0000
  H   H1636     1.0  0.91055  0.68129  0.24463  1.0000
  H   H1637     1.0  0.87675  0.70686  0.23419  1.0000
  H   H1638     1.0  0.87230  0.76277  0.22364  1.0000
  H   H1639     1.0  0.89910  0.79033  0.20915  1.0000
  H   H1640     1.0  0.84449  0.73955  0.19296  1.0000
  H   H1641     1.0  0.83948  0.78385  0.19508  1.0000
  H   H1642     1.0  0.87182  0.76708  0.17855  1.0000
  H   H1643     1.0  0.79799  0.63794  0.22096  1.0000
  C   C927      1.0  0.73535  0.75264  0.07450  1.0000
  C   C928      1.0  0.53002  0.89949  0.30791  1.0000
  H   H1644     1.0  0.91256  0.52670  0.27492  1.0000
  H   H1645     1.0  0.54749  0.94895  0.30199  1.0000
  H   H1646     1.0  0.99108  0.76475  0.25107  1.0000
  H   H1647     1.0  0.86685  0.73307  0.26704  1.0000
  H   H1648     1.0  0.86028  0.68881  0.26719  1.0000
  H   H1649     1.0  0.90009  0.70675  0.27770  1.0000
  C   C929      1.0  0.82792  0.64667  0.15081  1.0000
  H   H1650     1.0  0.80398  0.63625  0.14433  1.0000
  C   C930      1.0  0.88935  0.67344  0.16796  1.0000
  N   N52       1.0  0.81221  0.69263  0.06060  1.0000
  C   C931      1.0  0.85021  0.69592  0.06742  1.0000
  H   H1651     1.0  0.61276  0.95636  0.28530  1.0000
  C   C932      1.0  0.79172  0.71961  0.07084  1.0000
  C   C933      1.0  0.66230  0.97845  0.29398  1.0000
  C   C934      1.0  0.79588  0.65980  0.06621  1.0000
  C   C935      1.0  0.85705  0.69169  0.08983  1.0000
  C   C936      1.0  0.75271  0.72361  0.06393  1.0000
  H   H1652     1.0  0.98445  0.65080  0.19563  1.0000
  H   H1653     1.0  0.68589  0.98220  0.12819  1.0000
  H   H1654     1.0  0.73579  0.74894  0.09072  1.0000
  C   C937      1.0  0.89657  0.69182  0.09463  1.0000
  C   C938      1.0  0.81542  0.62831  0.05947  1.0000
  H   H1655     1.0  0.86095  0.72071  0.06328  1.0000
  H   H1656     1.0  0.86726  0.67788  0.05979  1.0000
  H   H1657     1.0  0.84363  0.62896  0.06394  1.0000
  C   C939      1.0  0.99268  0.74690  0.15107  1.0000
  H   H1658     1.0  0.80541  0.74395  0.06906  1.0000
  H   H1659     1.0  0.79079  0.71538  0.08704  1.0000
  H   H1660     1.0  0.82046  0.93032  0.14359  1.0000
  H   H1661     1.0  0.72212  0.99123  0.15842  1.0000
  H   H1662     1.0  0.83801  0.88216  0.05426  1.0000
  H   H1663     1.0  0.78435  0.68675  0.03259  1.0000
  H   H1664     1.0  0.84531  0.71243  0.09818  1.0000
  H   H1665     1.0  0.84579  0.66805  0.09529  1.0000
  C   C940      1.0  0.55928  0.92415  0.30265  1.0000
  H   H1666     1.0  0.75074  0.72842  0.04788  1.0000
  C   C941      1.0  0.67908  0.97444  0.27372  1.0000
  C   C942      1.0  0.79924  0.79665  0.02790  1.0000
  C   C943      1.0  0.79375  0.01084  0.15538  1.0000
  C   C944      1.0  0.64321  0.94758  0.33332  1.0000
  H   H1667     1.0  0.57921  0.92090  0.33287  1.0000
  H   H1668     1.0  0.54047  0.87394  0.30866  1.0000
  H   H1669     1.0  0.74868  0.96921  0.18669  1.0000
  H   H1670     1.0  0.52807  0.95164  0.16737  1.0000
  H   H1671     1.0  0.90053  0.68989  0.11084  1.0000
  H   H1672     1.0  0.90954  0.67043  0.08742  1.0000
  H   H1673     1.0  0.76725  0.96222  0.15019  1.0000
  H   H1674     1.0  0.94548  0.61693  0.28308  1.0000
  H   H1675     1.0  0.60356  0.89930  0.31502  1.0000
  C   C945      1.0  0.79896  0.59729  0.06854  1.0000
  H   H1676     1.0  0.68361  0.97671  0.30524  1.0000
  H   H1677     1.0  0.79924  0.71308  0.34482  1.0000
  C   C946      1.0  0.54324  0.00596  0.26955  1.0000
  N   N53       1.0  0.61616  0.95180  0.31701  1.0000
  H   H1678     1.0  0.87327  0.53730  0.24401  1.0000
  H   H1679     1.0  0.77064  0.59482  0.06428  1.0000
  C   C947      1.0  0.95421  0.60519  0.24096  1.0000
  H   H1680     1.0  0.96257  0.63436  0.15440  1.0000
  H   H1681     1.0  0.62988  0.94370  0.34769  1.0000
  H   H1682     1.0  0.65930  0.97065  0.33557  1.0000
  H   H1683     1.0  0.89731  0.77096  0.02753  1.0000
  H   H1684     1.0  0.70831  0.93871  0.35161  1.0000
  H   H1685     1.0  0.99277  0.72441  0.14224  1.0000
  H   H1686     1.0  0.96394  0.85488  0.12317  1.0000
  H   H1687     1.0  0.99164  0.62910  0.32992  1.0000
  C   C948      1.0  0.99311  0.59599  0.24078  1.0000
  H   H1688     1.0  0.84847  0.66076  0.02901  1.0000
  H   H1689     1.0  0.73269  0.96590  0.22167  1.0000
  C   C949      1.0  0.99842  0.76702  0.23535  1.0000
  H   H1690     1.0  0.50880  0.90000  0.29648  1.0000
  H   H1691     1.0  0.61828  0.00459  0.32297  1.0000
  H   H1692     1.0  0.77701  0.67552  0.33669  1.0000
  C   C950      1.0  0.98688  0.86594  0.13134  1.0000
  H   H1693     1.0  0.58235  0.97435  0.35059  1.0000
  H   H1694     1.0  0.80737  0.72506  0.03539  1.0000
  C   C951      1.0  0.93899  0.55057  0.35048  1.0000
  H   H1695     1.0  0.77198  0.80431  0.02801  1.0000
  H   H1696     1.0  0.93157  0.57664  0.34775  1.0000
  S   S211      1.0  0.83956  0.78109  0.35372  1.0000
  H   H1697     1.0  0.50458  0.98691  0.20170  1.0000
  H   H1698     1.0  0.98114  0.86516  0.14735  1.0000
  C   C952      1.0  0.74195  0.99237  0.19451  1.0000
  H   H1699     1.0  0.77707  0.98178  0.21930  1.0000
  H   H1700     1.0  0.65104  0.00370  0.29482  1.0000
  H   H1701     1.0  0.86344  0.70299  0.02783  1.0000
  Fe  Fe104     1.0  0.57848  0.01149  0.18368  1.0000
  H   H1702     1.0  0.51443  0.93411  0.21811  1.0000
  H   H1703     1.0  0.74483  0.00921  0.12495  1.0000
  Fe  Fe105     1.0  0.59806  0.01219  0.22728  1.0000
  H   H1704     1.0  0.99317  0.56480  0.35381  1.0000
  Fe  Fe106     1.0  0.88658  0.74660  0.35493  1.0000
  H   H1705     1.0  0.73579  0.84509  0.67108  1.0000
  S   S212      1.0  0.78820  0.96947  0.60939  1.0000
  C   C953      1.0  0.61245  0.99820  0.38686  1.0000
  C   C954      1.0  0.95689  0.64923  0.40451  1.0000
  S   S213      1.0  0.71170  0.93019  0.40001  1.0000
  H   H1706     1.0  0.87863  0.74541  0.42361  1.0000
  H   H1707     1.0  0.98444  0.52351  0.36126  1.0000
  S   S214      1.0  0.87384  0.62106  0.35923  1.0000
  H   H1708     1.0  0.80879  0.72427  0.37983  1.0000
  C   C955      1.0  0.80011  0.65459  0.66387  1.0000
  H   H1709     1.0  0.78153  0.82566  0.35706  1.0000
  S   S215      1.0  0.84723  0.75654  0.66517  1.0000
  H   H1710     1.0  0.98275  0.60605  0.41457  1.0000
  H   H1711     1.0  0.72188  0.66011  0.41832  1.0000
  S   S216      1.0  0.92325  0.69828  0.66326  1.0000
  Fe  Fe107     1.0  0.70124  0.92503  0.62196  1.0000
  S   S217      1.0  0.65034  0.90085  0.63099  1.0000
  S   S218      1.0  0.82158  0.91038  0.65220  1.0000
  S   S219      1.0  0.74750  0.89676  0.61040  1.0000
  H   H1712     1.0  0.85581  0.68961  0.41242  1.0000
  N   N54       1.0  0.93389  0.83610  0.62679  1.0000
  C   C956      1.0  0.84337  0.70223  0.42495  1.0000
  C   C957      1.0  0.89877  0.63088  0.62837  1.0000
  N   N55       1.0  0.97328  0.56051  0.38356  1.0000
  H   H1713     1.0  0.83643  0.54645  0.61682  1.0000
  H   H1714     1.0  0.73472  0.65090  0.39365  1.0000
  H   H1715     1.0  0.68087  0.92323  0.67168  1.0000
  S   S220      1.0  0.82187  0.54253  0.43433  1.0000
  H   H1716     1.0  0.89299  0.60463  0.62437  1.0000
  C   C958      1.0  0.59923  0.91418  0.58084  1.0000
  H   H1717     1.0  0.95476  0.62373  0.62393  1.0000
  Fe  Fe108     1.0  0.75305  0.93896  0.58911  1.0000
  C   C959      1.0  0.70388  0.92055  0.54085  1.0000
  S   S221      1.0  0.89630  0.71462  0.38113  1.0000
  Fe  Fe109     1.0  0.65849  0.91513  0.41183  1.0000
  S   S222      1.0  0.61435  0.89881  0.39092  1.0000
  S   S223      1.0  0.78043  0.86470  0.42629  1.0000
  S   S224      1.0  0.68071  0.88185  0.43505  1.0000
  C   C960      1.0  0.82408  0.80470  0.37400  1.0000
  C   C961      1.0  0.84032  0.80360  0.39260  1.0000
  C   C962      1.0  0.82671  0.82221  0.40844  1.0000
  C   C963      1.0  0.79691  0.84224  0.40581  1.0000
  C   C964      1.0  0.78074  0.84338  0.38720  1.0000
  C   C965      1.0  0.74312  0.64915  0.40924  1.0000
  H   H1718     1.0  0.86348  0.78860  0.39474  1.0000
  H   H1719     1.0  0.83950  0.82129  0.42276  1.0000
  H   H1720     1.0  0.75782  0.85868  0.38498  1.0000
  H   H1721     1.0  0.90791  0.79721  0.64321  1.0000
  C   C966      1.0  0.83715  0.56402  0.41349  1.0000
  C   C967      1.0  0.83656  0.54912  0.39479  1.0000
  C   C968      1.0  0.84779  0.56700  0.37831  1.0000
  C   C969      1.0  0.86035  0.59967  0.38041  1.0000
  C   C970      1.0  0.86197  0.61433  0.39915  1.0000
  C   C971      1.0  0.85001  0.59669  0.41564  1.0000
  H   H1722     1.0  0.82678  0.52404  0.39294  1.0000
  H   H1723     1.0  0.87765  0.67966  0.62510  1.0000
  H   H1724     1.0  0.87227  0.63921  0.40087  1.0000
  H   H1725     1.0  0.85087  0.60823  0.43010  1.0000
  C   C972      1.0  0.00186  0.52263  0.68585  1.0000
  C   C973      1.0  0.53992  0.95769  0.41439  1.0000
  C   C974      1.0  0.56860  0.93635  0.41250  1.0000
  C   C975      1.0  0.57505  0.92061  0.39448  1.0000
  C   C976      1.0  0.55124  0.92454  0.37872  1.0000
  C   C977      1.0  0.52267  0.94624  0.38053  1.0000
  H   H1726     1.0  0.53568  0.97048  0.42821  1.0000
  H   H1727     1.0  0.58613  0.93253  0.42489  1.0000
  H   H1728     1.0  0.72916  0.70724  0.39593  1.0000
  H   H1729     1.0  0.83694  0.68312  0.43607  1.0000
  H   H1730     1.0  0.62152  0.01025  0.37324  1.0000
  S   S225      1.0  0.76947  0.93535  0.55711  1.0000
  C   C978      1.0  0.83938  0.79938  0.66245  1.0000
  C   C979      1.0  0.81275  0.80961  0.64937  1.0000
  C   C980      1.0  0.80655  0.84352  0.64634  1.0000
  C   C981      1.0  0.82684  0.86753  0.65647  1.0000
  C   C982      1.0  0.85297  0.85728  0.66986  1.0000
  C   C983      1.0  0.85936  0.82336  0.67278  1.0000
  H   H1731     1.0  0.79694  0.79123  0.64147  1.0000
  H   H1732     1.0  0.78620  0.85102  0.63611  1.0000
  C   C984      1.0  0.86853  0.65399  0.62164  1.0000
  H   H1733     1.0  0.78396  0.75090  0.61253  1.0000
  Fe  Fe110     1.0  0.95365  0.72306  0.37422  1.0000
  C   C985      1.0  0.55905  0.97825  0.59273  1.0000
  H   H1734     1.0  0.79641  0.72926  0.43212  1.0000
  H   H1735     1.0  0.78936  0.55327  0.61585  1.0000
  H   H1736     1.0  0.65498  0.90479  0.52673  1.0000
  H   H1737     1.0  0.60513  0.96895  0.50866  1.0000
  C   C986      1.0  0.89629  0.59342  0.68130  1.0000
  C   C987      1.0  0.81489  0.55892  0.60863  1.0000
  C   C988      1.0  0.84289  0.55003  0.66683  1.0000
  C   C989      1.0  0.87665  0.54939  0.65870  1.0000
  C   C990      1.0  0.90314  0.57123  0.66580  1.0000
  H   H1738     1.0  0.93965  0.73483  0.61791  1.0000
  C   C991      1.0  0.74552  0.61237  0.41428  1.0000
  H   H1739     1.0  0.70495  0.77367  0.41239  1.0000
  Fe  Fe111     1.0  0.89924  0.67213  0.35969  1.0000
  H   H1740     1.0  0.92922  0.57039  0.65952  1.0000
  C   C992      1.0  0.86796  0.90016  0.60450  1.0000
  H   H1741     1.0  0.56368  0.88151  0.45946  1.0000
  C   C993      1.0  0.57180  0.97847  0.65095  1.0000
  H   H1742     1.0  0.56907  0.97112  0.60759  1.0000
  C   C994      1.0  0.63091  0.96381  0.64094  1.0000
  C   C995      1.0  0.62040  0.93058  0.63909  1.0000
  C   C996      1.0  0.58570  0.92120  0.64352  1.0000
  C   C997      1.0  0.56147  0.94513  0.64963  1.0000
  C   C998      1.0  0.96281  0.59635  0.38434  1.0000
  H   H1743     1.0  0.65763  0.97126  0.63757  1.0000
  H   H1744     1.0  0.57754  0.89547  0.64218  1.0000
  H   H1745     1.0  0.53464  0.93783  0.65290  1.0000
  C   C999      1.0  0.87084  0.72587  0.43421  1.0000
  Fe  Fe112     1.0  0.73381  0.90006  0.42497  1.0000
  N   N56       1.0  0.58877  0.97754  0.57795  1.0000
  S   S226      1.0  0.73502  0.94345  0.44626  1.0000
  H   H1746     1.0  0.51261  0.94324  0.61815  1.0000
  C   C1000     1.0  0.68910  0.92935  0.50614  1.0000
  H   H1747     1.0  0.77099  0.96020  0.51766  1.0000
  H   H1748     1.0  0.52789  0.87037  0.42975  1.0000
  H   H1749     1.0  0.92400  0.89855  0.60995  1.0000
  H   H1750     1.0  0.95387  0.65955  0.41963  1.0000
  S   S227      1.0  0.73192  0.95472  0.64448  1.0000
  C   C1001     1.0  0.72156  0.94556  0.50378  1.0000
  C   C1002     1.0  0.51750  0.96333  0.39829  1.0000
  N   N57       1.0  0.78399  0.70165  0.40517  1.0000
  H   H1751     1.0  0.88164  0.78631  0.61130  1.0000
  H   H1752     1.0  0.80780  0.66315  0.60359  1.0000
  H   H1753     1.0  0.56864  0.94656  0.51915  1.0000
  Fe  Fe113     1.0  0.77878  0.92907  0.63152  1.0000
  Fe  Fe114     1.0  0.97327  0.72596  0.67029  1.0000
  S   S228      1.0  0.70364  0.96387  0.59867  1.0000
  H   H1754     1.0  0.66024  0.89457  0.68757  1.0000
  H   H1755     1.0  0.50531  0.95041  0.36805  1.0000
  H   H1756     1.0  0.53194  0.93093  0.58440  1.0000
  H   H1757     1.0  0.72829  0.95574  0.48962  1.0000
  H   H1758     1.0  0.80059  0.65105  0.40942  1.0000
  H   H1759     1.0  0.86024  0.73768  0.44768  1.0000
  H   H1760     1.0  0.63957  0.89020  0.56338  1.0000
  C   C1003     1.0  0.73700  0.93542  0.53823  1.0000
  H   H1761     1.0  0.81865  0.74391  0.41095  1.0000
  H   H1762     1.0  0.98110  0.66018  0.39802  1.0000
  C   C1004     1.0  0.95968  0.61166  0.40523  1.0000
  H   H1763     1.0  0.89486  0.71188  0.43830  1.0000
  H   H1764     1.0  0.86682  0.65268  0.60526  1.0000
  C   C1005     1.0  0.80010  0.69932  0.38492  1.0000
  H   H1765     1.0  0.93357  0.65630  0.39557  1.0000
  H   H1766     1.0  0.87746  0.84389  0.62853  1.0000
  H   H1767     1.0  0.95621  0.84872  0.68676  1.0000
  C   C1006     1.0  0.68006  0.91737  0.52482  1.0000
  C   C1007     1.0  0.53782  0.89396  0.45787  1.0000
  H   H1768     1.0  0.87029  0.89125  0.58904  1.0000
  H   H1769     1.0  0.97943  0.88454  0.67718  1.0000
  N   N58       1.0  0.83285  0.64769  0.63070  1.0000
  H   H1770     1.0  0.79320  0.62808  0.66610  1.0000
  H   H1771     1.0  0.63294  0.98071  0.39192  1.0000
  C   C1008     1.0  0.83495  0.65768  0.65218  1.0000
  C   C1009     1.0  0.82243  0.61157  0.62919  1.0000
  C   C1010     1.0  0.82173  0.59632  0.60808  1.0000
  H   H1772     1.0  0.58465  0.90820  0.59453  1.0000
  H   H1773     1.0  0.97482  0.51472  0.41783  1.0000
  C   C1011     1.0  0.58450  0.96989  0.52018  1.0000
  H   H1774     1.0  0.51090  0.96755  0.57538  1.0000
  H   H1775     1.0  0.81391  0.54854  0.59339  1.0000
  H   H1776     1.0  0.55582  0.91199  0.36486  1.0000
  H   H1777     1.0  0.61812  0.86358  0.58083  1.0000
  C   C1012     1.0  0.92646  0.79988  0.63066  1.0000
  C   C1013     1.0  0.75177  0.75633  0.39714  1.0000
  H   H1778     1.0  0.86859  0.87570  0.67787  1.0000
  H   H1779     1.0  0.77849  0.65942  0.62347  1.0000
  H   H1780     1.0  0.84537  0.68349  0.65388  1.0000
  H   H1781     1.0  0.85439  0.64227  0.66015  1.0000
  H   H1782     1.0  0.84001  0.59658  0.63861  1.0000
  H   H1783     1.0  0.79557  0.60739  0.63524  1.0000
  C   C1014     1.0  0.79423  0.82463  0.37140  1.0000
  H   H1784     1.0  0.89900  0.53475  0.42677  1.0000
  H   H1785     1.0  0.65047  0.89374  0.58929  1.0000
  H   H1786     1.0  0.95174  0.84166  0.59662  1.0000
  H   H1787     1.0  0.76943  0.77200  0.40658  1.0000
  C   C1015     1.0  0.60214  0.97337  0.54049  1.0000
  H   H1788     1.0  0.58805  0.98413  0.38331  1.0000
  H   H1789     1.0  0.90306  0.63251  0.64452  1.0000
  C   C1016     1.0  0.71553  0.77253  0.39719  1.0000
  H   H1790     1.0  0.78768  0.71893  0.59395  1.0000
  H   H1791     1.0  0.00189  0.60660  0.46179  1.0000
  C   C1017     1.0  0.78187  0.72377  0.60973  1.0000
  H   H1792     1.0  0.50983  0.84921  0.45078  1.0000
  H   H1793     1.0  0.71810  0.96852  0.68560  1.0000
  H   H1794     1.0  0.81707  0.94574  0.44660  1.0000
  H   H1795     1.0  0.75440  0.71559  0.61287  1.0000
  H   H1796     1.0  0.83482  0.71560  0.61985  1.0000
  H   H1797     1.0  0.94695  0.88044  0.64393  1.0000
  H   H1798     1.0  0.84287  0.89050  0.61072  1.0000
  H   H1799     1.0  0.63809  0.95220  0.57325  1.0000
  S   S229      1.0  0.65980  0.92278  0.48597  1.0000
  H   H1800     1.0  0.55715  0.95266  0.55503  1.0000
  C   C1018     1.0  0.96282  0.84148  0.61190  1.0000
  C   C1019     1.0  0.77860  0.66753  0.41381  1.0000
  H   H1801     1.0  0.61949  0.95169  0.54234  1.0000
  H   H1802     1.0  0.88238  0.53219  0.64692  1.0000
  H   H1803     1.0  0.70722  0.86995  0.65608  1.0000
  H   H1804     1.0  0.89346  0.84043  0.60410  1.0000
  H   H1805     1.0  0.98093  0.61177  0.37534  1.0000
  C   C1020     1.0  0.60895  0.01012  0.57960  1.0000
  H   H1806     1.0  0.77976  0.66888  0.43023  1.0000
  H   H1807     1.0  0.93650  0.59953  0.37738  1.0000
  S   S230      1.0  0.94619  0.76748  0.68598  1.0000
  H   H1808     1.0  0.81056  0.97095  0.46849  1.0000
  H   H1809     1.0  0.63350  0.00931  0.57074  1.0000
  H   H1810     1.0  0.71948  0.60000  0.41176  1.0000
  Fe  Fe115     1.0  0.73800  0.99194  0.62040  1.0000
  C   C1021     1.0  0.74558  0.94826  0.51971  1.0000
  N   N59       1.0  0.80168  0.87465  0.49129  1.0000
  C   C1022     1.0  0.76444  0.86353  0.49582  1.0000
  C   C1023     1.0  0.82109  0.88453  0.51016  1.0000
  C   C1024     1.0  0.79934  0.90497  0.47847  1.0000
  C   C1025     1.0  0.82162  0.84870  0.47993  1.0000
  C   C1026     1.0  0.82306  0.81368  0.48888  1.0000
  C   C1027     1.0  0.74024  0.85520  0.47781  1.0000
  C   C1028     1.0  0.83479  0.92300  0.47395  1.0000
  C   C1029     1.0  0.81211  0.86489  0.52908  1.0000
  C   C1030     1.0  0.83806  0.87337  0.54587  1.0000
  C   C1031     1.0  0.83966  0.78925  0.47445  1.0000
  C   C1032     1.0  0.70554  0.83921  0.48432  1.0000
  C   C1033     1.0  0.82862  0.95335  0.46112  1.0000
  H   H1811     1.0  0.75104  0.88306  0.50455  1.0000
  H   H1812     1.0  0.76417  0.84159  0.50548  1.0000
  H   H1813     1.0  0.85016  0.88370  0.50797  1.0000
  H   H1814     1.0  0.81533  0.91081  0.51417  1.0000
  H   H1815     1.0  0.78165  0.92350  0.48528  1.0000
  H   H1816     1.0  0.78727  0.89849  0.46391  1.0000
  H   H1817     1.0  0.81089  0.84626  0.46462  1.0000
  H   H1818     1.0  0.84956  0.85666  0.47803  1.0000
  H   H1819     1.0  0.79644  0.80381  0.49231  1.0000
  H   H1820     1.0  0.83978  0.81415  0.50240  1.0000
  H   H1821     1.0  0.73351  0.87818  0.46983  1.0000
  H   H1822     1.0  0.75299  0.83780  0.46742  1.0000
  H   H1823     1.0  0.85278  0.90650  0.46576  1.0000
  H   H1824     1.0  0.84833  0.93167  0.48768  1.0000
  H   H1825     1.0  0.78528  0.87153  0.53417  1.0000
  H   H1826     1.0  0.81241  0.83779  0.52665  1.0000
  H   H1827     1.0  0.82972  0.86054  0.55949  1.0000
  H   H1828     1.0  0.86509  0.86533  0.54207  1.0000
  H   H1829     1.0  0.83842  0.90049  0.54894  1.0000
  H   H1830     1.0  0.86686  0.79741  0.47066  1.0000
  H   H1831     1.0  0.84102  0.76438  0.48126  1.0000
  H   H1832     1.0  0.82347  0.78719  0.46070  1.0000
  H   H1833     1.0  0.69173  0.85572  0.49485  1.0000
  H   H1834     1.0  0.68801  0.83495  0.47129  1.0000
  H   H1835     1.0  0.71045  0.81502  0.49143  1.0000
  H   H1836     1.0  0.84707  0.60030  0.60041  1.0000
  H   H1837     1.0  0.85413  0.96633  0.45848  1.0000
  H   H1838     1.0  0.76156  0.75680  0.38178  1.0000
  H   H1839     1.0  0.69731  0.91039  0.55505  1.0000
  Fe  Fe116     1.0  0.68072  0.92701  0.45479  1.0000
  H   H1840     1.0  0.87966  0.81578  0.68307  1.0000
  H   H1841     1.0  0.92353  0.78590  0.59903  1.0000
  C   C1034     1.0  0.61411  0.95004  0.58251  1.0000
  H   H1842     1.0  0.84661  0.55542  0.36384  1.0000
  C   C1035     1.0  0.80805  0.70584  0.62304  1.0000
  H   H1843     1.0  0.71794  0.79828  0.39166  1.0000
  C   C1036     1.0  0.62873  0.88899  0.57849  1.0000
  C   C1037     1.0  0.71164  0.86044  0.67121  1.0000
  S   S231      1.0  0.65388  0.95884  0.43235  1.0000
  C   C1038     1.0  0.80963  0.72088  0.41837  1.0000
  H   H1844     1.0  0.69671  0.75860  0.38743  1.0000
  H   H1845     1.0  0.73878  0.72142  0.42011  1.0000
  H   H1846     1.0  0.89717  0.73639  0.62988  1.0000
  C   C1039     1.0  0.52554  0.95690  0.58806  1.0000
  H   H1847     1.0  0.89706  0.90100  0.63172  1.0000
  H   H1848     1.0  0.93136  0.63791  0.60237  1.0000
  H   H1849     1.0  0.75338  0.60912  0.42997  1.0000
  C   C1040     1.0  0.71666  0.88922  0.68585  1.0000
  H   H1850     1.0  0.77773  0.66649  0.65620  1.0000
  H   H1851     1.0  0.95888  0.55481  0.42475  1.0000
  C   C1041     1.0  0.74969  0.72032  0.40492  1.0000
  C   C1042     1.0  0.60661  0.98772  0.64680  1.0000
  S   S232      1.0  0.80878  0.52356  0.65801  1.0000
  H   H1852     1.0  0.92034  0.85095  0.65634  1.0000
  H   H1853     1.0  0.80034  0.60745  0.59911  1.0000
  H   H1854     1.0  0.86680  0.92765  0.60449  1.0000
  H   H1855     1.0  0.91933  0.54956  0.39208  1.0000
  C   C1043     1.0  0.89957  0.88913  0.61694  1.0000
  C   C1044     1.0  0.97442  0.54938  0.36222  1.0000
  H   H1856     1.0  0.80164  0.71251  0.63849  1.0000
  C   C1045     1.0  0.91001  0.78007  0.61302  1.0000
  H   H1857     1.0  0.89953  0.72933  0.60362  1.0000
  H   H1858     1.0  0.95049  0.78678  0.63559  1.0000
  C   C1046     1.0  0.93362  0.64042  0.61866  1.0000
  H   H1859     1.0  0.82464  0.68458  0.38541  1.0000
  C   C1047     1.0  0.94289  0.85340  0.64609  1.0000
  Fe  Fe117     1.0  0.70825  0.97196  0.42210  1.0000
  H   H1860     1.0  0.56726  0.99136  0.51720  1.0000
  C   C1048     1.0  0.90005  0.85087  0.61897  1.0000
  C   C1049     1.0  0.80573  0.66772  0.61975  1.0000
  H   H1861     1.0  0.94146  0.66630  0.62262  1.0000
  C   C1050     1.0  0.92015  0.51624  0.42518  1.0000
  Fe  Fe118     1.0  0.89645  0.73789  0.68067  1.0000
  C   C1051     1.0  0.83579  0.57284  0.68198  1.0000
  H   H1862     1.0  0.58125  0.91041  0.56805  1.0000
  H   H1863     1.0  0.80807  0.69817  0.68276  1.0000
  C   C1052     1.0  0.91180  0.74282  0.61634  1.0000
  H   H1864     1.0  0.62438  0.95257  0.59786  1.0000
  H   H1865     1.0  0.54899  0.00396  0.59448  1.0000
  H   H1866     1.0  0.76520  0.59995  0.40476  1.0000
  H   H1867     1.0  0.91711  0.53818  0.35840  1.0000
  H   H1868     1.0  0.93550  0.60193  0.41240  1.0000
  H   H1869     1.0  0.69540  0.00715  0.37878  1.0000
  H   H1870     1.0  0.94442  0.51386  0.38678  1.0000
  H   H1871     1.0  0.97501  0.86654  0.61408  1.0000
  H   H1872     1.0  0.55670  0.99622  0.55411  1.0000
  H   H1873     1.0  0.54272  0.91920  0.45208  1.0000
  C   C1053     1.0  0.57429  0.97488  0.55712  1.0000
  C   C1054     1.0  0.77702  0.68313  0.36842  1.0000
  S   S233      1.0  0.54163  0.00922  0.65718  1.0000
  H   H1874     1.0  0.77409  0.65617  0.37108  1.0000
  C   C1055     1.0  0.80391  0.67101  0.68421  1.0000
  C   C1056     1.0  0.95255  0.53214  0.41606  1.0000
  C   C1057     1.0  0.97657  0.84200  0.65703  1.0000
  C   C1058     1.0  0.94623  0.53899  0.39383  1.0000
  C   C1059     1.0  0.68353  0.91153  0.68644  1.0000
  C   C1060     1.0  0.97899  0.85703  0.67779  1.0000
  H   H1875     1.0  0.99359  0.56727  0.66864  1.0000
  H   H1876     1.0  0.75072  0.69467  0.36729  1.0000
  H   H1877     1.0  0.68886  0.84450  0.67538  1.0000
  H   H1878     1.0  0.98810  0.52880  0.65479  1.0000
  H   H1879     1.0  0.61878  0.99618  0.54031  1.0000
  H   H1880     1.0  0.63966  0.00345  0.60703  1.0000
  H   H1881     1.0  0.54934  0.00933  0.45493  1.0000
  H   H1882     1.0  0.00039  0.85033  0.64897  1.0000
  H   H1883     1.0  0.97706  0.81481  0.65861  1.0000
  H   H1884     1.0  0.59445  0.00958  0.41558  1.0000
  H   H1885     1.0  0.67736  0.90909  0.36188  1.0000
  H   H1886     1.0  0.52577  0.89609  0.47268  1.0000
  S   S234      1.0  0.99019  0.73213  0.40028  1.0000
  C   C1061     1.0  0.51376  0.87376  0.44388  1.0000
  H   H1887     1.0  0.74009  0.90354  0.68086  1.0000
  H   H1888     1.0  0.61182  0.93019  0.68215  1.0000
  C   C1062     1.0  0.99299  0.81567  0.61155  1.0000
  H   H1889     1.0  0.65476  0.97279  0.68469  1.0000
  H   H1890     1.0  0.98342  0.79188  0.60495  1.0000
  S   S235      1.0  0.95747  0.67754  0.35516  1.0000
  Fe  Fe119     1.0  0.78205  0.77462  0.91506  1.0000
  S   S236      1.0  0.81401  0.80977  0.93394  1.0000
  S   S237      1.0  0.73554  0.79037  0.89592  1.0000
  Fe  Fe120     1.0  0.82338  0.71417  0.92974  1.0000
  S   S238      1.0  0.85798  0.74517  0.95008  1.0000
  S   S239      1.0  0.83001  0.65826  0.93033  1.0000
  Fe  Fe121     1.0  0.80850  0.77200  0.95794  1.0000
  S   S240      1.0  0.78902  0.78779  0.98817  1.0000
  Fe  Fe122     1.0  0.86049  0.77980  0.92441  1.0000
  S   S241      1.0  0.91176  0.80444  0.91596  1.0000
  S   S242      1.0  0.77328  0.73839  0.93962  1.0000
  S   S243      1.0  0.82907  0.74726  0.90346  1.0000
  Fe  Fe123     1.0  0.58072  0.95627  0.85668  1.0000
  H   H1891     1.0  0.85733  0.61046  0.70173  1.0000
  S   S244      1.0  0.53044  0.92704  0.86121  1.0000
  Fe  Fe124     1.0  0.66096  0.95863  0.85567  1.0000
  C   C1063     1.0  0.57379  0.98810  0.77711  1.0000
  S   S245      1.0  0.71406  0.93737  0.86483  1.0000
  H   H1892     1.0  0.96625  0.64381  0.95070  1.0000
  H   H1893     1.0  0.67984  0.54768  0.90147  1.0000
  Fe  Fe125     1.0  0.61674  0.99068  0.82296  1.0000
  H   H1894     1.0  0.95184  0.69011  0.81304  1.0000
  S   S246      1.0  0.62177  0.97197  0.87906  1.0000
  S   S247      1.0  0.61978  0.93860  0.83424  1.0000
  H   H1895     1.0  0.88085  0.65355  0.86412  1.0000
  H   H1896     1.0  0.77647  0.85170  0.90209  1.0000
  S   S248      1.0  0.90029  0.70891  0.70891  1.0000
  Fe  Fe126     1.0  0.95264  0.73564  0.71305  1.0000
  H   H1897     1.0  0.93185  0.63858  0.90909  1.0000
  C   C1064     1.0  0.87268  0.63942  0.87676  1.0000
  C   C1065     1.0  0.85120  0.94530  0.99238  1.0000
  H   H1898     1.0  0.97477  0.65545  0.91383  1.0000
  H   H1899     1.0  0.58225  0.82867  0.85848  1.0000
  H   H1900     1.0  0.87364  0.91885  0.96746  1.0000
  H   H1901     1.0  0.96565  0.76217  0.85177  1.0000
  H   H1902     1.0  0.91619  0.64787  0.83057  1.0000
  N   N60       1.0  0.84637  0.88177  0.98454  1.0000
  C   C1066     1.0  0.93346  0.68342  0.94047  1.0000
  H   H1903     1.0  0.85639  0.82926  0.98623  1.0000
  H   H1904     1.0  0.80614  0.90087  0.00409  1.0000
  H   H1905     1.0  0.56090  0.85127  0.95252  1.0000
  H   H1906     1.0  0.77777  0.52554  0.90483  1.0000
  H   H1907     1.0  0.53075  0.99830  0.73309  1.0000
  H   H1908     1.0  0.97836  0.69761  0.83484  1.0000
  H   H1909     1.0  0.91882  0.78835  0.86440  1.0000
  H   H1910     1.0  0.85178  0.94398  0.00871  1.0000
  S   S249      1.0  0.97346  0.52906  0.85399  1.0000
  H   H1911     1.0  0.86170  0.76829  0.99654  1.0000
  C   C1067     1.0  0.84975  0.77647  0.01013  1.0000
  C   C1068     1.0  0.84764  0.63807  0.90952  1.0000
  C   C1069     1.0  0.85897  0.65601  0.89322  1.0000
  C   C1070     1.0  0.85057  0.60337  0.90934  1.0000
  H   H1912     1.0  0.85699  0.68268  0.89320  1.0000
  H   H1913     1.0  0.84183  0.58938  0.92194  1.0000
  C   C1071     1.0  0.94113  0.77617  0.90537  1.0000
  C   C1072     1.0  0.97495  0.78663  0.89966  1.0000
  C   C1073     1.0  0.86479  0.58674  0.89294  1.0000
  H   H1914     1.0  0.53163  0.93471  0.99148  1.0000
  H   H1915     1.0  0.90927  0.87234  0.96285  1.0000
  C   C1074     1.0  0.93072  0.74317  0.90232  1.0000
  N   N61       1.0  0.97091  0.60198  0.91704  1.0000
  H   H1916     1.0  0.51317  0.90700  0.93764  1.0000
  H   H1917     1.0  0.98981  0.66562  0.79013  1.0000
  H   H1918     1.0  0.90471  0.73493  0.90659  1.0000
  C   C1075     1.0  0.73085  0.83122  0.88699  1.0000
  C   C1076     1.0  0.70243  0.83823  0.87426  1.0000
  C   C1077     1.0  0.69722  0.87060  0.86730  1.0000
  C   C1078     1.0  0.72028  0.89628  0.87303  1.0000
  C   C1079     1.0  0.74907  0.88920  0.88548  1.0000
  C   C1080     1.0  0.75429  0.85684  0.89250  1.0000
  H   H1919     1.0  0.68448  0.81848  0.86969  1.0000
  H   H1920     1.0  0.67581  0.87580  0.85724  1.0000
  H   H1921     1.0  0.76729  0.90889  0.88980  1.0000
  N   N62       1.0  0.92690  0.75053  0.82885  1.0000
  C   C1081     1.0  0.89594  0.77034  0.83596  1.0000
  C   C1082     1.0  0.92605  0.74993  0.80657  1.0000
  C   C1083     1.0  0.92412  0.71607  0.83714  1.0000
  C   C1084     1.0  0.96157  0.76580  0.83567  1.0000
  H   H1922     1.0  0.74012  0.94301  0.70302  1.0000
  C   C1085     1.0  0.94432  0.64710  0.93994  1.0000
  C   C1086     1.0  0.95143  0.69097  0.82932  1.0000
  C   C1087     1.0  0.89498  0.73012  0.79679  1.0000
  C   C1088     1.0  0.89834  0.72946  0.77436  1.0000
  H   H1923     1.0  0.77713  0.90716  0.97649  1.0000
  H   H1924     1.0  0.97492  0.53281  0.93003  1.0000
  C   C1089     1.0  0.94268  0.65594  0.83610  1.0000
  H   H1925     1.0  0.87069  0.75757  0.83181  1.0000
  H   H1926     1.0  0.89493  0.79470  0.82843  1.0000
  H   H1927     1.0  0.92442  0.77556  0.80076  1.0000
  H   H1928     1.0  0.95123  0.74032  0.80060  1.0000
  H   H1929     1.0  0.89705  0.70557  0.83477  1.0000
  H   H1930     1.0  0.92774  0.71677  0.85345  1.0000
  H   H1931     1.0  0.55930  0.94936  0.69951  1.0000
  H   H1932     1.0  0.98739  0.57009  0.89285  1.0000
  H   H1933     1.0  0.94681  0.81831  0.83922  1.0000
  H   H1934     1.0  0.87087  0.97983  0.97040  1.0000
  C   C1090     1.0  0.79378  0.90345  0.96334  1.0000
  C   C1091     1.0  0.98786  0.73090  0.88824  1.0000
  H   H1935     1.0  0.58497  0.98483  0.69198  1.0000
  C   C1092     1.0  0.95441  0.53761  0.72715  1.0000
  H   H1936     1.0  0.89419  0.70400  0.80167  1.0000
  H   H1937     1.0  0.86936  0.74165  0.80034  1.0000
  H   H1938     1.0  0.87548  0.71586  0.76762  1.0000
  H   H1939     1.0  0.89886  0.75503  0.76843  1.0000
  H   H1940     1.0  0.92287  0.71662  0.76999  1.0000
  H   H1941     1.0  0.95585  0.69987  0.93631  1.0000
  C   C1093     1.0  0.00191  0.74493  0.75766  1.0000
  C   C1094     1.0  0.97439  0.59423  0.89533  1.0000
  H   H1942     1.0  0.91810  0.52428  0.94706  1.0000
  H   H1943     1.0  0.53405  0.96106  0.97023  1.0000
  H   H1944     1.0  0.71706  0.54898  0.91827  1.0000
  H   H1945     1.0  0.94315  0.65480  0.85244  1.0000
  H   H1946     1.0  0.98401  0.75275  0.82866  1.0000
  S   S250      1.0  0.98418  0.69664  0.69757  1.0000
  C   C1095     1.0  0.95554  0.63632  0.91891  1.0000
  H   H1947     1.0  0.69956  0.00585  0.71391  1.0000
  H   H1948     1.0  0.91084  0.68738  0.93022  1.0000
  C   C1096     1.0  0.58466  0.96306  0.70182  1.0000
  H   H1949     1.0  0.83806  0.78797  0.85916  1.0000
  C   C1097     1.0  0.55412  0.96124  0.78413  1.0000
  H   H1950     1.0  0.97977  0.57695  0.75851  1.0000
  H   H1951     1.0  0.85342  0.68057  0.99455  1.0000
  S   S251      1.0  0.96689  0.75930  0.74269  1.0000
  H   H1952     1.0  0.51117  0.92675  0.77810  1.0000
  H   H1953     1.0  0.95146  0.53485  0.90656  1.0000
  C   C1098     1.0  0.82452  0.87982  0.00300  1.0000
  H   H1954     1.0  0.94777  0.59120  0.88834  1.0000
  H   H1955     1.0  0.98297  0.62233  0.78421  1.0000
  C   C1099     1.0  0.76921  0.89322  0.94620  1.0000
  H   H1956     1.0  0.61420  0.91899  0.70747  1.0000
  H   H1957     1.0  0.92504  0.69036  0.95557  1.0000
  C   C1100     1.0  0.99453  0.62086  0.88343  1.0000
  H   H1958     1.0  0.67612  0.00586  0.76801  1.0000
  H   H1959     1.0  0.78442  0.89005  0.93241  1.0000
  H   H1960     1.0  0.80693  0.85745  0.00237  1.0000
  Fe  Fe127     1.0  0.91491  0.53338  0.85523  1.0000
  H   H1961     1.0  0.96240  0.63847  0.83020  1.0000
  H   H1962     1.0  0.62058  0.85510  0.85560  1.0000
  C   C1101     1.0  0.95047  0.54080  0.92251  1.0000
  H   H1963     1.0  0.77878  0.99031  0.71452  1.0000
  C   C1102     1.0  0.72719  0.52533  0.88986  1.0000
  C   C1103     1.0  0.98240  0.58822  0.74371  1.0000
  Fe  Fe128     1.0  0.93164  0.67194  0.69156  1.0000
  H   H1964     1.0  0.87978  0.84048  0.95334  1.0000
  H   H1965     1.0  0.86701  0.56006  0.89286  1.0000
  C   C1104     1.0  0.92017  0.52016  0.93090  1.0000
  H   H1966     1.0  0.73502  0.54918  0.88299  1.0000
  C   C1105     1.0  0.89425  0.77655  0.85855  1.0000
  C   C1106     1.0  0.56539  0.00103  0.75852  1.0000
  H   H1967     1.0  0.89479  0.52664  0.92362  1.0000
  H   H1968     1.0  0.66048  0.95474  0.91719  1.0000
  H   H1969     1.0  0.99327  0.78142  0.78048  1.0000
  C   C1107     1.0  0.87198  0.97638  0.98663  1.0000
  H   H1970     1.0  0.93211  0.55357  0.72254  1.0000
  C   C1108     1.0  0.65148  0.95915  0.69880  1.0000
  C   C1109     1.0  0.86756  0.91365  0.98318  1.0000
  C   C1110     1.0  0.87583  0.60483  0.87660  1.0000
  S   S252      1.0  0.89328  0.58534  0.85556  1.0000
  C   C1111     1.0  0.51781  0.95683  0.89712  1.0000
  H   H1971     1.0  0.86697  0.82376  0.85635  1.0000
  H   H1972     1.0  0.82341  0.94870  0.98781  1.0000
  H   H1973     1.0  0.55432  0.88628  0.91273  1.0000
  C   C1112     1.0  0.68186  0.92080  0.72246  1.0000
  C   C1113     1.0  0.66281  0.93948  0.73945  1.0000
  C   C1114     1.0  0.67076  0.92410  0.75948  1.0000
  H   H1974     1.0  0.66833  0.89616  0.72118  1.0000
  H   H1975     1.0  0.70913  0.91501  0.72758  1.0000
  H   H1976     1.0  0.63377  0.93822  0.73722  1.0000
  H   H1977     1.0  0.67023  0.96600  0.74040  1.0000
  H   H1978     1.0  0.74929  0.91273  0.94373  1.0000
  H   H1979     1.0  0.69938  0.92628  0.76310  1.0000
  H   H1980     1.0  0.65586  0.93732  0.77113  1.0000
  H   H1981     1.0  0.66259  0.89756  0.75952  1.0000
  H   H1982     1.0  0.57771  0.86958  0.84845  1.0000
  H   H1983     1.0  0.70097  0.93767  0.90822  1.0000
  H   H1984     1.0  0.86342  0.80392  0.87985  1.0000
  C   C1115     1.0  0.82226  0.87696  0.96684  1.0000
  C   C1116     1.0  0.87145  0.85290  0.98471  1.0000
  C   C1117     1.0  0.75585  0.00653  0.71160  1.0000
  H   H1985     1.0  0.91770  0.58367  0.92054  1.0000
  H   H1986     1.0  0.75514  0.86959  0.94947  1.0000
  C   C1118     1.0  0.89543  0.84882  0.96643  1.0000
  H   H1987     1.0  0.83766  0.87639  0.95300  1.0000
  C   C1119     1.0  0.53705  0.98790  0.74727  1.0000
  H   H1988     1.0  0.54480  0.96584  0.89678  1.0000
  H   H1989     1.0  0.98292  0.60000  0.85441  1.0000
  C   C1120     1.0  0.92336  0.82245  0.97003  1.0000
  H   H1990     1.0  0.94394  0.58164  0.94235  1.0000
  H   H1991     1.0  0.98941  0.57429  0.71363  1.0000
  H   H1992     1.0  0.94854  0.52952  0.74246  1.0000
  H   H1993     1.0  0.88985  0.75288  0.86640  1.0000
  H   H1994     1.0  0.72248  0.87880  0.70059  1.0000
  C   C1121     1.0  0.70283  0.53354  0.90699  1.0000
  C   C1122     1.0  0.98679  0.56138  0.72793  1.0000
  H   H1995     1.0  0.95869  0.60328  0.74047  1.0000
  C   C1123     1.0  0.71633  0.95844  0.70080  1.0000
  H   H1996     1.0  0.88153  0.52466  0.72234  1.0000
  N   N63       1.0  0.68307  0.93766  0.70262  1.0000
  H   H1997     1.0  0.86035  0.99849  0.99382  1.0000
  C   C1124     1.0  0.95389  0.72069  0.89365  1.0000
  C   C1125     1.0  0.86376  0.79943  0.86368  1.0000
  H   H1998     1.0  0.64934  0.97887  0.71017  1.0000
  C   C1126     1.0  0.72122  0.98787  0.71540  1.0000
  H   H1999     1.0  0.56056  0.95076  0.79833  1.0000
  C   C1127     1.0  0.52616  0.94768  0.77266  1.0000
  H   H2000     1.0  0.97669  0.64193  0.88073  1.0000
  C   C1128     1.0  0.55690  0.87356  0.94333  1.0000
  H   H2001     1.0  0.94002  0.81981  0.95675  1.0000
  H   H2002     1.0  0.94072  0.82955  0.98273  1.0000
  H   H2003     1.0  0.91057  0.79808  0.97294  1.0000
  H   H2004     1.0  0.80846  0.85245  0.96782  1.0000
  H   H2005     1.0  0.72287  0.97888  0.73076  1.0000
  N   N64       1.0  0.60474  0.86222  0.91687  1.0000
  C   C1129     1.0  0.60728  0.84937  0.89593  1.0000
  C   C1130     1.0  0.61974  0.83662  0.93067  1.0000
  C   C1131     1.0  0.56596  0.86582  0.92151  1.0000
  C   C1132     1.0  0.62269  0.89557  0.92003  1.0000
  C   C1133     1.0  0.65704  0.90250  0.90845  1.0000
  C   C1134     1.0  0.58660  0.86895  0.88010  1.0000
  H   H2006     1.0  0.68609  0.92720  0.93248  1.0000
  C   C1135     1.0  0.65905  0.82749  0.92802  1.0000
  C   C1136     1.0  0.66891  0.79751  0.94043  1.0000
  C   C1137     1.0  0.67725  0.93237  0.91718  1.0000
  C   C1138     1.0  0.59229  0.85463  0.85945  1.0000
  H   H2007     1.0  0.59751  0.82320  0.89504  1.0000
  H   H2008     1.0  0.63502  0.84840  0.89105  1.0000
  H   H2009     1.0  0.61795  0.84510  0.94626  1.0000
  H   H2010     1.0  0.60371  0.81329  0.92946  1.0000
  H   H2011     1.0  0.55098  0.84288  0.91709  1.0000
  H   H2012     1.0  0.57355  0.89419  0.94935  1.0000
  H   H2013     1.0  0.60461  0.91608  0.91598  1.0000
  H   H2014     1.0  0.62870  0.89948  0.93600  1.0000
  H   H2015     1.0  0.65049  0.90798  0.89285  1.0000
  H   H2016     1.0  0.67520  0.88138  0.90829  1.0000
  H   H2017     1.0  0.55775  0.86726  0.88262  1.0000
  H   H2018     1.0  0.59470  0.89546  0.88033  1.0000
  H   H2019     1.0  0.94944  0.54194  0.68992  1.0000
  H   H2020     1.0  0.94533  0.69532  0.89111  1.0000
  H   H2021     1.0  0.66525  0.82114  0.91253  1.0000
  H   H2022     1.0  0.67632  0.84833  0.93317  1.0000
  H   H2023     1.0  0.69740  0.79216  0.93855  1.0000
  H   H2024     1.0  0.66416  0.80246  0.95632  1.0000
  H   H2025     1.0  0.65350  0.77524  0.93556  1.0000
  C   C1139     1.0  0.94472  0.57818  0.92606  1.0000
  C   C1140     1.0  0.50415  0.93779  0.88139  1.0000
  C   C1141     1.0  0.83019  0.68699  0.00361  1.0000
  H   H2026     1.0  0.88962  0.85466  0.99768  1.0000
  C   C1142     1.0  0.51701  0.96143  0.75439  1.0000
  H   H2027     1.0  0.89999  0.97459  0.99151  1.0000
  C   C1143     1.0  0.81447  0.78628  0.01012  1.0000
  H   H2028     1.0  0.80649  0.92728  0.95923  1.0000
  C   C1144     1.0  0.61551  0.94031  0.69731  1.0000
  C   C1145     1.0  0.96661  0.80325  0.83136  1.0000
  H   H2029     1.0  0.98304  0.81221  0.90191  1.0000
  H   H2030     1.0  0.96422  0.80816  0.81535  1.0000
  H   H2031     1.0  0.92102  0.63239  0.94474  1.0000
  H   H2032     1.0  0.82129  0.71206  0.99931  1.0000
  H   H2033     1.0  0.58619  0.97177  0.71737  1.0000
  H   H2034     1.0  0.82523  0.55254  0.83735  1.0000
  C   C1146     1.0  0.51824  0.88338  0.94540  1.0000
  H   H2035     1.0  0.80868  0.66877  0.00024  1.0000
  H   H2036     1.0  0.78706  0.53266  0.82570  1.0000
  H   H2037     1.0  0.89381  0.91105  0.99058  1.0000
  H   H2038     1.0  0.50732  0.97815  0.92574  1.0000
  H   H2039     1.0  0.80263  0.53724  0.87229  1.0000
  S   S253      1.0  0.60894  0.00607  0.79109  1.0000
  S   S254      1.0  0.57550  0.00688  0.84411  1.0000
  C   C1147     1.0  0.52172  0.95796  0.98490  1.0000
  S   S255      1.0  0.93143  0.61588  0.69248  1.0000
  H   H2040     1.0  0.89289  0.52446  0.69668  1.0000
  C   C1148     1.0  0.96304  0.51820  0.69260  1.0000
  H   H2041     1.0  0.00184  0.59667  0.94390  1.0000
  S   S256      1.0  0.66162  0.00974  0.84229  1.0000
  H   H2042     1.0  0.76477  0.52372  0.85846  1.0000
  C   C1149     1.0  0.99841  0.76396  0.89116  1.0000
  C   C1150     1.0  0.78953  0.51487  0.86550  1.0000
  H   H2043     1.0  0.80975  0.57340  0.68836  1.0000
  C   C1151     1.0  0.81398  0.52859  0.83179  1.0000
  H   H2044     1.0  0.52972  0.97938  0.99442  1.0000
  H   H2045     1.0  0.82654  0.66061  0.69252  1.0000
  H   H2046     1.0  0.77950  0.66670  0.69278  1.0000
  H   H2047     1.0  0.83080  0.51950  0.81963  1.0000
  C   C1152     1.0  0.86252  0.59417  0.68937  1.0000
  H   H2048     1.0  0.51199  0.88694  0.96122  1.0000
