data_image0
_chemical_formula_structural       FeSHC3HCH6CHC3H3SHC2H3CHCH2C2H2CH2CHCH2CH3CHSHCHC3H2CH5C2NHCH13SCSCHCHCH5S2CH2FeHC2H2FeCHCHCH3SCSHFeSFeSH2C4H2CH5CHCH3C2H8CHCHCHNHCHCHC2HSCH2CH7C3H2CH4CH2CHCFeHC4H2CHC2HFeS2FeS2FeCFeS2HFeSHFeSFeHSHCFeS2FeS2FeSFeS3FeS2FeS2FeSFeS3C2HC6H4C6H4C3HC2H3C6H4C7H4C2HCSCHC2H6C6H4CHCH5NC12H29CHCH3SHC2H6C2HC4H10CHC2H11SH2CH2SH3CH2CH7CHCHC2H7CH2NC5H10C2HC2NHCH3CH4CHCNH5NHCH2CHC2H2C3H2C4H3CH3CHC5HCH10C2H2CHCHCH5CHCH5SH2C2H2C5H3CHCH3SHC2H2SH5CH2SH2CH4CH2C2H2CH4NHCHNHCHCHC3H3CHC2H4CH4C4HCH6CHC2H6NH2FeH2NSCH2CH2FeSHCSFeHFeSHSHSHFeSH4FeS2FeS2FeSFeS3CFeS2FeS2FeSFeS3HC4H2C6H4C6H5C4H7C6H7FeC8H6CHSCHSH2NC12H30NHC6FeHCHCH3CHCH4CH5CH3CNCSHNC12H28NC2HC3HCH4CH7CH9C4H2CHSHC2H2SH2C3HCH4C2H12CNC12H14SC2S2H9NC9FeC2H19CH2CH6CHC2SH2CSFeH2C2HCH10CSH5SHCNC2HC2HC4SCHFeS2FeS2FeSFeS3NC4H4CH4C6H7C5H4NHCHCH4CHSH8C2H4CH3CH2CH10CH4CHCHCH4C2H2CH2C2H4CHC3H4CHCHFeHNC2H2CH2CH6CHCH3C2HC3H3NCSH3C2H2CH2CH2NSH2C2HCH7CH2SHFeS2FeS2FeSFeS3C2H2C2HNCH4C2HC2H2CHC2HC2H2C6H4FeH4CH3C3HCHCH4CHCH2CHC3H3C3HCNH3CH2CHCH5CH7CH5C2SCSHCH3CFeH6C2HC2HCHC2HCH5CH2NH3CHCH2CH8C2H2CHCH4CH11C2HCH2FeSHFeS2FeSFeS3H3FeSCFeSCSH2CHFeS2FeS2FeSFeS3HCHCH3C3H2C2H2CHC7H4C6H6CHCH2CS2CHCH2C6H5CH6C6H4C2H2NH6NC2H3CH3CHNH4CH4CH7CH4NHCH2C2H2CHFeC3HCHCH4CHCH4CNCH6CH6C2H2CH2SCHC2HC2H3CH6C2H2C2H5C2H13NHCH2C2H2CHC4HSH3CH3SHFeC2H2CHC2FeSCFeS2FeSFeS3NHFeS2C2HNH4S2FeS2FeS2FeSFeS3HCH2C3H4C6H4C6H4CH7CH2CH3C8H4C6H4CH2CH2CHC3H2C2H6CHCH7NC12H28C4H2C2H4C2H2CH2CHCH5CH4CH4CH6CH2C2HC2HFeCH5CH2CH2NCHC3NH2SHCHC2H4CHCHCSCHFeH10CH4CH11CHFeH2SH3FeS2FeS2FeSFeS4NSHSFeSFeS2FeS2FeSFeS3HCS2C6H4C6H4S2CHC6H4C2H2C6H4C6H5C4SH9NC12H26C2NCHCHSH8CHCH2CHCH8C2H2FeH2CHCHCH2CHSH4C2SNC9HC2H21CH3CH3NHC3H2CH6FeHCH3C3H8FeH2C2H2SHCHCH6CHNHCH5C2HCFe2H2CHCHCH5CHCH2FeH3C3H2C2HCH2CHC2H5CH3C2H3CH2CH3NC12H22CH2C4H2CH2C4H5CHSHFeHC2H4CH3CH2CH3C4H4FeS2FeS2FeSFeS4FeS2FeS2FeSFeS3H3SH3FeSHC2HC3H3C6H4C6H7C7H4C6H4SH2C2SC6H5NHNC10H18CH4NC8H18SHFeH2NH2CNC5HSC3H22CH2SHCH4CHCH2C5HCHCHCHC2H2CH2CH2CH2SH6C2H2CH5FeCHCH11CH2C3H2CH2CNC7H4CH6FeCH5CH2CH2CH8CH2C2SH10SH2CSCH4FeHCH2FeHCHSCH6CSHCH3CH4CH3FeS2FeS2FeSFeS3FeSHSHFeSFeSFeS2FeS2FeSFeS3CSCH3CHC6H4C6H3C5H2SC6H3C3H2C2H3C6H4C6H2CH3NH2C2H4CH2CH3CH3CH2C2H2NC9H19FeCH2CH5CH3C3HC2H2FeCNCHSH6CNCH4CH4C2H8C4H17CH4C3H2CSH2CHCNCHC4H2C5HCHCH6NH2CH3CH4C2H4CHCHCHCNH3C2H3CH6C2H2CH2CH2C2H3C3H7C3H12CH2CSCH3CH3CH10CHCH2CH3CH3C2H4C2H3CNH3C2H5CH4CH4C2H2CHCHCSNH9CH6CH6FeS2FeS2FeSFeS4FeS3FeHFeS2FeS2FeS2FeSFeS3C4H2C6H4C2H3CH2C4H2C4HC2HCH2C6H4C6H4C3H3N2C2H3C4HCH2CH7C2H9CH2CH3NC10HCH16CH17SH3C2H3CH2CH4CH6CNH3C2H2FeHCH2CH2SHCH2CHCHCH4CH3CH8SHNC12H25CHC2HC2H4CH4C2NH3NC3HCHCHCHCHC2H7CH3CH4C2H2NC12H25C3HCHCH2CH2CH2CH2NCHSHCHC2H2C2HCHCH3C2HCH5CH2CH3CHC2HC2HCHCHCHSH3CH6CH2FeHS2FeS2FeS2FeSFeS3CS2CFeS2FeS2FeSFeHS2Fe2S4C6H4C4H3C6H4C6H4C6H4C3H5FeHCNC3H2C3HCH2CH3CH13CH10CHCH3SHFeC3HCHSH3FeCH2CH3CH2SCH3CH4C3H2SH4CH2C2NC3H6NC2SC2H3NC11H26NC12H28CH4CHC4HSH6C3H3SCH9FeCH2CH2CHC2HCH3C3SHC3HCH2CH3CH2CH3SH2CH3CHC2HCHCHCH3C2H2CH3CH2SH2CH7C2HCNHC3H9CH2C2H4C2H2CH2CHCHCFeCH3CH3CHNH2C2HCNCFeCHFeH3CHSFeS2FeS2FeHFeS4FeS2FeS2FeSFeS3Fe2S2FeHS2CHC7H4C7H2CHC6H5C4H4C5H2SH3CHC2HCH5C2H2C3H2CHFeCHSH2C3H2FeCNH4C2NH2CHSHCH2SCH3CH2CHCHCH2CH8SCSH2C3H2SH2CHCH3CH3CHCH2CH6CHCH6CSCSCH4CHCH2SH2CHSHNC11H20CH7CFeNHFeHCHC3HFeHCHCHFeH3CH2NH3CHNC12H27CHCH3CH9C2HCH10CH2CHC2HSCH2CH2SHCH5CH3NH2CFeS2FeS2FeSFeHS2H2SFeC2H2CHCFeS2CHCFeS2FeS2FeSFeS3FeS2FeS2FeSHS2C6H4C2HC6H4C3HC6H5C4H3CH2C3H2CH4NH3C2HCNCH3SC6H6C6H4NC12H18CH4CSH3CHC2H6C2H3NCSHCH9C4HCHCHCH5C2H4CH2CHCH2SH3CH4CHC2H2C4HC2H7CH4CH9CSH4CHCNH2CHC2HCH7C2H2CH5SHCN2H4CH2CHCH2CH2C2H3CH3C2H2CH3NC12H19NH8CHCHCH3CH5CH3C2H2FeCH3C2H4CH2CHFeS2FeSHFeSFeHS2HSC2HCHCH2FeH2CHFeSFeSFeS2FeS2FeSFeS3FeS2FeS2FeSFeHS2C6H5C4H4C6H5C4SHCH2CHC7H8SH2CHC5H6CH2CH2C3HC2SHCHC2HCH10NHC2H6NH2C2HC3H2CH6CH3NC11H24CH2NC8H11NH5NC9H23SCH3CSCH2C3HSHCHCHSH7CH2C3H9C2H6C3HCSH7C2H6C2FeHCHC2SH3NH2CH6CH7SHCHC2H2NH4C4H2C2H2CHCHNH2C3HC3H13CH3C2HCH4CHCSNHC6HCHCH4CHCHC2H2C2H2SH3CH2CH2C3SH3C4SHFeSH3C2FeS2FeS2FeHFeS3FeS2FeSHFeSFeS2FeSFeS2FeSFeS3H5SH2C2H2C7H4SC8H4NC5H4CH8C2H2C2H2SCHC6H3SCH2FeC3H10CHSHNC12H28NH9C3H2CH3SH3C4H4CH2CHC2HCH2C2H4CH2CH2CH2N2C6H2C2HCH9CH8C2H5CHFeCH2CNC12H30CH2SH2CSH2CH6CHC2H3C3HCH2CH6CHCH2CHC2HFeCSHC2SCHFeSFeS2FeHS2FeS2FeS2FeSFeS3HFeS2FeS2FeSFeS3C2H2C3H3C4H4C5H3SC2HC3H5C6H4C6H5C4H4C4FeH5C7H5C5H12CH3CH2CH8CHCHSHCHC2SH2CH5CH2C3NC3HC2HC2HCH7CH2CH2CH4CN2H5NC3HC2HCH2C2H3SH2C2HCH3CH7CH4CH4C2NCH2CH2CH10FeCH2CHNH5CH3CFeHSCSCHC4H2CH7CH4CH2CH2CHCH5CHC2HC2H5CH4C2H4CH4CHC2H2C3H5CHCH5C2H4C3HC2H4CHNCH4C4H9CH4FeH7C2H3FeSHFeSHFeSFeS3HSHFeS2FeSHFeSFeS3FeS2FeS2FeSFeS2CH2CHCNH2C4H8C6H3C6H4C6H6CHCHC2H4C2H3CH2CFeHCH8C2HCH2NC3H2C2HNH2CH6CH7C2H4CHCH6FeNC3H2CH2C2H3C2SH3C2H4CSH2CHNC6HC2HCH12C3H3CH7CHCH5C5H4C2HSH4SHSH4C2H6CH3C5H4CH4CHC2H3CH2CH2CH3CHC2HNH3SH10CHCH2CHCH3FeSHFeSNFeSFeS2H2FeS2FeSFeSFeS3FeSHFeS2FeS2C3HC2HCH3CH3C6H5C3H4C6H10C3HC2H10NHCHCH4SNC12H14CH2C2H10C2SHCNH4CH2CSCH3CHCH4CH3C5HC4H3SHSH4CH4FeH5C2H4CH2CH2C4HCH2CHCNC11H20CH4CNHCH5CHCH3C2SCH6CH3C2H2CH3CHCHC2HCH2NH4CHCHCH2NH2C2H2CH5C2FeS2FeHSH2FeS2FeH2S2FeS2FeS2FeSFeHS3C2FeSHFeS2FeS2FeSFeS3HC3H8C2HC3H4C6H4C6H4C3HC2H3C7H4CH5CH8CHSHCH5C2HFeCH2CHC3H2CHCNH2CH9CH6CH2CH3CHC2H4CH2C3HC2H2CFeHCH2C2HCHNH4CHCHCH4CH3C2H2CH2CH2SHSHNC5HC5H3CH14CH2NC12H20FeCH2SCHCFeCHSHCHCHC2HFeH9NHCHSH9C2HS2C3HCH2CH2SCHC2H3CH2CHCHCH2SNCH2C2FeS2H2FeHFeHS2FeSH2SCFeSCHSHFeS2FeS2FeSFeHS2HSFeSFeS2FeSFeS3H3C6H4C6H7C6H8CH2C2HC2H3CH2CH2CH3C6H4C3H3C4H10CHSHC2H2CHC2H3CHC2HCHCH2SH6CHCHNCH2NCH2C2HC2HCH13NC11H25FeSH6SCH4C5H2CNHSFeCH2SHCHCH3CH3FeSH3CH2C2NC3H3CH4NHCH3C2H2C3HCH3C2H13C2SCH4CH2C3FeSCH3SHC2NHSH3C2H3CSCHC2FeC2H3CH2SHC2HC2HCHC2H2CH3C4H3CH3CH2SH2CH3FeH5CH3CH3CH2CFeH3C2H8CH3CHC2H8CH5CH2CH2C2HCHCHC2H4CHC2HC2HCH4C2H2CNH12CH
_chemical_formula_sum              "Fe288 S576 H4608 C2592 N144"
_cell_length_a       76.6153
_cell_length_b       76.3037
_cell_length_c       62.4162
_cell_angle_alpha    82.2257
_cell_angle_beta     82.2254
_cell_angle_gamma    104.373

_space_group_name_H-M_alt    "P 1"
_space_group_IT_number       1

loop_
  _space_group_symop_operation_xyz
  'x, y, z'

loop_
  _atom_site_type_symbol
  _atom_site_label
  _atom_site_symmetry_multiplicity
  _atom_site_fract_x
  _atom_site_fract_y
  _atom_site_fract_z
  _atom_site_occupancy
  Fe  Fe1       1.0  0.07136  0.29038  0.08012  1.0000
  S   S1        1.0  0.04524  0.26834  0.09735  1.0000
  H   H1        1.0  0.07688  0.25124  0.09022  1.0000
  C   C1        1.0  0.02669  0.25672  0.08563  1.0000
  C   C2        1.0  0.02726  0.25849  0.06290  1.0000
  C   C3        1.0  0.01247  0.24834  0.05446  1.0000
  H   H2        1.0  0.01320  0.24949  0.03690  1.0000
  C   C4        1.0  0.01103  0.24504  0.09971  1.0000
  H   H3        1.0  0.03919  0.26743  0.05183  1.0000
  H   H4        1.0  0.01047  0.24344  0.11730  1.0000
  H   H5        1.0  0.01116  0.22994  0.00766  1.0000
  H   H6        1.0  0.05797  0.20123  0.11536  1.0000
  H   H7        1.0  0.06109  0.23145  0.10587  1.0000
  H   H8        1.0  0.02763  0.29086  0.00731  1.0000
  C   C5        1.0  0.07483  0.23623  0.09515  1.0000
  H   H9        1.0  0.04413  0.26125  0.99891  1.0000
  C   C6        1.0  0.99676  0.23669  0.06857  1.0000
  C   C7        1.0  0.99610  0.23521  0.09126  1.0000
  C   C8        1.0  0.05880  0.23278  0.06234  1.0000
  H   H10       1.0  0.05814  0.22656  0.04728  1.0000
  H   H11       1.0  0.06182  0.24793  0.05748  1.0000
  H   H12       1.0  0.04524  0.22747  0.07330  1.0000
  S   S2        1.0  0.07263  0.31520  0.05551  1.0000
  H   H13       1.0  0.05113  0.29578  0.15603  1.0000
  C   C9        1.0  0.07650  0.31069  0.16354  1.0000
  C   C10       1.0  0.05598  0.30806  0.16368  1.0000
  H   H14       1.0  0.04150  0.31900  0.14025  1.0000
  H   H15       1.0  0.04859  0.30453  0.18091  1.0000
  H   H16       1.0  0.07866  0.29806  0.17260  1.0000
  C   C11       1.0  0.07377  0.22791  0.07385  1.0000
  H   H17       1.0  0.07063  0.21271  0.07745  1.0000
  C   C12       1.0  0.99862  0.29045  0.07374  1.0000
  H   H18       1.0  0.02276  0.26469  0.99510  1.0000
  H   H19       1.0  0.06507  0.20363  0.14139  1.0000
  C   C13       1.0  0.06884  0.20003  0.12509  1.0000
  C   C14       1.0  0.06883  0.17981  0.12893  1.0000
  H   H20       1.0  0.07367  0.23345  0.13884  1.0000
  H   H21       1.0  0.05994  0.29276  0.99229  1.0000
  C   C15       1.0  0.03559  0.26296  0.98608  1.0000
  H   H22       1.0  0.00518  0.30150  0.10295  1.0000
  H   H23       1.0  0.08169  0.26154  0.16090  1.0000
  C   C16       1.0  0.01745  0.30137  0.06078  1.0000
  H   H24       1.0  0.02076  0.29507  0.04629  1.0000
  C   C17       1.0  0.99338  0.29905  0.09400  1.0000
  H   H25       1.0  0.99923  0.27618  0.07841  1.0000
  H   H26       1.0  0.05513  0.17122  0.13762  1.0000
  C   C18       1.0  0.03543  0.30184  0.99338  1.0000
  H   H27       1.0  0.99252  0.32561  0.11870  1.0000
  H   H28       1.0  0.07190  0.17521  0.11302  1.0000
  H   H29       1.0  0.07914  0.17762  0.13920  1.0000
  C   C19       1.0  0.01314  0.31255  0.17184  1.0000
  H   H30       1.0  0.01868  0.30046  0.17147  1.0000
  S   S3        1.0  0.08700  0.30673  0.10225  1.0000
  H   H31       1.0  0.99692  0.30078  0.20447  1.0000
  C   C20       1.0  0.05154  0.32476  0.15043  1.0000
  H   H32       1.0  0.07628  0.26380  0.12221  1.0000
  C   C21       1.0  0.08742  0.24016  0.12874  1.0000
  C   C22       1.0  0.08921  0.26108  0.12603  1.0000
  C   C23       1.0  0.04310  0.31898  0.00290  1.0000
  H   H33       1.0  0.03176  0.32275  0.01261  1.0000
  H   H34       1.0  0.02911  0.32243  0.19559  1.0000
  C   C24       1.0  0.02289  0.22831  0.99628  1.0000
  H   H35       1.0  0.08688  0.23337  0.06210  1.0000
  H   H36       1.0  0.05288  0.31649  0.01380  1.0000
  H   H37       1.0  0.99266  0.27389  0.12706  1.0000
  H   H38       1.0  0.03398  0.22699  0.00566  1.0000
  H   H39       1.0  0.01829  0.21545  0.98971  1.0000
  C   C25       1.0  0.99490  0.30621  0.18782  1.0000
  C   C26       1.0  0.08789  0.21244  0.11313  1.0000
  N   N1        1.0  0.08951  0.23273  0.10763  1.0000
  H   H40       1.0  0.09436  0.28345  0.14430  1.0000
  C   C27       1.0  0.09303  0.26847  0.14697  1.0000
  H   H41       1.0  0.01032  0.31667  0.15526  1.0000
  H   H42       1.0  0.08254  0.32235  0.17144  1.0000
  H   H43       1.0  0.08402  0.31318  0.14648  1.0000
  H   H44       1.0  0.02815  0.30107  0.07109  1.0000
  H   H45       1.0  0.01766  0.31586  0.05501  1.0000
  H   H46       1.0  0.09176  0.20699  0.09803  1.0000
  H   H47       1.0  0.98868  0.31782  0.18893  1.0000
  H   H48       1.0  0.99253  0.31290  0.08703  1.0000
  H   H49       1.0  0.98851  0.29045  0.06255  1.0000
  H   H50       1.0  0.21617  0.31941  0.98891  1.0000
  H   H51       1.0  0.19973  0.32599  0.06563  1.0000
  H   H52       1.0  0.10614  0.26642  0.15108  1.0000
  H   H53       1.0  0.09725  0.23669  0.13910  1.0000
  S   S4        1.0  0.09704  0.28563  0.06295  1.0000
  C   C28       1.0  0.19022  0.31638  0.07899  1.0000
  S   S5        1.0  0.22067  0.30825  0.09535  1.0000
  C   C29       1.0  0.17099  0.31354  0.08009  1.0000
  H   H54       1.0  0.11871  0.31758  0.15316  1.0000
  C   C30       1.0  0.19702  0.30648  0.09513  1.0000
  H   H55       1.0  0.10033  0.26909  0.11255  1.0000
  C   C31       1.0  0.16560  0.29145  0.11350  1.0000
  H   H56       1.0  0.16580  0.32097  0.06754  1.0000
  H   H57       1.0  0.10853  0.25594  0.08501  1.0000
  H   H58       1.0  0.12455  0.25376  0.11698  1.0000
  H   H59       1.0  0.14317  0.26504  0.07916  1.0000
  H   H60       1.0  0.14431  0.24183  0.07753  1.0000
  S   S6        1.0  0.13429  0.29610  0.10088  1.0000
  S   S7        1.0  0.10972  0.30861  0.00516  1.0000
  C   C32       1.0  0.15861  0.30091  0.09743  1.0000
  H   H61       1.0  0.18947  0.28644  0.12487  1.0000
  H   H62       1.0  0.15632  0.28177  0.12700  1.0000
  Fe  Fe2       1.0  0.11297  0.30437  0.08253  1.0000
  H   H63       1.0  0.13201  0.30986  0.17234  1.0000
  C   C33       1.0  0.13222  0.31517  0.15482  1.0000
  C   C34       1.0  0.10802  0.24200  0.09345  1.0000
  H   H64       1.0  0.09788  0.21006  0.12381  1.0000
  H   H65       1.0  0.13453  0.30456  0.14507  1.0000
  Fe  Fe3       1.0  0.09949  0.31165  0.03968  1.0000
  C   C35       1.0  0.12478  0.24402  0.10531  1.0000
  H   H66       1.0  0.15446  0.25364  0.09784  1.0000
  C   C36       1.0  0.14273  0.25156  0.08889  1.0000
  H   H67       1.0  0.12499  0.23063  0.11455  1.0000
  C   C37       1.0  0.18449  0.29413  0.11231  1.0000
  H   H68       1.0  0.11052  0.23441  0.07982  1.0000
  H   H69       1.0  0.02581  0.30518  0.98273  1.0000
  H   H70       1.0  0.02907  0.27183  0.94402  1.0000
  S   S8        1.0  0.08954  0.29718  0.84622  1.0000
  C   C38       1.0  0.03275  0.28510  0.80835  1.0000
  S   S9        1.0  0.08663  0.29559  0.89843  1.0000
  H   H71       1.0  0.01158  0.30461  0.93379  1.0000
  Fe  Fe4       1.0  0.10974  0.30441  0.86919  1.0000
  S   S10       1.0  0.13665  0.29572  0.86572  1.0000
  Fe  Fe5       1.0  0.06641  0.29161  0.87500  1.0000
  S   S11       1.0  0.03828  0.27030  0.88732  1.0000
  H   H72       1.0  0.16370  0.31353  0.96704  1.0000
  H   H73       1.0  0.11350  0.31171  0.79742  1.0000
  C   C39       1.0  0.00072  0.21867  0.93788  1.0000
  C   C40       1.0  0.02080  0.26015  0.87294  1.0000
  C   C41       1.0  0.02294  0.24637  0.86092  1.0000
  C   C42       1.0  0.00777  0.23522  0.85410  1.0000
  H   H74       1.0  0.02693  0.23956  0.92717  1.0000
  H   H75       1.0  0.02935  0.31624  0.91062  1.0000
  C   C43       1.0  0.00323  0.26290  0.87744  1.0000
  H   H76       1.0  0.03618  0.24365  0.85780  1.0000
  H   H77       1.0  0.00965  0.22431  0.84538  1.0000
  H   H78       1.0  0.04193  0.31346  0.94478  1.0000
  H   H79       1.0  0.00128  0.27333  0.88693  1.0000
  H   H80       1.0  0.03875  0.27618  0.81903  1.0000
  C   C44       1.0  0.00323  0.29298  0.80226  1.0000
  H   H81       1.0  0.01858  0.24497  0.96798  1.0000
  C   C45       1.0  0.99013  0.23754  0.85921  1.0000
  H   H82       1.0  0.09891  0.28097  0.94154  1.0000
  H   H83       1.0  0.01035  0.28290  0.83381  1.0000
  H   H84       1.0  0.00156  0.21875  0.95540  1.0000
  C   C46       1.0  0.15977  0.30759  0.86700  1.0000
  C   C47       1.0  0.17390  0.29922  0.86183  1.0000
  H   H85       1.0  0.06872  0.25658  0.97873  1.0000
  H   H86       1.0  0.03553  0.28258  0.79127  1.0000
  H   H87       1.0  0.17055  0.28583  0.85707  1.0000
  H   H88       1.0  0.99586  0.24528  0.93311  1.0000
  H   H89       1.0  0.21459  0.29371  0.96105  1.0000
  H   H90       1.0  0.20292  0.30120  0.85877  1.0000
  H   H91       1.0  0.05105  0.30129  0.92523  1.0000
  H   H92       1.0  0.01848  0.28257  0.96337  1.0000
  C   C48       1.0  0.09147  0.26777  0.95253  1.0000
  H   H93       1.0  0.00621  0.26586  0.81640  1.0000
  C   C49       1.0  0.02395  0.30349  0.92315  1.0000
  H   H94       1.0  0.99506  0.20438  0.93543  1.0000
  C   C50       1.0  0.02984  0.24467  0.97736  1.0000
  H   H95       1.0  0.99085  0.23287  0.91186  1.0000
  N   N2        1.0  0.04509  0.27974  0.96890  1.0000
  H   H96       1.0  0.02851  0.21620  0.93115  1.0000
  C   C51       1.0  0.07540  0.27014  0.96820  1.0000
  H   H97       1.0  0.23528  0.30178  0.97158  1.0000
  C   C52       1.0  0.22926  0.30133  0.95640  1.0000
  H   H98       1.0  0.01042  0.30741  0.80303  1.0000
  C   C53       1.0  0.02032  0.22534  0.92508  1.0000
  C   C54       1.0  0.03199  0.28308  0.95379  1.0000
  H   H99       1.0  0.10122  0.26317  0.96212  1.0000
  S   S12       1.0  0.06517  0.32095  0.87063  1.0000
  C   C55       1.0  0.10880  0.31449  0.96146  1.0000
  H   H100      1.0  0.03957  0.29965  0.80894  1.0000
  H   H101      1.0  0.13040  0.32042  0.82744  1.0000
  C   C56       1.0  0.03865  0.30123  0.93676  1.0000
  H   H102      1.0  0.19643  0.31117  0.96428  1.0000
  H   H103      1.0  0.02014  0.29169  0.91448  1.0000
  H   H104      1.0  0.04133  0.24219  0.96648  1.0000
  H   H105      1.0  0.02045  0.22511  0.90729  1.0000
  H   H106      1.0  0.05980  0.30791  0.96848  1.0000
  H   H107      1.0  0.99141  0.26192  0.78498  1.0000
  H   H108      1.0  0.22785  0.31940  0.92735  1.0000
  C   C57       1.0  0.06187  0.27728  0.95526  1.0000
  C   C58       1.0  0.01215  0.28064  0.81659  1.0000
  C   C59       1.0  0.19233  0.30791  0.86282  1.0000
  H   H109      1.0  0.08103  0.27993  0.97878  1.0000
  H   H110      1.0  0.08659  0.25733  0.94232  1.0000
  C   C60       1.0  0.12598  0.30726  0.79975  1.0000
  H   H111      1.0  0.06993  0.29063  0.94490  1.0000
  H   H112      1.0  0.00691  0.29156  0.78482  1.0000
  H   H113      1.0  0.13342  0.30638  0.78355  1.0000
  H   H114      1.0  0.12170  0.29336  0.81010  1.0000
  C   C61       1.0  0.19698  0.32519  0.86906  1.0000
  H   H115      1.0  0.05801  0.26802  0.94330  1.0000
  H   H116      1.0  0.11739  0.30521  0.96039  1.0000
  C   C62       1.0  0.98807  0.25188  0.87034  1.0000
  H   H117      1.0  0.23238  0.28823  0.92770  1.0000
  C   C63       1.0  0.10283  0.32134  0.94261  1.0000
  Fe  Fe6       1.0  0.08617  0.32510  0.89268  1.0000
  H   H118      1.0  0.15018  0.31526  0.81368  1.0000
  C   C64       1.0  0.13830  0.32063  0.81113  1.0000
  C   C65       1.0  0.23192  0.32105  0.94360  1.0000
  C   C66       1.0  0.16444  0.32493  0.87314  1.0000
  C   C67       1.0  0.98911  0.23139  0.93004  1.0000
  H   H119      1.0  0.98739  0.30889  0.83122  1.0000
  H   H120      1.0  0.10686  0.31737  0.92711  1.0000
  C   C68       1.0  0.05103  0.29580  0.98041  1.0000
  H   H121      1.0  0.19947  0.32359  0.93750  1.0000
  C   C69       1.0  0.20163  0.32527  0.95449  1.0000
  C   C70       1.0  0.10335  0.31917  0.98177  1.0000
  H   H122      1.0  0.23697  0.27636  0.95238  1.0000
  Fe  Fe7       1.0  0.17933  0.49465  0.32426  1.0000
  S   S13       1.0  0.20894  0.50353  0.30848  1.0000
  S   S14       1.0  0.15555  0.49311  0.30577  1.0000
  Fe  Fe8       1.0  0.18839  0.49586  0.37067  1.0000
  S   S15       1.0  0.21875  0.50478  0.35866  1.0000
  S   S16       1.0  0.17442  0.49439  0.40555  1.0000
  Fe  Fe9       1.0  0.21260  0.52353  0.33167  1.0000
  C   C71       1.0  0.11837  0.65590  0.31901  1.0000
  Fe  Fe10      1.0  0.21279  0.48395  0.33658  1.0000
  S   S17       1.0  0.18268  0.51651  0.34525  1.0000
  S   S18       1.0  0.18266  0.47316  0.35074  1.0000
  H   H123      1.0  0.20927  0.48614  0.40861  1.0000
  Fe  Fe11      1.0  0.20487  0.62301  0.37990  1.0000
  S   S19       1.0  0.17525  0.62093  0.39028  1.0000
  H   H124      1.0  0.01489  0.34633  0.14296  1.0000
  Fe  Fe12      1.0  0.17660  0.63385  0.35532  1.0000
  S   S20       1.0  0.15164  0.62149  0.34084  1.0000
  Fe  Fe13      1.0  0.18520  0.64956  0.39661  1.0000
  H   H125      1.0  0.07853  0.55817  0.28628  1.0000
  S   S21       1.0  0.20574  0.63371  0.34430  1.0000
  H   H126      1.0  0.06103  0.62934  0.19075  1.0000
  C   C72       1.0  0.02486  0.51213  0.25768  1.0000
  Fe  Fe14      1.0  0.09764  0.44844  0.18714  1.0000
  S   S22       1.0  0.08915  0.44115  0.22382  1.0000
  S   S23       1.0  0.09481  0.47534  0.16971  1.0000
  Fe  Fe15      1.0  0.10648  0.41183  0.18299  1.0000
  S   S24       1.0  0.09892  0.40243  0.21950  1.0000
  S   S25       1.0  0.11604  0.39057  0.16561  1.0000
  Fe  Fe16      1.0  0.07467  0.41351  0.21699  1.0000
  S   S26       1.0  0.04657  0.39727  0.23578  1.0000
  Fe  Fe17      1.0  0.11428  0.43087  0.22255  1.0000
  S   S27       1.0  0.13544  0.43344  0.24500  1.0000
  S   S28       1.0  0.08133  0.42145  0.18032  1.0000
  S   S29       1.0  0.12372  0.43972  0.18610  1.0000
  Fe  Fe18      1.0  0.12718  0.60830  0.22469  1.0000
  S   S30       1.0  0.13551  0.59664  0.19493  1.0000
  S   S31       1.0  0.15120  0.62323  0.23899  1.0000
  Fe  Fe19      1.0  0.08646  0.59300  0.22350  1.0000
  S   S32       1.0  0.09205  0.57992  0.19415  1.0000
  S   S33       1.0  0.05732  0.58952  0.24010  1.0000
  Fe  Fe20      1.0  0.11333  0.57115  0.21082  1.0000
  S   S34       1.0  0.11739  0.54276  0.21893  1.0000
  Fe  Fe21      1.0  0.11347  0.60685  0.18107  1.0000
  S   S35       1.0  0.11617  0.62004  0.14543  1.0000
  S   S36       1.0  0.10629  0.58227  0.24143  1.0000
  S   S37       1.0  0.10667  0.62043  0.20964  1.0000
  C   C73       1.0  0.11951  0.64399  0.13791  1.0000
  C   C74       1.0  0.20294  0.48711  0.42482  1.0000
  H   H127      1.0  0.12210  0.64306  0.10328  1.0000
  C   C75       1.0  0.01619  0.55107  0.20898  1.0000
  C   C76       1.0  0.01170  0.55252  0.23105  1.0000
  C   C77       1.0  0.02410  0.56481  0.24052  1.0000
  C   C78       1.0  0.04090  0.57558  0.22793  1.0000
  C   C79       1.0  0.04481  0.57465  0.20571  1.0000
  C   C80       1.0  0.03264  0.56233  0.19638  1.0000
  H   H128      1.0  0.08891  0.47513  0.25466  1.0000
  H   H129      1.0  0.02088  0.56565  0.25771  1.0000
  H   H130      1.0  0.05718  0.58357  0.19559  1.0000
  H   H131      1.0  0.03624  0.56127  0.17937  1.0000
  C   C81       1.0  0.10215  0.49451  0.18239  1.0000
  C   C82       1.0  0.10042  0.51179  0.17346  1.0000
  C   C83       1.0  0.10553  0.52698  0.18407  1.0000
  C   C84       1.0  0.11227  0.52484  0.20371  1.0000
  C   C85       1.0  0.11433  0.50765  0.21228  1.0000
  C   C86       1.0  0.10933  0.49257  0.20170  1.0000
  H   H132      1.0  0.09503  0.51340  0.15838  1.0000
  H   H133      1.0  0.10414  0.54025  0.17718  1.0000
  H   H134      1.0  0.11952  0.50579  0.22739  1.0000
  H   H135      1.0  0.11106  0.47944  0.20849  1.0000
  C   C87       1.0  0.10571  0.38092  0.14471  1.0000
  C   C88       1.0  0.10781  0.36385  0.14057  1.0000
  C   C89       1.0  0.10080  0.35620  0.12319  1.0000
  H   H136      1.0  0.06616  0.37270  0.21670  1.0000
  C   C90       1.0  0.08944  0.38260  0.11398  1.0000
  C   C91       1.0  0.09619  0.39013  0.13160  1.0000
  H   H137      1.0  0.11488  0.35652  0.15091  1.0000
  H   H138      1.0  0.20298  0.52492  0.25999  1.0000
  H   H139      1.0  0.09454  0.40331  0.13462  1.0000
  C   C92       1.0  0.00434  0.36945  0.19662  1.0000
  C   C93       1.0  0.07985  0.40067  0.27819  1.0000
  C   C94       1.0  0.01428  0.37342  0.23147  1.0000
  C   C95       1.0  0.03050  0.38645  0.22053  1.0000
  C   C96       1.0  0.03336  0.39114  0.19766  1.0000
  C   C97       1.0  0.02039  0.38264  0.18576  1.0000
  H   H140      1.0  0.19902  0.37983  0.09380  1.0000
  H   H141      1.0  0.04044  0.44780  0.13828  1.0000
  H   H142      1.0  0.04550  0.40136  0.18904  1.0000
  H   H143      1.0  0.15268  0.53975  0.20835  1.0000
  C   C98       1.0  0.19714  0.36482  0.09597  1.0000
  C   C99       1.0  0.15207  0.62085  0.31260  1.0000
  C   C100      1.0  0.16838  0.62676  0.29737  1.0000
  C   C101      1.0  0.16796  0.62705  0.27485  1.0000
  C   C102      1.0  0.15128  0.62118  0.26747  1.0000
  C   C103      1.0  0.13502  0.61490  0.28276  1.0000
  C   C104      1.0  0.13543  0.61487  0.30521  1.0000
  H   H144      1.0  0.18128  0.63135  0.30288  1.0000
  H   H145      1.0  0.18059  0.63199  0.26306  1.0000
  H   H146      1.0  0.12209  0.61057  0.27720  1.0000
  H   H147      1.0  0.12273  0.61064  0.31680  1.0000
  C   C105      1.0  0.12192  0.65175  0.11560  1.0000
  C   C106      1.0  0.18106  0.64813  0.45049  1.0000
  H   H148      1.0  0.21527  0.58473  0.47545  1.0000
  C   C107      1.0  0.11424  0.39476  0.35663  1.0000
  S   S38       1.0  0.23014  0.55253  0.32024  1.0000
  C   C108      1.0  0.17757  0.65352  0.47090  1.0000
  H   H149      1.0  0.10240  0.34302  0.12018  1.0000
  C   C109      1.0  0.05599  0.35941  0.19063  1.0000
  C   C110      1.0  0.06861  0.36178  0.20760  1.0000
  H   H150      1.0  0.15301  0.65758  0.28078  1.0000
  H   H151      1.0  0.99677  0.59555  0.15834  1.0000
  H   H152      1.0  0.20020  0.54308  0.43289  1.0000
  H   H153      1.0  0.99875  0.46398  0.18538  1.0000
  H   H154      1.0  0.06581  0.34887  0.21965  1.0000
  H   H155      1.0  0.06384  0.33257  0.13798  1.0000
  C   C111      1.0  0.15046  0.47691  0.28831  1.0000
  C   C112      1.0  0.16233  0.46638  0.28266  1.0000
  C   C113      1.0  0.15774  0.45348  0.26884  1.0000
  C   C114      1.0  0.14138  0.45115  0.26037  1.0000
  C   C115      1.0  0.12959  0.46183  0.26585  1.0000
  C   C116      1.0  0.13408  0.47457  0.27993  1.0000
  H   H156      1.0  0.17499  0.46808  0.28905  1.0000
  H   H157      1.0  0.16689  0.44520  0.26472  1.0000
  H   H158      1.0  0.11690  0.46001  0.25955  1.0000
  H   H159      1.0  0.12485  0.48263  0.28442  1.0000
  C   C117      1.0  0.18576  0.49056  0.42788  1.0000
  H   H160      1.0  0.08911  0.47346  0.28373  1.0000
  C   C118      1.0  0.00414  0.43586  0.21605  1.0000
  H   H161      1.0  0.10723  0.38117  0.32929  1.0000
  H   H162      1.0  0.11390  0.52924  0.26481  1.0000
  H   H163      1.0  0.06818  0.40044  0.29099  1.0000
  H   H164      1.0  0.13378  0.34423  0.12330  1.0000
  H   H165      1.0  0.00588  0.62695  0.12195  1.0000
  N   N3        1.0  0.14736  0.55765  0.35155  1.0000
  C   C119      1.0  0.16555  0.56254  0.33622  1.0000
  C   C120      1.0  0.13955  0.53707  0.35557  1.0000
  C   C121      1.0  0.13486  0.56737  0.34108  1.0000
  C   C122      1.0  0.14952  0.56386  0.37324  1.0000
  C   C123      1.0  0.16142  0.55482  0.38693  1.0000
  C   C124      1.0  0.17753  0.58256  0.33387  1.0000
  C   C125      1.0  0.11420  0.56040  0.35142  1.0000
  C   C126      1.0  0.13565  0.52852  0.33493  1.0000
  C   C127      1.0  0.12498  0.50826  0.34141  1.0000
  C   C128      1.0  0.16578  0.56471  0.40609  1.0000
  C   C129      1.0  0.19260  0.58762  0.31358  1.0000
  C   C130      1.0  0.10340  0.57290  0.34173  1.0000
  H   H166      1.0  0.16338  0.56011  0.31946  1.0000
  H   H167      1.0  0.17403  0.55331  0.34125  1.0000
  H   H168      1.0  0.14918  0.53013  0.36264  1.0000
  H   H169      1.0  0.12688  0.53282  0.36826  1.0000
  H   H170      1.0  0.13604  0.56678  0.32322  1.0000
  H   H171      1.0  0.13922  0.58230  0.34170  1.0000
  H   H172      1.0  0.15500  0.57909  0.37083  1.0000
  H   H173      1.0  0.13603  0.56087  0.38408  1.0000
  H   H174      1.0  0.17443  0.55499  0.37672  1.0000
  H   H175      1.0  0.15401  0.54028  0.39400  1.0000
  H   H176      1.0  0.16936  0.59259  0.33225  1.0000
  H   H177      1.0  0.18412  0.58417  0.34856  1.0000
  H   H178      1.0  0.11196  0.55990  0.36942  1.0000
  H   H179      1.0  0.10818  0.54639  0.34828  1.0000
  H   H180      1.0  0.12762  0.53565  0.32515  1.0000
  H   H181      1.0  0.14873  0.52933  0.32414  1.0000
  H   H182      1.0  0.13306  0.50033  0.35018  1.0000
  H   H183      1.0  0.11167  0.50666  0.35212  1.0000
  H   H184      1.0  0.12223  0.50243  0.32646  1.0000
  H   H185      1.0  0.17430  0.57903  0.39985  1.0000
  H   H186      1.0  0.15300  0.56497  0.41667  1.0000
  H   H187      1.0  0.17353  0.55745  0.41626  1.0000
  H   H188      1.0  0.18658  0.58850  0.29839  1.0000
  H   H189      1.0  0.20211  0.60122  0.31363  1.0000
  H   H190      1.0  0.20052  0.57725  0.31347  1.0000
  H   H191      1.0  0.08856  0.56692  0.34821  1.0000
  H   H192      1.0  0.10765  0.58663  0.34653  1.0000
  H   H193      1.0  0.10561  0.57448  0.32352  1.0000
  H   H194      1.0  0.03061  0.33941  0.12356  1.0000
  C   C131      1.0  0.02312  0.46727  0.20149  1.0000
  H   H195      1.0  0.11029  0.37737  0.38840  1.0000
  C   C132      1.0  0.07009  0.65037  0.13534  1.0000
  H   H196      1.0  0.21401  0.34615  0.10256  1.0000
  H   H197      1.0  0.10285  0.49377  0.26497  1.0000
  H   H198      1.0  0.00238  0.54290  0.14451  1.0000
  S   S39       1.0  0.00237  0.53495  0.19638  1.0000
  H   H199      1.0  0.02829  0.42640  0.18717  1.0000
  C   C133      1.0  0.20409  0.48652  0.46384  1.0000
  C   C134      1.0  0.21809  0.58671  0.37167  1.0000
  H   H200      1.0  0.23416  0.61027  0.34782  1.0000
  H   H201      1.0  0.09152  0.38415  0.29976  1.0000
  H   H202      1.0  0.99094  0.51534  0.11304  1.0000
  H   H203      1.0  0.07279  0.35026  0.16640  1.0000
  H   H204      1.0  0.09495  0.63677  0.34092  1.0000
  H   H205      1.0  0.08306  0.64347  0.05593  1.0000
  C   C135      1.0  0.04074  0.50297  0.25778  1.0000
  C   C136      1.0  0.18308  0.53155  0.47687  1.0000
  H   H206      1.0  0.99277  0.56043  0.08989  1.0000
  C   C137      1.0  0.18660  0.48919  0.46709  1.0000
  C   C138      1.0  0.17508  0.51661  0.23690  1.0000
  C   C139      1.0  0.16087  0.50362  0.22644  1.0000
  C   C140      1.0  0.16889  0.48921  0.21713  1.0000
  H   H207      1.0  0.14657  0.51491  0.26688  1.0000
  H   H208      1.0  0.14138  0.52429  0.24174  1.0000
  H   H209      1.0  0.18832  0.52127  0.22516  1.0000
  H   H210      1.0  0.17728  0.50736  0.25113  1.0000
  H   H211      1.0  0.17480  0.53830  0.19592  1.0000
  H   H212      1.0  0.14871  0.49616  0.23902  1.0000
  H   H213      1.0  0.15595  0.51091  0.21303  1.0000
  H   H214      1.0  0.17402  0.48131  0.22998  1.0000
  H   H215      1.0  0.15810  0.47940  0.21112  1.0000
  H   H216      1.0  0.18028  0.49586  0.20317  1.0000
  C   C141      1.0  0.16047  0.36390  0.08954  1.0000
  H   H217      1.0  0.21196  0.33343  0.02242  1.0000
  C   C142      1.0  0.14221  0.36828  0.08602  1.0000
  C   C143      1.0  0.14303  0.37661  0.06210  1.0000
  H   H218      1.0  0.16181  0.35256  0.08041  1.0000
  H   H219      1.0  0.17166  0.37599  0.08084  1.0000
  H   H220      1.0  0.04168  0.35585  0.19950  1.0000
  H   H221      1.0  0.04435  0.37199  0.10588  1.0000
  H   H222      1.0  0.99424  0.43681  0.20481  1.0000
  H   H223      1.0  0.13079  0.35552  0.09003  1.0000
  H   H224      1.0  0.13891  0.37820  0.09628  1.0000
  H   H225      1.0  0.19510  0.36040  0.08002  1.0000
  H   H226      1.0  0.14658  0.36737  0.05092  1.0000
  H   H227      1.0  0.12943  0.37854  0.05988  1.0000
  H   H228      1.0  0.15334  0.39021  0.05756  1.0000
  S   S40       1.0  0.21479  0.65054  0.38923  1.0000
  H   H229      1.0  0.21025  0.52928  0.40043  1.0000
  H   H230      1.0  0.01063  0.59486  0.12451  1.0000
  C   C144      1.0  0.22594  0.54174  0.47331  1.0000
  H   H231      1.0  0.10793  0.45805  0.35355  1.0000
  H   H232      1.0  0.04041  0.43182  0.21923  1.0000
  S   S41       1.0  0.17511  0.65932  0.42716  1.0000
  H   H233      1.0  0.13816  0.41635  0.28728  1.0000
  H   H234      1.0  0.06452  0.45255  0.13952  1.0000
  H   H235      1.0  0.05853  0.64862  0.08208  1.0000
  C   C145      1.0  0.04464  0.59234  0.13258  1.0000
  H   H236      1.0  0.02014  0.47290  0.16679  1.0000
  H   H237      1.0  0.14534  0.34252  0.15847  1.0000
  C   C146      1.0  0.00120  0.36494  0.21956  1.0000
  H   H238      1.0  0.00560  0.54827  0.11564  1.0000
  H   H239      1.0  0.01850  0.57965  0.10925  1.0000
  H   H240      1.0  0.05519  0.61835  0.16793  1.0000
  H   H241      1.0  0.07172  0.54041  0.18419  1.0000
  H   H242      1.0  0.09018  0.37408  0.37578  1.0000
  H   H243      1.0  0.21134  0.56338  0.27252  1.0000
  H   H244      1.0  0.03735  0.47643  0.19734  1.0000
  C   C147      1.0  0.14755  0.33299  0.14709  1.0000
  H   H245      1.0  0.05427  0.59052  0.14398  1.0000
  C   C148      1.0  0.04732  0.45164  0.17043  1.0000
  H   H246      1.0  0.05016  0.33075  0.98949  1.0000
  C   C149      1.0  0.10713  0.39456  0.33446  1.0000
  C   C150      1.0  0.21109  0.54862  0.27486  1.0000
  H   H247      1.0  0.06481  0.65337  0.02329  1.0000
  H   H248      1.0  0.02807  0.56466  0.14303  1.0000
  H   H249      1.0  0.04343  0.60659  0.13135  1.0000
  H   H250      1.0  0.04952  0.43012  0.15132  1.0000
  H   H251      1.0  0.05043  0.59013  0.11617  1.0000
  H   H252      1.0  0.05988  0.45679  0.24903  1.0000
  H   H253      1.0  0.01314  0.41240  0.23133  1.0000
  C   C151      1.0  0.22847  0.59550  0.35110  1.0000
  H   H254      1.0  0.20984  0.52596  0.44468  1.0000
  H   H255      1.0  0.05483  0.54773  0.29921  1.0000
  N   N4        1.0  0.11695  0.41023  0.31582  1.0000
  C   C152      1.0  0.07302  0.50375  0.24929  1.0000
  C   C153      1.0  0.05828  0.51599  0.20916  1.0000
  C   C154      1.0  0.07371  0.49177  0.27119  1.0000
  C   C155      1.0  0.05915  0.52874  0.18774  1.0000
  C   C156      1.0  0.08959  0.48299  0.26841  1.0000
  H   H256      1.0  0.07665  0.53588  0.22326  1.0000
  H   H257      1.0  0.08710  0.51264  0.24269  1.0000
  H   H258      1.0  0.06986  0.49403  0.23771  1.0000
  H   H259      1.0  0.03837  0.49200  0.24763  1.0000
  H   H260      1.0  0.06849  0.50820  0.20589  1.0000
  H   H261      1.0  0.04443  0.50624  0.21316  1.0000
  H   H262      1.0  0.06085  0.48054  0.27658  1.0000
  H   H263      1.0  0.01963  0.43560  0.25248  1.0000
  H   H264      1.0  0.10888  0.36503  0.36576  1.0000
  H   H265      1.0  0.07992  0.53122  0.26718  1.0000
  C   C157      1.0  0.21207  0.48516  0.44273  1.0000
  C   C158      1.0  0.04321  0.35393  0.14845  1.0000
  H   H266      1.0  0.11753  0.64957  0.17088  1.0000
  C   C159      1.0  0.06232  0.52694  0.22801  1.0000
  C   C160      1.0  0.17751  0.49131  0.44914  1.0000
  N   N5        1.0  0.16253  0.35869  0.11312  1.0000
  H   H267      1.0  0.03236  0.63488  0.14051  1.0000
  C   C161      1.0  0.18980  0.63421  0.44870  1.0000
  H   H268      1.0  0.06457  0.63690  0.13058  1.0000
  H   H269      1.0  0.08518  0.65240  0.13273  1.0000
  H   H270      1.0  0.02470  0.52041  0.27096  1.0000
  C   C162      1.0  0.14986  0.52767  0.25437  1.0000
  H   H271      1.0  0.12137  0.52231  0.29003  1.0000
  H   H272      1.0  0.00306  0.49348  0.19939  1.0000
  H   H273      1.0  0.14754  0.33079  0.11276  1.0000
  H   H274      1.0  0.07566  0.49991  0.28453  1.0000
  C   C163      1.0  0.18058  0.35406  0.11412  1.0000
  H   H275      1.0  0.17171  0.39778  0.10005  1.0000
  C   C164      1.0  0.22511  0.56589  0.33955  1.0000
  N   N6        1.0  0.05985  0.51555  0.25056  1.0000
  H   H276      1.0  0.04946  0.64941  0.16425  1.0000
  H   H277      1.0  0.19233  0.62978  0.43312  1.0000
  H   H278      1.0  0.05368  0.53666  0.22791  1.0000
  H   H279      1.0  0.22541  0.48263  0.44022  1.0000
  H   H280      1.0  0.99901  0.44138  0.23056  1.0000
  N   N7        1.0  0.16996  0.53297  0.24460  1.0000
  H   H281      1.0  0.05912  0.37290  0.17956  1.0000
  C   C165      1.0  0.16746  0.54666  0.20500  1.0000
  H   H282      1.0  0.16479  0.56252  0.17463  1.0000
  H   H283      1.0  0.18509  0.57237  0.18527  1.0000
  C   C166      1.0  0.14261  0.54213  0.26548  1.0000
  H   H284      1.0  0.03906  0.49553  0.27486  1.0000
  C   C167      1.0  0.17031  0.56500  0.18985  1.0000
  C   C168      1.0  0.12264  0.53407  0.27678  1.0000
  H   H285      1.0  0.19005  0.55463  0.22125  1.0000
  H   H286      1.0  0.08242  0.38998  0.10361  1.0000
  C   C169      1.0  0.06487  0.52779  0.26723  1.0000
  C   C170      1.0  0.16062  0.37342  0.12648  1.0000
  C   C171      1.0  0.17293  0.39309  0.11723  1.0000
  H   H287      1.0  0.18468  0.35557  0.13037  1.0000
  H   H288      1.0  0.14618  0.37411  0.12940  1.0000
  C   C172      1.0  0.10530  0.37667  0.37255  1.0000
  C   C173      1.0  0.22453  0.34878  0.98952  1.0000
  C   C174      1.0  0.02821  0.44106  0.18397  1.0000
  C   C175      1.0  0.17498  0.54947  0.22638  1.0000
  H   H289      1.0  0.17447  0.52852  0.27827  1.0000
  H   H290      1.0  0.05921  0.52099  0.17390  1.0000
  H   H291      1.0  0.17915  0.33932  0.11290  1.0000
  C   C176      1.0  0.09186  0.36570  0.10959  1.0000
  H   H292      1.0  0.06978  0.55581  0.24946  1.0000
  H   H293      1.0  0.05824  0.52044  0.28414  1.0000
  H   H294      1.0  0.07433  0.63908  0.09592  1.0000
  C   C177      1.0  0.16406  0.40059  0.29668  1.0000
  H   H295      1.0  0.11651  0.63215  0.34390  1.0000
  C   C178      1.0  0.19542  0.62601  0.46709  1.0000
  C   C179      1.0  0.21491  0.36103  0.10122  1.0000
  C   C180      1.0  0.03180  0.44684  0.24404  1.0000
  C   C181      1.0  0.06066  0.54672  0.26423  1.0000
  C   C182      1.0  0.11001  0.43691  0.33401  1.0000
  H   H296      1.0  0.04641  0.54565  0.26207  1.0000
  C   C183      1.0  0.18058  0.53829  0.26254  1.0000
  H   H297      1.0  0.06045  0.33295  0.18928  1.0000
  H   H298      1.0  0.02867  0.46011  0.24530  1.0000
  H   H299      1.0  0.21822  0.52711  0.47930  1.0000
  H   H300      1.0  0.23672  0.33932  0.01702  1.0000
  H   H301      1.0  0.16406  0.49358  0.45171  1.0000
  H   H302      1.0  0.09235  0.39401  0.33846  1.0000
  H   H303      1.0  0.15042  0.54672  0.27835  1.0000
  H   H304      1.0  0.11758  0.54478  0.28405  1.0000
  H   H305      1.0  0.17684  0.42080  0.12426  1.0000
  H   H306      1.0  0.07893  0.62856  0.16929  1.0000
  C   C184      1.0  0.09269  0.33158  0.98298  1.0000
  C   C185      1.0  0.20124  0.53904  0.25823  1.0000
  H   H307      1.0  0.14331  0.55430  0.25309  1.0000
  H   H308      1.0  0.02279  0.38637  0.16805  1.0000
  C   C186      1.0  0.03065  0.36760  0.11664  1.0000
  H   H309      1.0  0.02867  0.37894  0.12531  1.0000
  C   C187      1.0  0.01205  0.58060  0.12599  1.0000
  H   H310      1.0  0.03939  0.36420  0.15778  1.0000
  C   C188      1.0  0.22469  0.53290  0.40303  1.0000
  H   H311      1.0  0.08872  0.33551  0.99854  1.0000
  H   H312      1.0  0.13005  0.46203  0.33673  1.0000
  H   H313      1.0  0.17974  0.55208  0.26586  1.0000
  H   H314      1.0  0.17085  0.56118  0.23239  1.0000
  H   H315      1.0  0.20825  0.54646  0.24159  1.0000
  C   C189      1.0  0.06406  0.55608  0.28405  1.0000
  H   H316      1.0  0.06127  0.56974  0.28144  1.0000
  C   C190      1.0  0.02892  0.35026  0.13314  1.0000
  H   H317      1.0  0.16289  0.57377  0.19803  1.0000
  H   H318      1.0  0.01765  0.44145  0.17342  1.0000
  H   H319      1.0  0.22522  0.35671  0.02161  1.0000
  H   H320      1.0  0.16367  0.36986  0.14319  1.0000
  H   H321      1.0  0.05038  0.45566  0.21304  1.0000
  S   S42       1.0  0.08313  0.35660  0.08742  1.0000
  H   H322      1.0  0.99895  0.54394  0.24088  1.0000
  H   H323      1.0  0.16959  0.41329  0.28409  1.0000
  C   C191      1.0  0.21078  0.56769  0.37582  1.0000
  C   C192      1.0  0.23218  0.58503  0.33506  1.0000
  H   H324      1.0  0.20258  0.56092  0.39160  1.0000
  H   H325      1.0  0.01184  0.36985  0.24920  1.0000
  C   C193      1.0  0.07039  0.65497  0.00554  1.0000
  C   C194      1.0  0.02598  0.57861  0.14139  1.0000
  C   C195      1.0  0.01275  0.47315  0.18327  1.0000
  C   C196      1.0  0.21268  0.54107  0.43909  1.0000
  C   C197      1.0  0.11837  0.45131  0.34723  1.0000
  H   H326      1.0  0.11056  0.65113  0.35471  1.0000
  H   H327      1.0  0.05679  0.36104  0.13809  1.0000
  H   H328      1.0  0.14547  0.65333  0.31948  1.0000
  C   C198      1.0  0.14735  0.34154  0.12310  1.0000
  H   H329      1.0  0.02117  0.58114  0.15797  1.0000
  C   C199      1.0  0.05055  0.44507  0.14855  1.0000
  H   H330      1.0  0.21794  0.36554  0.11683  1.0000
  H   H331      1.0  0.08318  0.36584  0.19940  1.0000
  H   H332      1.0  0.12326  0.44482  0.36142  1.0000
  S   S43       1.0  0.98917  0.35823  0.18080  1.0000
  H   H333      1.0  0.10021  0.65842  0.06718  1.0000
  C   C200      1.0  0.01113  0.49268  0.18352  1.0000
  C   C201      1.0  0.00201  0.41501  0.22294  1.0000
  H   H334      1.0  0.05819  0.44919  0.17955  1.0000
  H   H335      1.0  0.04698  0.53414  0.18876  1.0000
  S   S44       1.0  0.21479  0.59910  0.39271  1.0000
  H   H336      1.0  0.22642  0.36875  0.08784  1.0000
  H   H337      1.0  0.15330  0.40729  0.12983  1.0000
  H   H338      1.0  0.00460  0.48813  0.27780  1.0000
  H   H339      1.0  0.04898  0.46665  0.16689  1.0000
  H   H340      1.0  0.02485  0.50260  0.18096  1.0000
  C   C202      1.0  0.01416  0.64147  0.11946  1.0000
  H   H341      1.0  0.20226  0.61532  0.46555  1.0000
  H   H342      1.0  0.19111  0.56011  0.46164  1.0000
  S   S45       1.0  0.23293  0.46794  0.32803  1.0000
  H   H343      1.0  0.04335  0.44705  0.27393  1.0000
  H   H344      1.0  0.05038  0.43215  0.25651  1.0000
  C   C203      1.0  0.22864  0.58356  0.46730  1.0000
  H   H345      1.0  0.16867  0.40302  0.14827  1.0000
  H   H346      1.0  0.18740  0.39369  0.11819  1.0000
  H   H347      1.0  0.10444  0.44395  0.32083  1.0000
  H   H348      1.0  0.09844  0.42643  0.34500  1.0000
  C   C204      1.0  0.13236  0.40550  0.30208  1.0000
  H   H349      1.0  0.98942  0.51008  0.14251  1.0000
  H   H350      1.0  0.99528  0.50472  0.26338  1.0000
  C   C205      1.0  0.21409  0.55730  0.35972  1.0000
  C   C206      1.0  0.16758  0.40683  0.13077  1.0000
  H   H351      1.0  0.17533  0.39822  0.30516  1.0000
  H   H352      1.0  0.13329  0.43848  0.30958  1.0000
  C   C207      1.0  0.19749  0.55054  0.47091  1.0000
  H   H353      1.0  0.23374  0.53847  0.38690  1.0000
  H   H354      1.0  0.06896  0.64108  0.00125  1.0000
  H   H355      1.0  0.11089  0.40593  0.36465  1.0000
  H   H356      1.0  0.13380  0.42651  0.33540  1.0000
  N   N8        1.0  0.21591  0.55109  0.45810  1.0000
  H   H357      1.0  0.22759  0.56046  0.40939  1.0000
  C   C208      1.0  0.06479  0.63003  0.17276  1.0000
  H   H358      1.0  0.20409  0.54196  0.29184  1.0000
  N   N9        1.0  0.02314  0.44731  0.20527  1.0000
  H   H359      1.0  0.20852  0.54257  0.36318  1.0000
  C   C209      1.0  0.22782  0.54696  0.41829  1.0000
  H   H360      1.0  0.07522  0.38957  0.26873  1.0000
  C   C210      1.0  0.06371  0.64838  0.16043  1.0000
  H   H361      1.0  0.09142  0.41612  0.31056  1.0000
  C   C211      1.0  0.10355  0.41345  0.30100  1.0000
  C   C212      1.0  0.00637  0.49771  0.26210  1.0000
  C   C213      1.0  0.08584  0.65556  0.06431  1.0000
  H   H362      1.0  0.00504  0.48981  0.24843  1.0000
  H   H363      1.0  0.15923  0.38874  0.28838  1.0000
  H   H364      1.0  0.14389  0.38982  0.32576  1.0000
  C   C214      1.0  0.99590  0.54786  0.13080  1.0000
  H   H365      1.0  0.08389  0.41403  0.26672  1.0000
  C   C215      1.0  0.07251  0.65151  0.08609  1.0000
  C   C216      1.0  0.22593  0.57107  0.44968  1.0000
  H   H366      1.0  0.10684  0.39713  0.27501  1.0000
  H   H367      1.0  0.01695  0.47088  0.21691  1.0000
  H   H368      1.0  0.01937  0.33883  0.18289  1.0000
  H   H369      1.0  0.22543  0.54765  0.27282  1.0000
  C   C217      1.0  0.12449  0.42806  0.32357  1.0000
  H   H370      1.0  0.02004  0.36478  0.10613  1.0000
  H   H371      1.0  0.22790  0.52025  0.41021  1.0000
  H   H372      1.0  0.03954  0.63470  0.11208  1.0000
  H   H373      1.0  0.12924  0.39702  0.35454  1.0000
  C   C218      1.0  0.03708  0.44517  0.21966  1.0000
  C   C219      1.0  0.14847  0.40266  0.31338  1.0000
  C   C220      1.0  0.04735  0.44566  0.25660  1.0000
  C   C221      1.0  0.11935  0.65535  0.15370  1.0000
  H   H374      1.0  0.15429  0.41440  0.32130  1.0000
  C   C222      1.0  0.09607  0.39765  0.28858  1.0000
  H   H375      1.0  0.00399  0.49671  0.17014  1.0000
  H   H376      1.0  0.10986  0.42603  0.28835  1.0000
  H   H377      1.0  0.12724  0.39256  0.29580  1.0000
  H   H378      1.0  0.17865  0.52680  0.46194  1.0000
  H   H379      1.0  0.00733  0.64865  0.13094  1.0000
  H   H380      1.0  0.02581  0.52093  0.24170  1.0000
  C   C223      1.0  0.03355  0.64231  0.12358  1.0000
  H   H381      1.0  0.23118  0.63888  0.43694  1.0000
  C   C224      1.0  0.22458  0.34421  0.01414  1.0000
  C   C225      1.0  0.05915  0.34448  0.17722  1.0000
  H   H382      1.0  0.01452  0.64798  0.10230  1.0000
  H   H383      1.0  0.00198  0.40827  0.20824  1.0000
  H   H384      1.0  0.11650  0.64741  0.30594  1.0000
  H   H385      1.0  0.98884  0.35475  0.22808  1.0000
  H   H386      1.0  0.23200  0.46742  0.37453  1.0000
  H   H387      1.0  0.21842  0.57715  0.43783  1.0000
  N   N10       1.0  0.99357  0.56675  0.13257  1.0000
  H   H388      1.0  0.23370  0.60859  0.44338  1.0000
  H   H389      1.0  0.99787  0.58502  0.08555  1.0000
  Fe  Fe22      1.0  0.08975  0.33130  0.07685  1.0000
  H   H390      1.0  0.04532  0.65747  0.99592  1.0000
  H   H391      1.0  0.99302  0.56072  0.16758  1.0000
  N   N11       1.0  0.04470  0.33753  0.16385  1.0000
  S   S46       1.0  0.11682  0.33016  0.05849  1.0000
  C   C226      1.0  0.10962  0.64324  0.34100  1.0000
  H   H392      1.0  0.21226  0.35353  0.98749  1.0000
  H   H393      1.0  0.07278  0.65947  0.16688  1.0000
  C   C227      1.0  0.02673  0.32837  0.17927  1.0000
  H   H394      1.0  0.16069  0.32971  0.14866  1.0000
  H   H395      1.0  0.23578  0.57822  0.47996  1.0000
  Fe  Fe23      1.0  0.22185  0.52397  0.54356  1.0000
  S   S47       1.0  0.19665  0.51385  0.52939  1.0000
  H   H396      1.0  0.15933  0.38530  0.86666  1.0000
  C   C228      1.0  0.99375  0.47696  0.82912  1.0000
  S   S48       1.0  0.19683  0.47185  0.55081  1.0000
  Fe  Fe24      1.0  0.20920  0.49191  0.51926  1.0000
  H   H397      1.0  0.11650  0.64171  0.90775  1.0000
  Fe  Fe25      1.0  0.18632  0.49480  0.56215  1.0000
  S   S49       1.0  0.15821  0.49378  0.58002  1.0000
  H   H398      1.0  0.19296  0.35078  0.95581  1.0000
  S   S50       1.0  0.21083  0.50684  0.57698  1.0000
  H   H399      1.0  0.21311  0.44725  0.51007  1.0000
  S   S51       1.0  0.18951  0.61678  0.57259  1.0000
  H   H400      1.0  0.00232  0.49061  0.79558  1.0000
  Fe  Fe26      1.0  0.18216  0.64124  0.58330  1.0000
  S   S52       1.0  0.15412  0.63891  0.60221  1.0000
  H   H401      1.0  0.18918  0.57603  0.51432  1.0000
  H   H402      1.0  0.21855  0.64423  0.66025  1.0000
  H   H403      1.0  0.04565  0.61617  0.74655  1.0000
  H   H404      1.0  0.12440  0.60581  0.92083  1.0000
  Fe  Fe27      1.0  0.10296  0.43945  0.69231  1.0000
  S   S53       1.0  0.11769  0.45819  0.71283  1.0000
  S   S54       1.0  0.11760  0.43163  0.66261  1.0000
  Fe  Fe28      1.0  0.06592  0.43167  0.72261  1.0000
  S   S55       1.0  0.07780  0.45029  0.74484  1.0000
  S   S56       1.0  0.03653  0.41567  0.73553  1.0000
  Fe  Fe29      1.0  0.09318  0.46948  0.71399  1.0000
  S   S57       1.0  0.09333  0.49903  0.70414  1.0000
  Fe  Fe30      1.0  0.10085  0.43690  0.74187  1.0000
  S   S58       1.0  0.11028  0.42699  0.77323  1.0000
  S   S59       1.0  0.07934  0.45185  0.69181  1.0000
  S   S60       1.0  0.08815  0.41732  0.72115  1.0000
  C   C229      1.0  0.13613  0.61730  0.91173  1.0000
  Fe  Fe31      1.0  0.11205  0.61685  0.72579  1.0000
  S   S61       1.0  0.11052  0.60762  0.76202  1.0000
  S   S62       1.0  0.14068  0.62921  0.70614  1.0000
  Fe  Fe32      1.0  0.07110  0.60059  0.72852  1.0000
  S   S63       1.0  0.06666  0.59018  0.76461  1.0000
  S   S64       1.0  0.04677  0.59498  0.71121  1.0000
  Fe  Fe33      1.0  0.08530  0.61762  0.76635  1.0000
  S   S65       1.0  0.07505  0.63032  0.79469  1.0000
  Fe  Fe34      1.0  0.09213  0.58120  0.75690  1.0000
  S   S66       1.0  0.09521  0.55370  0.77187  1.0000
  S   S67       1.0  0.08802  0.62894  0.73046  1.0000
  S   S68       1.0  0.09535  0.58972  0.72050  1.0000
  H   H405      1.0  0.17237  0.63146  0.67469  1.0000
  C   C230      1.0  0.01603  0.56756  0.71050  1.0000
  C   C231      1.0  0.03282  0.57213  0.71784  1.0000
  C   C232      1.0  0.03797  0.55859  0.73097  1.0000
  C   C233      1.0  0.02629  0.54067  0.73683  1.0000
  H   H406      1.0  0.01217  0.57785  0.69989  1.0000
  H   H407      1.0  0.05103  0.56187  0.73638  1.0000
  C   C234      1.0  0.09404  0.51376  0.72343  1.0000
  C   C235      1.0  0.08692  0.52885  0.71945  1.0000
  C   C236      1.0  0.08700  0.54090  0.73448  1.0000
  C   C237      1.0  0.09482  0.53836  0.75320  1.0000
  C   C238      1.0  0.10220  0.52337  0.75711  1.0000
  C   C239      1.0  0.10166  0.51095  0.74231  1.0000
  H   H408      1.0  0.08081  0.53093  0.70498  1.0000
  H   H409      1.0  0.08060  0.55190  0.73176  1.0000
  H   H410      1.0  0.10824  0.52132  0.77163  1.0000
  H   H411      1.0  0.10735  0.49939  0.74530  1.0000
  C   C240      1.0  0.10453  0.40301  0.78327  1.0000
  C   C241      1.0  0.10533  0.39654  0.80523  1.0000
  C   C242      1.0  0.10100  0.37751  0.81339  1.0000
  C   C243      1.0  0.09608  0.36486  0.79950  1.0000
  C   C244      1.0  0.09557  0.37135  0.77753  1.0000
  C   C245      1.0  0.09975  0.39028  0.76948  1.0000
  H   H412      1.0  0.10918  0.40629  0.81599  1.0000
  H   H413      1.0  0.10154  0.37266  0.83033  1.0000
  H   H414      1.0  0.09199  0.36167  0.76663  1.0000
  H   H415      1.0  0.09965  0.39500  0.75245  1.0000
  H   H416      1.0  0.00230  0.44692  0.78612  1.0000
  C   C246      1.0  0.00803  0.40870  0.68557  1.0000
  C   C247      1.0  0.02178  0.41557  0.69749  1.0000
  C   C248      1.0  0.02106  0.40676  0.71887  1.0000
  C   C249      1.0  0.00688  0.39096  0.72807  1.0000
  H   H417      1.0  0.98821  0.55842  0.75767  1.0000
  H   H418      1.0  0.00833  0.41575  0.66921  1.0000
  H   H419      1.0  0.03254  0.42797  0.69046  1.0000
  H   H420      1.0  0.00638  0.38401  0.74455  1.0000
  H   H421      1.0  0.22663  0.54788  0.48847  1.0000
  H   H422      1.0  0.21907  0.42623  0.51907  1.0000
  H   H423      1.0  0.18619  0.34699  0.87894  1.0000
  C   C250      1.0  0.15042  0.63570  0.63112  1.0000
  C   C251      1.0  0.16449  0.63424  0.64276  1.0000
  C   C252      1.0  0.16139  0.63241  0.66577  1.0000
  C   C253      1.0  0.14404  0.63147  0.67732  1.0000
  C   C254      1.0  0.12984  0.63249  0.66572  1.0000
  C   C255      1.0  0.13307  0.63472  0.64266  1.0000
  H   H424      1.0  0.13850  0.37912  0.85566  1.0000
  H   H425      1.0  0.11641  0.63174  0.67450  1.0000
  H   H426      1.0  0.12209  0.63572  0.63374  1.0000
  H   H427      1.0  0.09787  0.65966  0.89593  1.0000
  H   H428      1.0  0.18077  0.54696  0.54074  1.0000
  H   H429      1.0  0.17771  0.63448  0.63398  1.0000
  H   H430      1.0  0.14385  0.63675  0.88173  1.0000
  Fe  Fe35      1.0  0.21669  0.62860  0.58160  1.0000
  C   C256      1.0  0.15000  0.35681  0.82782  1.0000
  C   C257      1.0  0.22915  0.35235  0.94237  1.0000
  C   C258      1.0  0.14784  0.47684  0.60363  1.0000
  C   C259      1.0  0.13358  0.47948  0.61843  1.0000
  C   C260      1.0  0.12468  0.46600  0.63700  1.0000
  C   C261      1.0  0.12959  0.44950  0.64053  1.0000
  C   C262      1.0  0.14381  0.44683  0.62570  1.0000
  C   C263      1.0  0.15310  0.46056  0.60750  1.0000
  H   H431      1.0  0.12931  0.49194  0.61549  1.0000
  H   H432      1.0  0.11370  0.46817  0.64827  1.0000
  H   H433      1.0  0.14768  0.43411  0.62832  1.0000
  H   H434      1.0  0.16402  0.45835  0.59617  1.0000
  H   H435      1.0  0.99876  0.47660  0.84503  1.0000
  H   H436      1.0  0.04194  0.63773  0.75115  1.0000
  C   C264      1.0  0.00808  0.49036  0.81090  1.0000
  H   H437      1.0  0.14717  0.34379  0.83973  1.0000
  S   S69       1.0  0.11022  0.33420  0.86496  1.0000
  C   C265      1.0  0.11761  0.62906  0.84028  1.0000
  H   H438      1.0  0.00151  0.41917  0.75450  1.0000
  S   S70       1.0  0.20856  0.65186  0.59505  1.0000
  H   H439      1.0  0.13955  0.62785  0.92228  1.0000
  H   H440      1.0  0.03057  0.53017  0.74634  1.0000
  N   N12       1.0  0.05920  0.38513  0.67021  1.0000
  C   C266      1.0  0.06478  0.37747  0.69103  1.0000
  C   C267      1.0  0.06942  0.37945  0.65112  1.0000
  C   C268      1.0  0.06378  0.40580  0.66789  1.0000
  C   C269      1.0  0.03892  0.37786  0.67074  1.0000
  C   C270      1.0  0.03127  0.35664  0.67517  1.0000
  C   C271      1.0  0.05319  0.37870  0.71288  1.0000
  C   C272      1.0  0.06034  0.41607  0.64625  1.0000
  C   C273      1.0  0.09040  0.38856  0.64564  1.0000
  C   C274      1.0  0.09949  0.38102  0.62697  1.0000
  C   C275      1.0  0.01040  0.35107  0.67762  1.0000
  C   C276      1.0  0.05967  0.36988  0.73272  1.0000
  C   C277      1.0  0.06720  0.43688  0.64429  1.0000
  H   H441      1.0  0.07918  0.38480  0.69157  1.0000
  H   H442      1.0  0.06474  0.36283  0.69138  1.0000
  H   H443      1.0  0.06751  0.36433  0.65426  1.0000
  H   H444      1.0  0.06363  0.38210  0.63596  1.0000
  H   H445      1.0  0.07826  0.41158  0.66963  1.0000
  H   H446      1.0  0.05567  0.40981  0.68160  1.0000
  H   H447      1.0  0.03102  0.38357  0.68302  1.0000
  H   H448      1.0  0.03524  0.38269  0.65478  1.0000
  H   H449      1.0  0.03479  0.35021  0.69041  1.0000
  H   H450      1.0  0.03683  0.35079  0.66127  1.0000
  H   H451      1.0  0.05445  0.39322  0.71415  1.0000
  H   H452      1.0  0.03849  0.37164  0.71420  1.0000
  H   H453      1.0  0.04549  0.41278  0.64568  1.0000
  H   H454      1.0  0.06744  0.41239  0.63155  1.0000
  H   H455      1.0  0.09348  0.40364  0.64029  1.0000
  H   H456      1.0  0.09700  0.38602  0.66007  1.0000
  H   H457      1.0  0.11441  0.38796  0.62331  1.0000
  H   H458      1.0  0.09757  0.36601  0.63170  1.0000
  H   H459      1.0  0.09371  0.38372  0.61185  1.0000
  H   H460      1.0  0.00601  0.35702  0.66267  1.0000
  H   H461      1.0  0.16949  0.53625  0.50774  1.0000
  H   H462      1.0  0.00414  0.35589  0.69204  1.0000
  H   H463      1.0  0.05726  0.35487  0.73312  1.0000
  H   H464      1.0  0.07448  0.37613  0.73227  1.0000
  H   H465      1.0  0.05197  0.37209  0.74808  1.0000
  H   H466      1.0  0.05917  0.44164  0.65735  1.0000
  H   H467      1.0  0.08198  0.44104  0.64540  1.0000
  H   H468      1.0  0.06547  0.44371  0.62815  1.0000
  H   H469      1.0  0.00603  0.62748  0.84746  1.0000
  H   H470      1.0  0.11118  0.65572  0.77649  1.0000
  N   N13       1.0  0.10970  0.64342  0.87508  1.0000
  H   H471      1.0  0.01668  0.61044  0.83881  1.0000
  C   C278      1.0  0.10317  0.63064  0.85944  1.0000
  C   C279      1.0  0.09415  0.65107  0.88332  1.0000
  C   C280      1.0  0.11460  0.63311  0.89472  1.0000
  C   C281      1.0  0.13156  0.62572  0.89025  1.0000
  C   C282      1.0  0.98858  0.53652  0.79650  1.0000
  C   C283      1.0  0.07570  0.63676  0.89400  1.0000
  Fe  Fe36      1.0  0.22214  0.48537  0.56323  1.0000
  H   H472      1.0  0.20934  0.56784  0.51572  1.0000
  C   C284      1.0  0.01914  0.62522  0.84000  1.0000
  H   H473      1.0  0.99047  0.46291  0.82504  1.0000
  C   C285      1.0  0.18852  0.33608  0.96356  1.0000
  H   H474      1.0  0.01535  0.61927  0.73935  1.0000
  H   H475      1.0  0.09609  0.61654  0.86866  1.0000
  H   H476      1.0  0.09265  0.63512  0.85108  1.0000
  C   C286      1.0  0.19250  0.63181  0.48731  1.0000
  H   H477      1.0  0.15585  0.51870  0.49571  1.0000
  C   C287      1.0  0.23488  0.37541  0.90708  1.0000
  H   H478      1.0  0.10305  0.62092  0.90251  1.0000
  H   H479      1.0  0.12169  0.64193  0.82788  1.0000
  H   H480      1.0  0.12873  0.61471  0.88026  1.0000
  H   H481      1.0  0.03859  0.63344  0.81010  1.0000
  C   C288      1.0  0.16599  0.53242  0.49200  1.0000
  H   H482      1.0  0.07712  0.62864  0.90949  1.0000
  H   H483      1.0  0.07081  0.62716  0.88289  1.0000
  H   H484      1.0  0.18004  0.48954  0.48344  1.0000
  H   H485      1.0  0.01524  0.59104  0.77966  1.0000
  H   H486      1.0  0.07874  0.34833  0.96481  1.0000
  C   C289      1.0  0.16915  0.32824  0.95926  1.0000
  H   H487      1.0  0.10673  0.59983  0.83992  1.0000
  H   H488      1.0  0.14814  0.61182  0.90810  1.0000
  H   H489      1.0  0.22224  0.36257  0.80512  1.0000
  C   C290      1.0  0.01048  0.59419  0.76397  1.0000
  N   N14       1.0  0.22175  0.33291  0.95486  1.0000
  C   C291      1.0  0.15065  0.37457  0.85934  1.0000
  S   S71       1.0  0.20053  0.62173  0.50961  1.0000
  H   H490      1.0  0.17310  0.33798  0.82296  1.0000
  N   N15       1.0  0.14112  0.56653  0.68930  1.0000
  C   C292      1.0  0.12543  0.56644  0.67700  1.0000
  C   C293      1.0  0.14233  0.54709  0.69604  1.0000
  C   C294      1.0  0.13706  0.57418  0.71001  1.0000
  C   C295      1.0  0.15900  0.57885  0.67620  1.0000
  C   C296      1.0  0.16588  0.57375  0.65408  1.0000
  C   C297      1.0  0.12284  0.58549  0.66833  1.0000
  C   C298      1.0  0.14916  0.57170  0.72770  1.0000
  C   C299      1.0  0.13779  0.53347  0.67989  1.0000
  C   C300      1.0  0.14276  0.51562  0.68700  1.0000
  C   C301      1.0  0.18220  0.58904  0.64084  1.0000
  C   C302      1.0  0.10496  0.58349  0.65939  1.0000
  C   C303      1.0  0.14584  0.58266  0.74587  1.0000
  H   H491      1.0  0.11238  0.55793  0.68766  1.0000
  H   H492      1.0  0.12677  0.55980  0.66237  1.0000
  H   H493      1.0  0.15614  0.54730  0.69996  1.0000
  H   H494      1.0  0.13240  0.54031  0.71148  1.0000
  H   H495      1.0  0.12261  0.56770  0.71832  1.0000
  H   H496      1.0  0.13843  0.58917  0.70604  1.0000
  H   H497      1.0  0.15829  0.59335  0.67313  1.0000
  H   H498      1.0  0.17023  0.57913  0.68577  1.0000
  H   H499      1.0  0.15507  0.57141  0.64387  1.0000
  H   H500      1.0  0.17069  0.56121  0.65719  1.0000
  H   H501      1.0  0.12231  0.59388  0.68135  1.0000
  H   H502      1.0  0.13429  0.59320  0.65484  1.0000
  H   H503      1.0  0.16394  0.57641  0.72071  1.0000
  H   H504      1.0  0.14588  0.55704  0.73555  1.0000
  H   H505      1.0  0.12286  0.52985  0.67962  1.0000
  H   H506      1.0  0.14492  0.53922  0.66289  1.0000
  H   H507      1.0  0.15776  0.51827  0.68634  1.0000
  H   H508      1.0  0.13556  0.50908  0.70396  1.0000
  H   H509      1.0  0.13845  0.50581  0.67583  1.0000
  H   H510      1.0  0.19310  0.59275  0.65079  1.0000
  H   H511      1.0  0.18820  0.58440  0.62614  1.0000
  H   H512      1.0  0.17780  0.60145  0.63524  1.0000
  H   H513      1.0  0.10449  0.57507  0.64620  1.0000
  H   H514      1.0  0.09304  0.57694  0.67277  1.0000
  H   H515      1.0  0.10381  0.59729  0.65252  1.0000
  H   H516      1.0  0.13124  0.57818  0.75386  1.0000
  H   H517      1.0  0.15428  0.58037  0.75855  1.0000
  H   H518      1.0  0.14959  0.59761  0.73909  1.0000
  N   N16       1.0  0.15829  0.35443  0.80546  1.0000
  C   C304      1.0  0.16316  0.37203  0.78887  1.0000
  C   C305      1.0  0.17488  0.34712  0.80681  1.0000
  H   H519      1.0  0.14909  0.33950  0.78012  1.0000
  C   C306      1.0  0.16167  0.37175  0.83839  1.0000
  C   C307      1.0  0.14737  0.38104  0.78573  1.0000
  C   C308      1.0  0.19389  0.36139  0.80305  1.0000
  H   H520      1.0  0.20741  0.43668  0.53863  1.0000
  C   C309      1.0  0.15430  0.39920  0.76951  1.0000
  H   H521      1.0  0.16884  0.36953  0.77250  1.0000
  H   H522      1.0  0.17420  0.38274  0.79307  1.0000
  H   H523      1.0  0.13121  0.34457  0.79744  1.0000
  H   H524      1.0  0.20028  0.65948  0.63843  1.0000
  C   C310      1.0  0.02607  0.63692  0.81711  1.0000
  H   H525      1.0  0.00170  0.44241  0.71333  1.0000
  H   H526      1.0  0.16648  0.38521  0.82722  1.0000
  H   H527      1.0  0.17359  0.36737  0.84314  1.0000
  H   H528      1.0  0.13646  0.37206  0.77903  1.0000
  H   H529      1.0  0.14125  0.38408  0.80147  1.0000
  H   H530      1.0  0.19784  0.36810  0.78550  1.0000
  H   H531      1.0  0.19397  0.37225  0.81313  1.0000
  C   C311      1.0  0.18286  0.33363  0.87411  1.0000
  H   H532      1.0  0.18865  0.52112  0.48545  1.0000
  H   H533      1.0  0.16475  0.40919  0.77573  1.0000
  H   H534      1.0  0.16026  0.39696  0.75320  1.0000
  H   H535      1.0  0.14273  0.40524  0.76739  1.0000
  H   H536      1.0  0.20585  0.34595  0.82620  1.0000
  H   H537      1.0  0.99101  0.54649  0.71164  1.0000
  H   H538      1.0  0.22243  0.36189  0.94987  1.0000
  H   H539      1.0  0.13639  0.35947  0.82738  1.0000
  H   H540      1.0  0.18085  0.64976  0.50494  1.0000
  C   C312      1.0  0.22769  0.35515  0.91769  1.0000
  C   C313      1.0  0.00252  0.43309  0.78264  1.0000
  C   C314      1.0  0.00404  0.54979  0.71710  1.0000
  C   C315      1.0  0.00913  0.53629  0.73039  1.0000
  H   H541      1.0  0.23390  0.37687  0.88935  1.0000
  H   H542      1.0  0.01957  0.65444  0.77565  1.0000
  C   C316      1.0  0.02177  0.43110  0.78360  1.0000
  H   H543      1.0  0.12902  0.52054  0.54652  1.0000
  S   S72       1.0  0.08209  0.33998  0.92109  1.0000
  H   H544      1.0  0.01107  0.55944  0.78049  1.0000
  C   C317      1.0  0.08709  0.33883  0.96392  1.0000
  C   C318      1.0  0.14413  0.34039  0.79747  1.0000
  H   H545      1.0  0.23673  0.36050  0.98238  1.0000
  H   H546      1.0  0.02941  0.62866  0.85083  1.0000
  S   S73       1.0  0.23512  0.50362  0.53125  1.0000
  H   H547      1.0  0.20641  0.58639  0.52934  1.0000
  H   H548      1.0  0.01475  0.65486  0.87039  1.0000
  C   C319      1.0  0.23054  0.56107  0.57533  1.0000
  C   C320      1.0  0.21786  0.43955  0.52349  1.0000
  C   C321      1.0  0.18341  0.64545  0.48928  1.0000
  H   H549      1.0  0.15303  0.55053  0.53685  1.0000
  C   C322      1.0  0.10986  0.61321  0.82867  1.0000
  H   H550      1.0  0.21329  0.35033  0.91535  1.0000
  H   H551      1.0  0.09718  0.61475  0.82280  1.0000
  H   H552      1.0  0.13010  0.62680  0.84587  1.0000
  H   H553      1.0  0.14603  0.36165  0.87163  1.0000
  C   C323      1.0  0.03740  0.62269  0.75728  1.0000
  C   C324      1.0  0.20871  0.35219  0.80854  1.0000
  H   H554      1.0  0.02569  0.43405  0.79949  1.0000
  H   H555      1.0  0.02221  0.41683  0.78228  1.0000
  H   H556      1.0  0.03191  0.44071  0.76998  1.0000
  H   H557      1.0  0.17625  0.33821  0.79425  1.0000
  H   H558      1.0  0.15381  0.33151  0.87744  1.0000
  H   H559      1.0  0.04780  0.63588  0.90768  1.0000
  H   H560      1.0  0.12115  0.53875  0.53287  1.0000
  H   H561      1.0  0.13711  0.65491  0.85581  1.0000
  H   H562      1.0  0.01832  0.58799  0.75217  1.0000
  H   H563      1.0  0.12002  0.61316  0.81420  1.0000
  H   H564      1.0  0.23400  0.46368  0.53249  1.0000
  H   H565      1.0  0.99686  0.56389  0.80338  1.0000
  C   C325      1.0  0.99749  0.43115  0.75972  1.0000
  N   N17       1.0  0.04026  0.49506  0.78798  1.0000
  C   C326      1.0  0.03356  0.48836  0.76806  1.0000
  C   C327      1.0  0.02635  0.48488  0.80810  1.0000
  C   C328      1.0  0.04253  0.51547  0.78530  1.0000
  C   C329      1.0  0.05844  0.49152  0.79046  1.0000
  C   C330      1.0  0.05913  0.47129  0.79165  1.0000
  C   C331      1.0  0.04732  0.49480  0.74608  1.0000
  C   C332      1.0  0.04875  0.52473  0.80466  1.0000
  C   C333      1.0  0.08796  0.65026  0.80245  1.0000
  C   C334      1.0  0.06077  0.64630  0.89971  1.0000
  C   C335      1.0  0.07825  0.46947  0.79390  1.0000
  C   C336      1.0  0.03891  0.48701  0.72735  1.0000
  C   C337      1.0  0.04711  0.54441  0.80192  1.0000
  H   H566      1.0  0.02121  0.49288  0.76511  1.0000
  H   H567      1.0  0.02906  0.47311  0.77083  1.0000
  H   H568      1.0  0.02284  0.46983  0.80800  1.0000
  H   H569      1.0  0.03218  0.48648  0.82336  1.0000
  H   H570      1.0  0.02963  0.51869  0.78210  1.0000
  H   H571      1.0  0.05300  0.52284  0.77060  1.0000
  H   H572      1.0  0.06935  0.50022  0.77695  1.0000
  H   H573      1.0  0.06272  0.49577  0.80574  1.0000
  H   H574      1.0  0.05562  0.46605  0.77665  1.0000
  H   H575      1.0  0.04946  0.46234  0.80609  1.0000
  H   H576      1.0  0.05132  0.50996  0.74148  1.0000
  H   H577      1.0  0.05983  0.49013  0.74705  1.0000
  H   H578      1.0  0.06335  0.52538  0.80506  1.0000
  H   H579      1.0  0.04053  0.51727  0.82076  1.0000
  S   S74       1.0  0.22005  0.33706  0.87055  1.0000
  C   C338      1.0  0.23611  0.56783  0.55277  1.0000
  C   C339      1.0  0.01709  0.61536  0.75655  1.0000
  S   S75       1.0  0.99441  0.51390  0.73938  1.0000
  S   S76       1.0  0.09097  0.34085  0.80840  1.0000
  H   H580      1.0  0.08232  0.47414  0.80905  1.0000
  H   H581      1.0  0.07841  0.45486  0.79484  1.0000
  H   H582      1.0  0.08847  0.47771  0.77944  1.0000
  H   H583      1.0  0.03528  0.47175  0.73064  1.0000
  H   H584      1.0  0.02651  0.49165  0.72512  1.0000
  H   H585      1.0  0.04903  0.49198  0.71182  1.0000
  H   H586      1.0  0.03256  0.54455  0.80307  1.0000
  H   H587      1.0  0.05290  0.55132  0.81495  1.0000
  H   H588      1.0  0.05488  0.55223  0.78572  1.0000
  N   N18       1.0  0.16450  0.55453  0.58005  1.0000
  C   C340      1.0  0.17757  0.56791  0.56124  1.0000
  C   C341      1.0  0.15661  0.56517  0.59571  1.0000
  C   C342      1.0  0.17556  0.54396  0.59226  1.0000
  C   C343      1.0  0.14954  0.54102  0.57254  1.0000
  C   C344      1.0  0.14243  0.54801  0.55172  1.0000
  C   C345      1.0  0.18917  0.55934  0.54559  1.0000
  C   C346      1.0  0.16541  0.53139  0.61437  1.0000
  C   C347      1.0  0.14529  0.57781  0.58675  1.0000
  C   C348      1.0  0.14053  0.58943  0.60361  1.0000
  Fe  Fe37      1.0  0.20143  0.63482  0.53986  1.0000
  C   C349      1.0  0.12566  0.53372  0.54815  1.0000
  C   C350      1.0  0.17688  0.51930  0.62340  1.0000
  H   H589      1.0  0.18747  0.57839  0.56768  1.0000
  H   H590      1.0  0.17037  0.57588  0.55111  1.0000
  H   H591      1.0  0.14714  0.55567  0.60998  1.0000
  H   H592      1.0  0.16789  0.57379  0.60235  1.0000
  H   H593      1.0  0.18799  0.55360  0.59574  1.0000
  H   H594      1.0  0.18069  0.53485  0.58191  1.0000
  H   H595      1.0  0.15422  0.52895  0.56868  1.0000
  H   H596      1.0  0.13761  0.53523  0.58617  1.0000
  H   H597      1.0  0.11420  0.53124  0.56214  1.0000
  H   H598      1.0  0.13871  0.56101  0.55251  1.0000
  H   H599      1.0  0.19969  0.55506  0.55388  1.0000
  H   H600      1.0  0.04004  0.61993  0.77430  1.0000
  H   H601      1.0  0.15220  0.52231  0.61238  1.0000
  H   H602      1.0  0.16280  0.53978  0.62700  1.0000
  H   H603      1.0  0.15273  0.58741  0.57149  1.0000
  H   H604      1.0  0.13212  0.56936  0.58376  1.0000
  H   H605      1.0  0.15314  0.59832  0.60748  1.0000
  H   H606      1.0  0.13246  0.59846  0.59692  1.0000
  H   H607      1.0  0.13224  0.58048  0.61895  1.0000
  C   C351      1.0  0.23618  0.45084  0.52762  1.0000
  H   H608      1.0  0.01549  0.63273  0.80696  1.0000
  H   H609      1.0  0.20947  0.34134  0.79852  1.0000
  C   C352      1.0  0.19906  0.57326  0.52494  1.0000
  H   H610      1.0  0.22412  0.56805  0.60738  1.0000
  H   H611      1.0  0.00950  0.62238  0.76736  1.0000
  H   H612      1.0  0.17951  0.50995  0.61194  1.0000
  H   H613      1.0  0.19017  0.52787  0.62601  1.0000
  H   H614      1.0  0.16934  0.51068  0.63934  1.0000
  H   H615      1.0  0.01024  0.50425  0.81534  1.0000
  C   C353      1.0  0.03038  0.65776  0.81826  1.0000
  H   H616      1.0  0.00686  0.44322  0.74812  1.0000
  C   C354      1.0  0.22362  0.65919  0.65364  1.0000
  C   C355      1.0  0.23105  0.59192  0.58183  1.0000
  S   S77       1.0  0.22927  0.64534  0.54818  1.0000
  H   H617      1.0  0.04948  0.65449  0.78019  1.0000
  H   H618      1.0  0.99744  0.59675  0.80571  1.0000
  C   C356      1.0  0.22830  0.57320  0.58993  1.0000
  S   S78       1.0  0.21669  0.48515  0.48542  1.0000
  Fe  Fe38      1.0  0.08930  0.32688  0.84335  1.0000
  H   H619      1.0  0.06480  0.65581  0.91129  1.0000
  H   H620      1.0  0.16904  0.32956  0.94132  1.0000
  C   C357      1.0  0.09163  0.33321  0.94387  1.0000
  C   C358      1.0  0.99669  0.55721  0.78873  1.0000
  H   H621      1.0  0.22663  0.38368  0.91491  1.0000
  C   C359      1.0  0.99327  0.38410  0.71617  1.0000
  H   H622      1.0  0.05827  0.65415  0.88463  1.0000
  H   H623      1.0  0.00519  0.33587  0.68014  1.0000
  H   H624      1.0  0.06714  0.64853  0.83010  1.0000
  H   H625      1.0  0.99536  0.58622  0.73070  1.0000
  H   H626      1.0  0.18756  0.33481  0.98162  1.0000
  H   H627      1.0  0.19918  0.55540  0.48666  1.0000
  H   H628      1.0  0.99670  0.53132  0.80804  1.0000
  H   H629      1.0  0.98886  0.52916  0.78231  1.0000
  H   H630      1.0  0.15987  0.33591  0.96635  1.0000
  H   H631      1.0  0.98983  0.45129  0.68058  1.0000
  C   C360      1.0  0.99351  0.39316  0.69511  1.0000
  S   S79       1.0  0.19141  0.65835  0.54943  1.0000
  H   H632      1.0  0.00522  0.65937  0.79756  1.0000
  H   H633      1.0  0.15964  0.54258  0.48401  1.0000
  H   H634      1.0  0.22810  0.54658  0.58152  1.0000
  H   H635      1.0  0.99309  0.42248  0.79585  1.0000
  H   H636      1.0  0.99567  0.65294  0.91919  1.0000
  S   S80       1.0  0.22773  0.60728  0.59955  1.0000
  H   H637      1.0  0.99745  0.32752  0.78780  1.0000
  C   C361      1.0  0.22546  0.33205  0.97816  1.0000
  N   N19       1.0  0.99021  0.58557  0.76575  1.0000
  C   C362      1.0  0.08031  0.65643  0.82071  1.0000
  C   C363      1.0  0.98719  0.44285  0.71577  1.0000
  H   H638      1.0  0.23607  0.34767  0.90864  1.0000
  C   C364      1.0  0.23637  0.59844  0.55930  1.0000
  C   C365      1.0  0.12541  0.65950  0.86318  1.0000
  H   H639      1.0  0.20052  0.87732  0.02260  1.0000
  C   C366      1.0  0.13452  0.79971  0.01625  1.0000
  C   C367      1.0  0.19908  0.75801  0.09272  1.0000
  C   C368      1.0  0.21423  0.70375  0.38963  1.0000
  C   C369      1.0  0.02079  0.70004  0.06038  1.0000
  S   S81       1.0  0.21731  0.84511  0.08490  1.0000
  C   C370      1.0  0.05991  0.66534  0.99168  1.0000
  H   H640      1.0  0.01908  0.70943  0.00355  1.0000
  Fe  Fe39      1.0  0.14375  0.75562  0.05100  1.0000
  S   S82       1.0  0.15147  0.72894  0.05627  1.0000
  S   S83       1.0  0.16933  0.78095  0.04237  1.0000
  Fe  Fe40      1.0  0.10243  0.73377  0.05492  1.0000
  S   S84       1.0  0.10833  0.70643  0.06066  1.0000
  S   S85       1.0  0.07248  0.73384  0.05544  1.0000
  Fe  Fe41      1.0  0.12667  0.71879  0.08284  1.0000
  S   S86       1.0  0.12614  0.70575  0.11780  1.0000
  Fe  Fe42      1.0  0.13224  0.71935  0.03351  1.0000
  S   S87       1.0  0.14013  0.70265  0.00866  1.0000
  S   S88       1.0  0.11960  0.74582  0.07899  1.0000
  S   S89       1.0  0.12575  0.74633  0.02618  1.0000
  N   N20       1.0  0.18362  0.75002  0.11207  1.0000
  C   C371      1.0  0.05386  0.71391  0.05721  1.0000
  C   C372      1.0  0.03580  0.71549  0.05943  1.0000
  C   C373      1.0  0.04174  0.68120  0.05707  1.0000
  C   C374      1.0  0.05670  0.69666  0.05581  1.0000
  H   H641      1.0  0.03338  0.72878  0.06032  1.0000
  H   H642      1.0  0.07049  0.69532  0.05324  1.0000
  H   H643      1.0  0.00703  0.70155  0.06188  1.0000
  H   H644      1.0  0.23539  0.84610  0.99056  1.0000
  C   C375      1.0  0.12384  0.68198  0.12500  1.0000
  H   H645      1.0  0.13397  0.66532  0.27562  1.0000
  H   H646      1.0  0.16554  0.73321  0.09460  1.0000
  H   H647      1.0  0.12127  0.68290  0.15961  1.0000
  H   H648      1.0  0.14813  0.70587  0.28248  1.0000
  C   C376      1.0  0.20435  0.82708  0.07294  1.0000
  C   C377      1.0  0.18609  0.81795  0.08293  1.0000
  C   C378      1.0  0.17527  0.80370  0.07411  1.0000
  C   C379      1.0  0.18252  0.79825  0.05508  1.0000
  C   C380      1.0  0.20078  0.80734  0.04512  1.0000
  C   C381      1.0  0.21162  0.82155  0.05398  1.0000
  H   H649      1.0  0.18020  0.82207  0.09754  1.0000
  H   H650      1.0  0.16121  0.79719  0.08183  1.0000
  H   H651      1.0  0.20665  0.80337  0.03039  1.0000
  H   H652      1.0  0.22555  0.82835  0.04602  1.0000
  H   H653      1.0  0.14076  0.67031  0.33382  1.0000
  H   H654      1.0  0.16510  0.69329  0.12305  1.0000
  H   H655      1.0  0.02624  0.67365  0.99231  1.0000
  C   C382      1.0  0.15918  0.68275  0.25651  1.0000
  C   C383      1.0  0.15374  0.75690  0.12967  1.0000
  C   C384      1.0  0.02368  0.68275  0.05927  1.0000
  C   C385      1.0  0.12149  0.67425  0.14725  1.0000
  C   C386      1.0  0.20022  0.68388  0.30311  1.0000
  H   H656      1.0  0.15744  0.75761  0.14616  1.0000
  H   H657      1.0  0.17066  0.66417  0.47240  1.0000
  H   H658      1.0  0.17353  0.68930  0.25779  1.0000
  H   H659      1.0  0.17563  0.66212  0.31460  1.0000
  N   N21       1.0  0.18028  0.83559  0.98604  1.0000
  H   H660      1.0  0.18772  0.74748  0.98837  1.0000
  C   C387      1.0  0.14179  0.77002  0.12611  1.0000
  H   H661      1.0  0.22854  0.66298  0.45886  1.0000
  C   C388      1.0  0.15161  0.80740  0.99847  1.0000
  H   H662      1.0  0.04848  0.72405  0.98581  1.0000
  H   H663      1.0  0.13740  0.76982  0.10988  1.0000
  H   H664      1.0  0.16225  0.69770  0.09467  1.0000
  H   H665      1.0  0.12933  0.76566  0.13905  1.0000
  C   C389      1.0  0.13609  0.70327  0.31637  1.0000
  H   H666      1.0  0.20924  0.71595  0.39199  1.0000
  S   S90       1.0  0.18405  0.66267  0.36259  1.0000
  H   H667      1.0  0.18549  0.84377  0.03016  1.0000
  H   H668      1.0  0.14527  0.74290  0.12939  1.0000
  H   H669      1.0  0.05252  0.71381  0.01133  1.0000
  H   H670      1.0  0.20323  0.78792  0.08967  1.0000
  H   H671      1.0  0.20024  0.68959  0.31856  1.0000
  H   H672      1.0  0.19359  0.76232  0.13890  1.0000
  H   H673      1.0  0.06185  0.68509  0.01386  1.0000
  H   H674      1.0  0.21807  0.70412  0.37174  1.0000
  C   C390      1.0  0.17304  0.73149  0.10841  1.0000
  C   C391      1.0  0.07588  0.71751  0.12748  1.0000
  H   H675      1.0  0.20556  0.83969  0.01524  1.0000
  H   H676      1.0  0.12628  0.80978  0.01711  1.0000
  H   H677      1.0  0.12639  0.68981  0.28999  1.0000
  H   H678      1.0  0.17867  0.77659  0.11426  1.0000
  C   C392      1.0  0.07986  0.74583  0.98974  1.0000
  H   H679      1.0  0.16640  0.68117  0.22208  1.0000
  H   H680      1.0  0.19362  0.75818  0.07699  1.0000
  H   H681      1.0  0.12660  0.69307  0.33000  1.0000
  C   C393      1.0  0.17126  0.76268  0.11193  1.0000
  H   H682      1.0  0.07283  0.67927  0.08715  1.0000
  H   H683      1.0  0.14905  0.70893  0.32217  1.0000
  C   C394      1.0  0.22781  0.78319  0.07428  1.0000
  H   H684      1.0  0.08517  0.66239  0.00245  1.0000
  H   H685      1.0  0.98831  0.69527  0.99678  1.0000
  H   H686      1.0  0.20308  0.73605  0.17109  1.0000
  H   H687      1.0  0.18153  0.71983  0.14894  1.0000
  H   H688      1.0  0.18713  0.74915  0.17854  1.0000
  H   H689      1.0  0.07548  0.73018  0.11664  1.0000
  H   H690      1.0  0.07773  0.69198  0.98880  1.0000
  H   H691      1.0  0.06461  0.68248  0.14635  1.0000
  H   H692      1.0  0.12493  0.72500  0.32639  1.0000
  H   H693      1.0  0.13660  0.73003  0.29829  1.0000
  C   C395      1.0  0.19697  0.84938  0.01607  1.0000
  H   H694      1.0  0.20300  0.69106  0.39644  1.0000
  H   H695      1.0  0.16697  0.76456  0.09555  1.0000
  H   H696      1.0  0.22200  0.66707  0.43225  1.0000
  H   H697      1.0  0.20980  0.67905  0.46813  1.0000
  C   C396      1.0  0.21106  0.77772  0.09261  1.0000
  H   H698      1.0  0.08154  0.70474  0.10009  1.0000
  C   C397      1.0  0.17244  0.69832  0.10584  1.0000
  H   H699      1.0  0.19183  0.72199  0.08592  1.0000
  C   C398      1.0  0.18066  0.73347  0.15254  1.0000
  H   H700      1.0  0.12589  0.78695  0.01235  1.0000
  H   H701      1.0  0.14936  0.78428  0.12697  1.0000
  H   H702      1.0  0.08984  0.71958  0.13158  1.0000
  H   H703      1.0  0.06574  0.71530  0.14276  1.0000
  C   C399      1.0  0.03137  0.68714  0.99724  1.0000
  C   C400      1.0  0.06308  0.68534  0.99583  1.0000
  H   H704      1.0  0.20871  0.74925  0.09193  1.0000
  H   H705      1.0  0.20546  0.74678  0.12979  1.0000
  C   C401      1.0  0.12414  0.67070  0.10914  1.0000
  H   H706      1.0  0.16893  0.82026  0.01899  1.0000
  H   H707      1.0  0.19488  0.71802  0.11409  1.0000
  C   C402      1.0  0.16820  0.68711  0.30165  1.0000
  C   C403      1.0  0.07243  0.68323  0.12972  1.0000
  H   H708      1.0  0.21358  0.69221  0.43196  1.0000
  H   H709      1.0  0.16212  0.72445  0.12265  1.0000
  H   H710      1.0  0.17502  0.69981  0.28937  1.0000
  H   H711      1.0  0.11070  0.66635  0.31677  1.0000
  C   C404      1.0  0.12673  0.69740  0.98841  1.0000
  H   H712      1.0  0.12979  0.66996  0.99113  1.0000
  C   C405      1.0  0.04524  0.66250  0.12103  1.0000
  C   C406      1.0  0.23084  0.70377  0.40071  1.0000
  C   C407      1.0  0.20870  0.86727  0.02092  1.0000
  H   H713      1.0  0.11405  0.71393  0.30605  1.0000
  H   H714      1.0  0.21597  0.77885  0.10843  1.0000
  H   H715      1.0  0.05756  0.69984  0.11125  1.0000
  H   H716      1.0  0.15255  0.69372  0.25173  1.0000
  C   C408      1.0  0.22612  0.70371  0.42572  1.0000
  H   H717      1.0  0.22177  0.71637  0.42776  1.0000
  C   C409      1.0  0.07138  0.70120  0.11552  1.0000
  H   H718      1.0  0.21367  0.86441  0.03661  1.0000
  Fe  Fe43      1.0  0.21326  0.66147  0.35460  1.0000
  H   H719      1.0  0.15895  0.79658  0.99802  1.0000
  N   N22       1.0  0.14878  0.67916  0.29850  1.0000
  C   C410      1.0  0.13965  0.69450  0.29573  1.0000
  C   C411      1.0  0.12739  0.71901  0.31136  1.0000
  H   H720      1.0  0.16827  0.69163  0.31787  1.0000
  H   H721      1.0  0.08696  0.68510  0.13183  1.0000
  C   C412      1.0  0.18078  0.67400  0.30090  1.0000
  H   H722      1.0  0.20657  0.69521  0.28894  1.0000
  H   H723      1.0  0.18098  0.68904  0.10162  1.0000
  C   C413      1.0  0.99783  0.68663  0.99928  1.0000
  H   H724      1.0  0.23516  0.69137  0.39769  1.0000
  H   H725      1.0  0.17969  0.72286  0.99590  1.0000
  H   H726      1.0  0.16797  0.66183  0.24092  1.0000
  H   H727      1.0  0.18073  0.72455  0.18703  1.0000
  H   H728      1.0  0.20551  0.70119  0.46603  1.0000
  H   H729      1.0  0.04298  0.67036  0.10571  1.0000
  C   C414      1.0  0.18454  0.71796  0.10324  1.0000
  H   H730      1.0  0.13833  0.79633  0.03256  1.0000
  C   C415      1.0  0.19153  0.74892  0.13300  1.0000
  H   H731      1.0  0.12610  0.67654  0.09191  1.0000
  H   H732      1.0  0.23691  0.77413  0.07698  1.0000
  H   H733      1.0  0.16598  0.73293  0.15601  1.0000
  C   C416      1.0  0.18844  0.73604  0.17355  1.0000
  C   C417      1.0  0.23368  0.66703  0.44092  1.0000
  H   H734      1.0  0.09474  0.75291  0.98593  1.0000
  C   C418      1.0  0.18983  0.85263  0.99418  1.0000
  C   C419      1.0  0.16420  0.82500  0.00371  1.0000
  C   C420      1.0  0.01761  0.69858  0.99315  1.0000
  H   H735      1.0  0.15553  0.83418  0.00822  1.0000
  H   H736      1.0  0.19360  0.81503  0.99742  1.0000
  H   H737      1.0  0.20873  0.67401  0.30351  1.0000
  N   N23       1.0  0.06554  0.66566  0.12107  1.0000
  C   C421      1.0  0.23465  0.70224  0.46294  1.0000
  S   S91       1.0  0.00564  0.66279  0.05919  1.0000
  H   H738      1.0  0.99489  0.68002  0.01685  1.0000
  H   H739      1.0  0.22079  0.87337  0.00767  1.0000
  H   H740      1.0  0.09097  0.67286  0.09814  1.0000
  C   C422      1.0  0.15980  0.67177  0.23784  1.0000
  C   C423      1.0  0.14829  0.67025  0.27836  1.0000
  H   H741      1.0  0.04421  0.66799  0.05577  1.0000
  H   H742      1.0  0.18064  0.86179  0.99614  1.0000
  C   C424      1.0  0.05630  0.71503  0.99319  1.0000
  H   H743      1.0  0.03876  0.66816  0.13459  1.0000
  H   H744      1.0  0.23563  0.79760  0.07409  1.0000
  C   C425      1.0  0.07682  0.72583  0.98665  1.0000
  H   H745      1.0  0.08508  0.71968  0.99724  1.0000
  H   H746      1.0  0.99532  0.67581  0.98894  1.0000
  N   N24       1.0  0.05104  0.69631  0.98658  1.0000
  S   S92       1.0  0.23517  0.68656  0.33589  1.0000
  H   H747      1.0  0.07464  0.74655  0.00701  1.0000
  H   H748      1.0  0.14579  0.66415  0.23622  1.0000
  C   C426      1.0  0.07601  0.66821  0.09806  1.0000
  C   C427      1.0  0.21420  0.69277  0.47252  1.0000
  H   H749      1.0  0.08425  0.66756  0.05328  1.0000
  C   C428      1.0  0.13903  0.66480  0.31837  1.0000
  H   H750      1.0  0.22353  0.78234  0.05805  1.0000
  H   H751      1.0  0.03031  0.68373  0.01533  1.0000
  H   H752      1.0  0.18179  0.66873  0.28521  1.0000
  H   H753      1.0  0.23682  0.71654  0.46632  1.0000
  H   H754      1.0  0.14680  0.81000  0.98271  1.0000
  H   H755      1.0  0.23589  0.72095  0.61760  1.0000
  H   H756      1.0  0.17694  0.80372  0.96549  1.0000
  C   C429      1.0  0.13818  0.77659  0.95439  1.0000
  H   H757      1.0  0.14007  0.70120  0.91552  1.0000
  H   H758      1.0  0.17298  0.67821  0.58235  1.0000
  S   S93       1.0  0.20948  0.82934  0.85235  1.0000
  H   H759      1.0  0.06543  0.72183  0.82600  1.0000
  Fe  Fe44      1.0  0.07361  0.72111  0.87691  1.0000
  S   S94       1.0  0.08291  0.69563  0.87668  1.0000
  S   S95       1.0  0.04351  0.71974  0.87553  1.0000
  Fe  Fe45      1.0  0.11286  0.74499  0.87958  1.0000
  S   S96       1.0  0.12425  0.72056  0.87905  1.0000
  S   S97       1.0  0.13015  0.77178  0.88820  1.0000
  Fe  Fe46      1.0  0.10737  0.71344  0.85293  1.0000
  S   S98       1.0  0.11888  0.70332  0.82293  1.0000
  Fe  Fe47      1.0  0.09867  0.70498  0.90273  1.0000
  S   S99       1.0  0.09817  0.68288  0.93084  1.0000
  S   S100      1.0  0.09757  0.73905  0.85149  1.0000
  S   S101      1.0  0.08773  0.72935  0.90501  1.0000
  C   C430      1.0  0.02601  0.70099  0.87091  1.0000
  C   C431      1.0  0.02738  0.68288  0.87344  1.0000
  H   H760      1.0  0.08155  0.68802  0.73379  1.0000
  H   H761      1.0  0.08292  0.67793  0.84006  1.0000
  C   C432      1.0  0.19114  0.81237  0.96368  1.0000
  C   C433      1.0  0.01018  0.70452  0.86437  1.0000
  H   H762      1.0  0.03950  0.67989  0.87829  1.0000
  N   N25       1.0  0.17239  0.75230  0.92655  1.0000
  C   C434      1.0  0.10515  0.66037  0.79060  1.0000
  H   H763      1.0  0.00917  0.71852  0.86180  1.0000
  H   H764      1.0  0.10671  0.71679  0.94922  1.0000
  H   H765      1.0  0.08205  0.72579  0.96921  1.0000
  H   H766      1.0  0.17006  0.72359  0.89716  1.0000
  C   C435      1.0  0.10661  0.68309  0.81495  1.0000
  C   C436      1.0  0.19971  0.77813  0.90273  1.0000
  H   H767      1.0  0.16702  0.68817  0.70620  1.0000
  C   C437      1.0  0.17325  0.84181  0.96567  1.0000
  C   C438      1.0  0.16262  0.76660  0.93146  1.0000
  H   H768      1.0  0.05047  0.68926  0.83071  1.0000
  H   H769      1.0  0.16090  0.73479  0.97145  1.0000
  C   C439      1.0  0.10893  0.68899  0.95296  1.0000
  H   H770      1.0  0.15519  0.69912  0.87348  1.0000
  C   C440      1.0  0.20379  0.79973  0.96387  1.0000
  C   C441      1.0  0.16658  0.72018  0.91539  1.0000
  H   H771      1.0  0.12914  0.77372  0.97067  1.0000
  C   C442      1.0  0.11514  0.67575  0.96514  1.0000
  C   C443      1.0  0.22984  0.89531  0.94545  1.0000
  H   H772      1.0  0.16998  0.69859  0.60967  1.0000
  H   H773      1.0  0.20326  0.79296  0.94926  1.0000
  C   C444      1.0  0.18746  0.81337  0.86283  1.0000
  C   C445      1.0  0.18062  0.79951  0.85091  1.0000
  C   C446      1.0  0.16329  0.78662  0.85839  1.0000
  C   C447      1.0  0.15223  0.78767  0.87769  1.0000
  C   C448      1.0  0.15899  0.80167  0.88950  1.0000
  C   C449      1.0  0.17650  0.81427  0.88230  1.0000
  H   H774      1.0  0.18883  0.79869  0.83574  1.0000
  H   H775      1.0  0.15839  0.77607  0.84899  1.0000
  H   H776      1.0  0.15058  0.80278  0.90437  1.0000
  H   H777      1.0  0.18140  0.82489  0.89155  1.0000
  Fe  Fe48      1.0  0.23126  0.84929  0.86630  1.0000
  H   H778      1.0  0.19344  0.78975  0.90260  1.0000
  H   H779      1.0  0.22160  0.77195  0.88139  1.0000
  H   H780      1.0  0.19481  0.69004  0.67990  1.0000
  H   H781      1.0  0.19041  0.71538  0.59476  1.0000
  C   C450      1.0  0.05146  0.66876  0.78332  1.0000
  H   H782      1.0  0.16755  0.86080  0.92725  1.0000
  H   H783      1.0  0.20003  0.73303  0.97554  1.0000
  H   H784      1.0  0.19564  0.68457  0.50380  1.0000
  C   C451      1.0  0.18191  0.69031  0.65008  1.0000
  C   C452      1.0  0.18762  0.85603  0.94748  1.0000
  C   C453      1.0  0.01808  0.66544  0.78522  1.0000
  H   H785      1.0  0.12949  0.77604  0.94146  1.0000
  C   C454      1.0  0.99604  0.69034  0.86009  1.0000
  H   H786      1.0  0.17935  0.84419  0.91934  1.0000
  C   C455      1.0  0.15846  0.73509  0.92425  1.0000
  H   H787      1.0  0.21487  0.70401  0.50293  1.0000
  H   H788      1.0  0.14916  0.72866  0.94005  1.0000
  H   H789      1.0  0.12111  0.66683  0.84899  1.0000
  H   H790      1.0  0.20734  0.77785  0.91658  1.0000
  C   C456      1.0  0.18089  0.85737  0.92552  1.0000
  H   H791      1.0  0.00436  0.72463  0.90445  1.0000
  C   C457      1.0  0.03677  0.68999  0.80172  1.0000
  H   H792      1.0  0.19234  0.74966  0.89986  1.0000
  H   H793      1.0  0.14923  0.73855  0.91293  1.0000
  C   C458      1.0  0.19539  0.69031  0.61225  1.0000
  H   H794      1.0  0.14677  0.69538  0.84851  1.0000
  C   C459      1.0  0.17443  0.73363  0.96412  1.0000
  C   C460      1.0  0.11450  0.67667  0.79698  1.0000
  C   C461      1.0  0.21361  0.78226  0.88144  1.0000
  H   H795      1.0  0.21043  0.72115  0.64605  1.0000
  H   H796      1.0  0.15898  0.69101  0.91419  1.0000
  H   H797      1.0  0.13886  0.74878  0.95526  1.0000
  C   C462      1.0  0.05278  0.69725  0.81389  1.0000
  C   C463      1.0  0.05458  0.71727  0.81624  1.0000
  C   C464      1.0  0.01321  0.66865  0.86912  1.0000
  H   H798      1.0  0.02006  0.70539  0.97573  1.0000
  C   C465      1.0  0.18350  0.69447  0.67351  1.0000
  N   N26       1.0  0.03438  0.67079  0.79663  1.0000
  H   H799      1.0  0.15398  0.68877  0.68426  1.0000
  H   H800      1.0  0.08746  0.68412  0.76068  1.0000
  H   H801      1.0  0.06006  0.69597  0.76178  1.0000
  C   C466      1.0  0.05840  0.68130  0.76062  1.0000
  H   H802      1.0  0.15501  0.76936  0.91803  1.0000
  H   H803      1.0  0.17925  0.71944  0.92178  1.0000
  C   C467      1.0  0.01372  0.68093  0.76981  1.0000
  H   H804      1.0  0.16130  0.68206  0.85894  1.0000
  C   C468      1.0  0.18041  0.69305  0.57852  1.0000
  H   H805      1.0  0.04877  0.67714  0.74930  1.0000
  H   H806      1.0  0.20827  0.69154  0.60075  1.0000
  H   H807      1.0  0.06849  0.69953  0.95512  1.0000
  H   H808      1.0  0.03893  0.70023  0.78655  1.0000
  H   H809      1.0  0.20788  0.83326  0.97724  1.0000
  C   C469      1.0  0.16582  0.68463  0.68968  1.0000
  H   H810      1.0  0.15006  0.69673  0.93970  1.0000
  H   H811      1.0  0.02392  0.69076  0.81192  1.0000
  H   H812      1.0  0.23313  0.66115  0.63785  1.0000
  H   H813      1.0  0.22325  0.79610  0.87988  1.0000
  H   H814      1.0  0.04154  0.71882  0.82490  1.0000
  H   H815      1.0  0.22218  0.72183  0.59647  1.0000
  H   H816      1.0  0.16699  0.83001  0.95807  1.0000
  C   C470      1.0  0.04728  0.68687  0.92676  1.0000
  H   H817      1.0  0.17231  0.71982  0.95947  1.0000
  H   H818      1.0  0.18795  0.67545  0.61532  1.0000
  H   H819      1.0  0.00842  0.69017  0.77973  1.0000
  H   H820      1.0  0.02591  0.68937  0.75791  1.0000
  H   H821      1.0  0.21740  0.89996  0.94981  1.0000
  C   C471      1.0  0.21052  0.69053  0.49756  1.0000
  C   C472      1.0  0.13325  0.67405  0.87702  1.0000
  S   S102      1.0  0.23396  0.69748  0.54972  1.0000
  C   C473      1.0  0.05399  0.69872  0.96177  1.0000
  S   S103      1.0  0.22884  0.86910  0.88967  1.0000
  H   H822      1.0  0.18596  0.70945  0.67343  1.0000
  C   C474      1.0  0.11138  0.70647  0.95871  1.0000
  H   H823      1.0  0.05202  0.71211  0.95448  1.0000
  H   H824      1.0  0.19614  0.74502  0.93649  1.0000
  H   H825      1.0  0.15648  0.76257  0.96738  1.0000
  C   C475      1.0  0.15303  0.70113  0.92159  1.0000
  Fe  Fe49      1.0  0.21845  0.66751  0.56051  1.0000
  H   H826      1.0  0.23076  0.88484  0.95914  1.0000
  H   H827      1.0  0.21863  0.75210  0.60396  1.0000
  H   H828      1.0  0.16318  0.66948  0.69109  1.0000
  H   H829      1.0  0.04661  0.70064  0.91907  1.0000
  H   H830      1.0  0.05839  0.72631  0.79987  1.0000
  H   H831      1.0  0.14757  0.79063  0.95200  1.0000
  C   C476      1.0  0.15016  0.68848  0.86363  1.0000
  C   C477      1.0  0.22962  0.74655  0.60968  1.0000
  H   H832      1.0  0.06143  0.68572  0.92255  1.0000
  C   C478      1.0  0.20674  0.71700  0.63048  1.0000
  C   C479      1.0  0.21386  0.68785  0.64114  1.0000
  H   H833      1.0  0.20663  0.78222  0.86696  1.0000
  C   C480      1.0  0.18382  0.74887  0.94380  1.0000
  H   H834      1.0  0.12785  0.68442  0.78785  1.0000
  C   C481      1.0  0.18483  0.75971  0.90448  1.0000
  C   C482      1.0  0.18360  0.70046  0.59961  1.0000
  H   H835      1.0  0.22553  0.69017  0.62741  1.0000
  C   C483      1.0  0.99747  0.67228  0.86222  1.0000
  H   H836      1.0  0.12301  0.68136  0.88218  1.0000
  H   H837      1.0  0.21819  0.80774  0.96310  1.0000
  H   H838      1.0  0.17544  0.67531  0.65131  1.0000
  H   H839      1.0  0.23696  0.92444  0.96695  1.0000
  H   H840      1.0  0.07619  0.66491  0.74889  1.0000
  C   C484      1.0  0.07702  0.67943  0.75042  1.0000
  H   H841      1.0  0.19013  0.86988  0.95212  1.0000
  H   H842      1.0  0.19470  0.82127  0.94724  1.0000
  N   N27       1.0  0.19947  0.69640  0.63353  1.0000
  H   H843      1.0  0.20089  0.85252  0.94512  1.0000
  H   H844      1.0  0.19594  0.72383  0.62690  1.0000
  H   H845      1.0  0.17164  0.69708  0.64452  1.0000
  C   C485      1.0  0.14898  0.76226  0.95335  1.0000
  H   H846      1.0  0.18930  0.76179  0.94992  1.0000
  C   C486      1.0  0.20744  0.66691  0.65006  1.0000
  H   H847      1.0  0.17658  0.76163  0.89134  1.0000
  H   H848      1.0  0.17251  0.77987  0.93188  1.0000
  C   C487      1.0  0.08936  0.67298  0.82659  1.0000
  H   H849      1.0  0.22857  0.88876  0.93068  1.0000
  H   H850      1.0  0.23117  0.66606  0.66556  1.0000
  H   H851      1.0  0.19365  0.69502  0.56747  1.0000
  H   H852      1.0  0.06608  0.69675  0.80484  1.0000
  H   H853      1.0  0.17199  0.70050  0.56974  1.0000
  H   H854      1.0  0.19097  0.86835  0.91321  1.0000
  H   H855      1.0  0.21999  0.69471  0.65407  1.0000
  H   H856      1.0  0.06278  0.67085  0.79278  1.0000
  C   C488      1.0  0.04148  0.68390  0.95162  1.0000
  C   C489      1.0  0.22417  0.72560  0.61268  1.0000
  H   H857      1.0  0.23241  0.75114  0.62534  1.0000
  H   H858      1.0  0.13738  0.66768  0.89186  1.0000
  C   C490      1.0  0.99897  0.67298  0.75686  1.0000
  H   H859      1.0  0.19793  0.66381  0.66600  1.0000
  C   C491      1.0  0.11981  0.71049  0.97690  1.0000
  H   H860      1.0  0.02708  0.68456  0.95480  1.0000
  H   H861      1.0  0.03798  0.67629  0.91991  1.0000
  H   H862      1.0  0.16192  0.84816  0.97006  1.0000
  H   H863      1.0  0.21792  0.68109  0.50492  1.0000
  C   C492      1.0  0.19363  0.82425  0.98194  1.0000
  H   H864      1.0  0.11328  0.66223  0.96082  1.0000
  H   H865      1.0  0.99078  0.69170  0.91258  1.0000
  H   H866      1.0  0.99575  0.68435  0.74643  1.0000
  H   H867      1.0  0.04201  0.66067  0.82726  1.0000
  H   H868      1.0  0.06512  0.66543  0.97415  1.0000
  H   H869      1.0  0.07282  0.75313  0.97857  1.0000
  H   H870      1.0  0.09143  0.66038  0.86962  1.0000
  H   H871      1.0  0.00381  0.66410  0.74603  1.0000
  H   H872      1.0  0.04173  0.66983  0.95841  1.0000
  H   H873      1.0  0.20207  0.86074  0.98188  1.0000
  H   H874      1.0  0.19947  0.78905  0.97896  1.0000
  C   C493      1.0  0.18627  0.73437  0.98200  1.0000
  C   C494      1.0  0.12440  0.68009  0.98239  1.0000
  H   H875      1.0  0.12149  0.72384  0.98163  1.0000
  C   C495      1.0  0.98919  0.71965  0.90678  1.0000
  H   H876      1.0  0.01856  0.65988  0.82891  1.0000
  H   H877      1.0  0.38348  0.13247  0.12856  1.0000
  Fe  Fe50      1.0  0.35132  0.03272  0.07692  1.0000
  S   S104      1.0  0.37754  0.04110  0.05226  1.0000
  H   H878      1.0  0.35979  0.01064  0.16971  1.0000
  Fe  Fe51      1.0  0.35647  0.07355  0.08333  1.0000
  S   S105      1.0  0.38285  0.08357  0.05952  1.0000
  S   S106      1.0  0.34532  0.09544  0.09772  1.0000
  Fe  Fe52      1.0  0.36827  0.06518  0.03874  1.0000
  S   S107      1.0  0.36754  0.07673  0.00384  1.0000
  Fe  Fe53      1.0  0.38938  0.05850  0.07586  1.0000
  S   S108      1.0  0.41776  0.05870  0.08249  1.0000
  S   S109      1.0  0.34122  0.05605  0.06159  1.0000
  S   S110      1.0  0.36386  0.04923  0.10138  1.0000
  H   H879      1.0  0.47234  0.19692  0.35741  1.0000
  H   H880      1.0  0.42721  0.16688  0.00915  1.0000
  H   H881      1.0  0.42444  0.02461  0.12891  1.0000
  Fe  Fe54      1.0  0.47336  0.02853  0.21751  1.0000
  S   S111      1.0  0.47303  0.03351  0.18146  1.0000
  C   C496      1.0  0.40692  0.19911  0.01835  1.0000
  Fe  Fe55      1.0  0.46328  0.05801  0.18785  1.0000
  S   S112      1.0  0.43796  0.06435  0.17706  1.0000
  C   C497      1.0  0.35995  0.09897  0.15060  1.0000
  S   S113      1.0  0.46197  0.05208  0.22450  1.0000
  H   H882      1.0  0.43842  0.25837  0.28954  1.0000
  H   H883      1.0  0.48325  0.22246  0.30013  1.0000
  C   C498      1.0  0.40644  0.16376  0.13810  1.0000
  H   H884      1.0  0.43029  0.18722  0.13499  1.0000
  Fe  Fe56      1.0  0.36085  0.23573  0.09018  1.0000
  S   S114      1.0  0.38484  0.26058  0.07789  1.0000
  S   S115      1.0  0.33179  0.23787  0.09945  1.0000
  Fe  Fe57      1.0  0.38407  0.20809  0.08585  1.0000
  S   S116      1.0  0.40961  0.23153  0.07374  1.0000
  S   S117      1.0  0.39025  0.18016  0.08436  1.0000
  Fe  Fe58      1.0  0.39965  0.24603  0.10012  1.0000
  S   S118      1.0  0.41578  0.25726  0.12625  1.0000
  Fe  Fe59      1.0  0.39253  0.24386  0.05274  1.0000
  S   S119      1.0  0.40300  0.25495  0.01629  1.0000
  S   S120      1.0  0.37509  0.22166  0.11378  1.0000
  S   S121      1.0  0.36760  0.22004  0.06360  1.0000
  H   H885      1.0  0.36913  0.17236  0.00353  1.0000
  C   C499      1.0  0.46972  0.25313  0.30464  1.0000
  H   H886      1.0  0.37583  0.28447  0.12656  1.0000
  C   C500      1.0  0.41719  0.12113  0.11786  1.0000
  H   H887      1.0  0.35831  0.09980  0.16835  1.0000
  H   H888      1.0  0.30913  0.05602  0.01898  1.0000
  H   H889      1.0  0.33905  0.16932  0.02837  1.0000
  C   C501      1.0  0.38435  0.05304  0.98530  1.0000
  C   C502      1.0  0.42126  0.31830  0.20558  1.0000
  C   C503      1.0  0.37674  0.18257  0.01252  1.0000
  H   H890      1.0  0.41056  0.12310  0.10321  1.0000
  H   H891      1.0  0.41059  0.15165  0.99764  1.0000
  C   C504      1.0  0.39090  0.24509  0.99671  1.0000
  C   C505      1.0  0.37288  0.23409  0.00280  1.0000
  H   H892      1.0  0.43149  0.23954  0.31269  1.0000
  H   H893      1.0  0.45720  0.02571  0.14346  1.0000
  C   C506      1.0  0.36631  0.17822  0.03658  1.0000
  H   H894      1.0  0.36611  0.23149  0.01966  1.0000
  C   C507      1.0  0.39785  0.30624  0.02446  1.0000
  C   C508      1.0  0.42978  0.27873  0.13023  1.0000
  C   C509      1.0  0.43432  0.29478  0.11444  1.0000
  C   C510      1.0  0.44575  0.31128  0.11833  1.0000
  C   C511      1.0  0.45272  0.31207  0.13806  1.0000
  C   C512      1.0  0.44804  0.29609  0.15394  1.0000
  C   C513      1.0  0.43668  0.27958  0.15001  1.0000
  H   H895      1.0  0.42926  0.29440  0.09911  1.0000
  H   H896      1.0  0.38513  0.99767  0.11180  1.0000
  H   H897      1.0  0.45326  0.29639  0.16918  1.0000
  H   H898      1.0  0.43332  0.26729  0.16236  1.0000
  C   C514      1.0  0.31658  0.28888  0.06848  1.0000
  C   C515      1.0  0.33488  0.28832  0.06611  1.0000
  C   C516      1.0  0.33957  0.27277  0.07551  1.0000
  C   C517      1.0  0.32604  0.25763  0.08776  1.0000
  C   C518      1.0  0.30772  0.25839  0.09092  1.0000
  C   C519      1.0  0.30297  0.27397  0.08124  1.0000
  H   H899      1.0  0.34555  0.30010  0.05717  1.0000
  H   H900      1.0  0.35369  0.27256  0.07341  1.0000
  H   H901      1.0  0.29717  0.24676  0.10055  1.0000
  H   H902      1.0  0.28880  0.27426  0.08323  1.0000
  H   H903      1.0  0.34637  0.19348  0.03033  1.0000
  H   H904      1.0  0.43363  0.13574  0.15179  1.0000
  C   C520      1.0  0.41492  0.14031  0.02912  1.0000
  H   H905      1.0  0.37282  0.03238  0.17475  1.0000
  C   C521      1.0  0.43818  0.12682  0.10975  1.0000
  H   H906      1.0  0.35454  0.26104  0.00800  1.0000
  H   H907      1.0  0.45845  0.11976  0.08716  1.0000
  C   C522      1.0  0.39967  0.00449  0.11233  1.0000
  S   S122      1.0  0.46269  0.99887  0.23478  1.0000
  S   S123      1.0  0.31169  0.30808  0.05392  1.0000
  C   C523      1.0  0.38020  0.10421  0.14030  1.0000
  H   H908      1.0  0.38596  0.02611  0.13944  1.0000
  C   C524      1.0  0.41646  0.18413  0.13045  1.0000
  H   H909      1.0  0.43803  0.00906  0.20680  1.0000
  H   H910      1.0  0.40260  0.19727  0.03644  1.0000
  C   C525      1.0  0.35757  0.11919  0.09278  1.0000
  C   C526      1.0  0.34858  0.13231  0.09869  1.0000
  C   C527      1.0  0.35815  0.15112  0.09587  1.0000
  C   C528      1.0  0.37692  0.15695  0.08745  1.0000
  C   C529      1.0  0.38585  0.14383  0.08156  1.0000
  C   C530      1.0  0.37627  0.12517  0.08399  1.0000
  H   H911      1.0  0.33414  0.12788  0.10563  1.0000
  H   H912      1.0  0.35106  0.16101  0.10059  1.0000
  H   H913      1.0  0.40037  0.14813  0.07531  1.0000
  H   H914      1.0  0.38351  0.11533  0.07969  1.0000
  H   H915      1.0  0.36235  0.30551  0.10555  1.0000
  C   C531      1.0  0.33467  0.29667  0.12541  1.0000
  H   H916      1.0  0.46990  0.01502  0.12526  1.0000
  H   H917      1.0  0.39950  0.16652  0.03961  1.0000
  H   H918      1.0  0.37297  0.18811  0.04635  1.0000
  H   H919      1.0  0.37060  0.14056  0.99261  1.0000
  H   H920      1.0  0.30323  0.00106  0.04731  1.0000
  H   H921      1.0  0.36054  0.02435  0.01556  1.0000
  C   C532      1.0  0.42352  0.06145  0.10847  1.0000
  C   C533      1.0  0.44113  0.06118  0.11214  1.0000
  C   C534      1.0  0.44583  0.06215  0.13307  1.0000
  C   C535      1.0  0.43297  0.06366  0.15036  1.0000
  C   C536      1.0  0.41555  0.06460  0.14647  1.0000
  C   C537      1.0  0.41081  0.06345  0.12562  1.0000
  H   H922      1.0  0.45113  0.06000  0.09879  1.0000
  H   H923      1.0  0.45938  0.06174  0.13583  1.0000
  H   H924      1.0  0.40556  0.06583  0.15979  1.0000
  H   H925      1.0  0.39727  0.06389  0.12291  1.0000
  C   C538      1.0  0.40394  0.00756  0.07090  1.0000
  C   C539      1.0  0.36071  0.28194  0.12924  1.0000
  H   H926      1.0  0.34437  0.12640  0.02283  1.0000
  H   H927      1.0  0.29850  0.27841  0.13771  1.0000
  N   N28       1.0  0.40463  0.99796  0.13407  1.0000
  H   H928      1.0  0.42372  0.11728  0.19764  1.0000
  H   H929      1.0  0.42293  0.01089  0.15467  1.0000
  H   H930      1.0  0.44307  0.14141  0.10150  1.0000
  H   H931      1.0  0.45590  0.22631  0.29687  1.0000
  H   H932      1.0  0.46597  0.22460  0.33889  1.0000
  H   H933      1.0  0.48045  0.25551  0.34824  1.0000
  N   N29       1.0  0.41027  0.13109  0.13510  1.0000
  C   C540      1.0  0.34623  0.27076  0.01120  1.0000
  C   C541      1.0  0.32612  0.26163  0.00949  1.0000
  H   H934      1.0  0.38547  0.15384  0.02362  1.0000
  H   H935      1.0  0.40150  0.10270  0.17499  1.0000
  H   H936      1.0  0.30565  0.30296  0.10651  1.0000
  C   C542      1.0  0.31958  0.24215  0.02282  1.0000
  H   H937      1.0  0.38468  0.12796  0.15687  1.0000
  H   H938      1.0  0.41974  0.14490  0.04395  1.0000
  H   H939      1.0  0.44215  0.11351  0.17888  1.0000
  C   C543      1.0  0.48004  0.22314  0.33521  1.0000
  H   H940      1.0  0.33022  0.29829  0.99944  1.0000
  N   N30       1.0  0.39673  0.18278  0.00954  1.0000
  H   H941      1.0  0.34112  0.03759  0.00120  1.0000
  H   H942      1.0  0.41306  0.13589  0.16805  1.0000
  H   H943      1.0  0.34604  0.27174  0.02881  1.0000
  H   H944      1.0  0.40385  0.02220  0.06894  1.0000
  C   C544      1.0  0.35676  0.01023  0.01190  1.0000
  H   H945      1.0  0.42564  0.01172  0.08938  1.0000
  H   H946      1.0  0.34213  0.30205  0.02124  1.0000
  H   H947      1.0  0.40326  0.21179  0.01178  1.0000
  H   H948      1.0  0.43094  0.15719  0.12411  1.0000
  C   C545      1.0  0.37463  0.29558  0.00025  1.0000
  H   H949      1.0  0.38978  0.99884  0.07192  1.0000
  H   H950      1.0  0.32051  0.24239  0.04043  1.0000
  H   H951      1.0  0.30508  0.23594  0.02170  1.0000
  H   H952      1.0  0.32797  0.23339  0.01643  1.0000
  H   H953      1.0  0.48376  0.32350  0.47209  1.0000
  H   H954      1.0  0.47998  0.27687  0.33259  1.0000
  H   H955      1.0  0.30084  0.03194  0.99579  1.0000
  C   C546      1.0  0.45756  0.02014  0.12795  1.0000
  H   H956      1.0  0.32447  0.26077  0.99229  1.0000
  H   H957      1.0  0.42490  0.13372  0.02126  1.0000
  H   H958      1.0  0.32945  0.06735  0.99878  1.0000
  H   H959      1.0  0.29937  0.29384  0.15718  1.0000
  N   N31       1.0  0.32774  0.31365  0.12347  1.0000
  H   H960      1.0  0.34927  0.21855  0.99181  1.0000
  C   C547      1.0  0.38986  0.99911  0.15211  1.0000
  H   H961      1.0  0.41266  0.00572  0.05611  1.0000
  H   H962      1.0  0.43246  0.21884  0.04081  1.0000
  C   C548      1.0  0.31528  0.04005  0.99388  1.0000
  C   C549      1.0  0.44343  0.11521  0.09312  1.0000
  H   H963      1.0  0.38219  0.00581  0.01984  1.0000
  H   H964      1.0  0.43378  0.20544  0.99660  1.0000
  C   C550      1.0  0.41604  0.10892  0.16728  1.0000
  H   H965      1.0  0.47026  0.26777  0.29870  1.0000
  Fe  Fe60      1.0  0.28871  0.32133  0.06259  1.0000
  C   C551      1.0  0.34428  0.30253  0.00323  1.0000
  C   C552      1.0  0.38956  0.12473  0.14061  1.0000
  C   C553      1.0  0.29486  0.00213  0.03434  1.0000
  H   H966      1.0  0.30132  0.31916  0.12237  1.0000
  C   C554      1.0  0.37321  0.01813  0.17323  1.0000
  H   H967      1.0  0.37802  0.11980  0.99580  1.0000
  C   C555      1.0  0.43465  0.99423  0.21076  1.0000
  H   H968      1.0  0.43261  0.23266  0.01476  1.0000
  H   H969      1.0  0.39123  0.05250  0.99932  1.0000
  H   H970      1.0  0.40143  0.12987  0.03409  1.0000
  H   H971      1.0  0.42929  0.23518  0.28538  1.0000
  C   C556      1.0  0.35576  0.11986  0.02039  1.0000
  H   H972      1.0  0.32397  0.03096  0.02463  1.0000
  C   C557      1.0  0.38868  0.01876  0.15467  1.0000
  H   H973      1.0  0.41320  0.10605  0.12365  1.0000
  H   H974      1.0  0.44943  0.32347  0.10582  1.0000
  H   H975      1.0  0.41384  0.32336  0.14783  1.0000
  H   H976      1.0  0.27140  0.28639  0.12602  1.0000
  C   C558      1.0  0.32664  0.02967  0.00700  1.0000
  N   N32       1.0  0.35500  0.28933  0.99693  1.0000
  C   C559      1.0  0.42272  0.01021  0.13696  1.0000
  H   H977      1.0  0.38248  0.30776  0.98769  1.0000
  H   H978      1.0  0.35015  0.10469  0.02485  1.0000
  H   H979      1.0  0.37154  0.31151  0.02695  1.0000
  H   H980      1.0  0.39895  0.31647  0.11694  1.0000
  H   H981      1.0  0.46234  0.24994  0.32183  1.0000
  H   H982      1.0  0.40590  0.16061  0.15605  1.0000
  C   C560      1.0  0.36591  0.12536  0.99657  1.0000
  H   H983      1.0  0.32865  0.28763  0.14162  1.0000
  H   H984      1.0  0.41318  0.15363  0.10837  1.0000
  H   H985      1.0  0.43639  0.11663  0.07880  1.0000
  H   H986      1.0  0.40861  0.19268  0.13839  1.0000
  H   H987      1.0  0.36154  0.30969  0.13347  1.0000
  H   H988      1.0  0.33003  0.28825  0.11295  1.0000
  C   C561      1.0  0.41362  0.15671  0.01299  1.0000
  C   C562      1.0  0.41868  0.12880  0.15548  1.0000
  H   H989      1.0  0.36526  0.12422  0.03180  1.0000
  H   H990      1.0  0.42049  0.10033  0.15589  1.0000
  C   C563      1.0  0.31529  0.05832  0.00132  1.0000
  H   H991      1.0  0.39951  0.30929  0.04109  1.0000
  H   H992      1.0  0.39216  0.16182  0.13509  1.0000
  S   S124      1.0  0.34089  0.00106  0.08289  1.0000
  C   C564      1.0  0.39823  0.16500  0.02235  1.0000
  H   H993      1.0  0.33954  0.17624  0.05485  1.0000
  C   C565      1.0  0.41591  0.15140  0.12547  1.0000
  C   C566      1.0  0.37749  0.30020  0.02321  1.0000
  H   H994      1.0  0.45869  0.03137  0.11411  1.0000
  C   C567      1.0  0.41170  0.00232  0.09141  1.0000
  C   C568      1.0  0.45720  0.24111  0.29154  1.0000
  H   H995      1.0  0.37521  0.19613  0.00530  1.0000
  H   H996      1.0  0.36159  0.01076  0.99423  1.0000
  H   H997      1.0  0.46254  0.24493  0.27363  1.0000
  C   C569      1.0  0.35241  0.32286  0.99176  1.0000
  H   H998      1.0  0.35334  0.08467  0.14878  1.0000
  H   H999      1.0  0.43220  0.19192  0.02337  1.0000
  H   H1000     1.0  0.44556  0.12478  0.12360  1.0000
  H   H1001     1.0  0.40045  0.01940  0.11039  1.0000
  H   H1002     1.0  0.38663  0.09464  0.14908  1.0000
  H   H1003     1.0  0.41788  0.18803  0.11237  1.0000
  C   C570      1.0  0.34661  0.17940  0.03746  1.0000
  C   C571      1.0  0.43669  0.22073  0.02274  1.0000
  H   H1004     1.0  0.33623  0.31826  0.08832  1.0000
  H   H1005     1.0  0.26451  0.26840  0.99516  1.0000
  C   C572      1.0  0.35572  0.29993  0.12293  1.0000
  C   C573      1.0  0.42727  0.10860  0.18572  1.0000
  H   H1006     1.0  0.35513  0.27177  0.11900  1.0000
  H   H1007     1.0  0.36570  0.16419  0.04475  1.0000
  H   H1008     1.0  0.38107  0.10182  0.12305  1.0000
  H   H1009     1.0  0.40153  0.02693  0.15872  1.0000
  H   H1010     1.0  0.33146  0.31297  0.15749  1.0000
  C   C574      1.0  0.42802  0.20328  0.01432  1.0000
  C   C575      1.0  0.47870  0.20262  0.33998  1.0000
  H   H1011     1.0  0.30716  0.06543  0.99159  1.0000
  H   H1012     1.0  0.41043  0.30641  0.21552  1.0000
  H   H1013     1.0  0.42085  0.99862  0.27008  1.0000
  H   H1014     1.0  0.38175  0.28476  0.99773  1.0000
  H   H1015     1.0  0.42437  0.09429  0.19467  1.0000
  H   H1016     1.0  0.35522  0.27598  0.14683  1.0000
  H   H1017     1.0  0.47017  0.19509  0.32933  1.0000
  H   H1018     1.0  0.37124  0.28800  0.03625  1.0000
  H   H1019     1.0  0.30151  0.99656  0.09655  1.0000
  H   H1020     1.0  0.27193  0.30221  0.14529  1.0000
  H   H1021     1.0  0.43972  0.10050  0.10089  1.0000
  H   H1022     1.0  0.35284  0.10822  0.14222  1.0000
  H   H1023     1.0  0.37551  0.01134  0.18910  1.0000
  N   N33       1.0  0.32412  0.00985  0.00461  1.0000
  H   H1024     1.0  0.40492  0.31881  0.01215  1.0000
  C   C576      1.0  0.44035  0.00457  0.12907  1.0000
  H   H1025     1.0  0.40441  0.29511  0.02153  1.0000
  H   H1026     1.0  0.44070  0.00060  0.11266  1.0000
  C   C577      1.0  0.37227  0.06399  0.98351  1.0000
  C   C578      1.0  0.27546  0.28948  0.14183  1.0000
  H   H1027     1.0  0.34059  0.12183  0.98440  1.0000
  H   H1028     1.0  0.29264  0.01605  0.03245  1.0000
  C   C579      1.0  0.33157  0.32312  0.14282  1.0000
  H   H1029     1.0  0.26753  0.27793  0.15511  1.0000
  C   C580      1.0  0.29592  0.29162  0.14088  1.0000
  C   C581      1.0  0.43794  0.24376  0.29508  1.0000
  C   C582      1.0  0.33777  0.32603  0.10213  1.0000
  C   C583      1.0  0.30760  0.30756  0.12241  1.0000
  H   H1030     1.0  0.31694  0.26953  0.01625  1.0000
  S   S125      1.0  0.26420  0.32062  0.04603  1.0000
  H   H1031     1.0  0.45184  0.22380  0.01901  1.0000
  H   H1032     1.0  0.29586  0.00116  0.99973  1.0000
  H   H1033     1.0  0.43045  0.31302  0.19429  1.0000
  C   C584      1.0  0.30442  0.99877  0.01231  1.0000
  H   H1034     1.0  0.28606  0.28561  0.98595  1.0000
  H   H1035     1.0  0.30493  0.32461  0.15960  1.0000
  H   H1036     1.0  0.42922  0.32558  0.21690  1.0000
  S   S126      1.0  0.27328  0.32224  0.09540  1.0000
  H   H1037     1.0  0.40361  0.32303  0.18293  1.0000
  Fe  Fe61      1.0  0.24960  0.32462  0.07813  1.0000
  C   C585      1.0  0.36726  0.99912  0.02470  1.0000
  C   C586      1.0  0.33578  0.00175  0.01858  1.0000
  H   H1038     1.0  0.36341  0.99854  0.04262  1.0000
  H   H1039     1.0  0.33231  0.00341  0.03592  1.0000
  C   C587      1.0  0.40332  0.18415  0.98528  1.0000
  H   H1040     1.0  0.34905  0.10229  0.98575  1.0000
  C   C588      1.0  0.36329  0.22689  0.98691  1.0000
  C   C589      1.0  0.38971  0.24139  0.95855  1.0000
  Fe  Fe62      1.0  0.33032  0.01140  0.88911  1.0000
  S   S127      1.0  0.35975  0.01094  0.88285  1.0000
  C   C590      1.0  0.40216  0.20153  0.97018  1.0000
  Fe  Fe63      1.0  0.34185  0.05461  0.88381  1.0000
  S   S128      1.0  0.37172  0.05613  0.87742  1.0000
  S   S129      1.0  0.33222  0.08089  0.88368  1.0000
  Fe  Fe64      1.0  0.36387  0.03506  0.85607  1.0000
  S   S130      1.0  0.37728  0.03693  0.82102  1.0000
  Fe  Fe65      1.0  0.36447  0.03196  0.90482  1.0000
  S   S131      1.0  0.38169  0.02963  0.93099  1.0000
  S   S132      1.0  0.33407  0.03455  0.86077  1.0000
  S   S133      1.0  0.33490  0.03138  0.91289  1.0000
  N   N34       1.0  0.29750  0.26846  0.92453  1.0000
  H   H1041     1.0  0.25301  0.26914  0.89092  1.0000
  Fe  Fe66      1.0  0.47230  0.04183  0.75874  1.0000
  S   S134      1.0  0.45820  0.04850  0.73094  1.0000
  S   S135      1.0  0.46229  0.04566  0.79320  1.0000
  C   C591      1.0  0.35774  0.17293  0.94360  1.0000
  C   C592      1.0  0.47511  0.01512  0.64139  1.0000
  H   H1042     1.0  0.44355  0.00204  0.62685  1.0000
  N   N35       1.0  0.45288  0.03599  0.64231  1.0000
  H   H1043     1.0  0.43069  0.09882  0.75647  1.0000
  H   H1044     1.0  0.32656  0.28008  0.92263  1.0000
  H   H1045     1.0  0.40677  0.22577  0.80891  1.0000
  H   H1046     1.0  0.48106  0.23549  0.53722  1.0000
  S   S136      1.0  0.27956  0.28378  0.84508  1.0000
  S   S137      1.0  0.25812  0.31086  0.88555  1.0000
  Fe  Fe67      1.0  0.35380  0.22459  0.86723  1.0000
  S   S138      1.0  0.37260  0.24528  0.88194  1.0000
  S   S139      1.0  0.33155  0.23021  0.84890  1.0000
  Fe  Fe68      1.0  0.37216  0.19329  0.87937  1.0000
  S   S140      1.0  0.39237  0.21233  0.89481  1.0000
  S   S141      1.0  0.37748  0.16469  0.87976  1.0000
  Fe  Fe69      1.0  0.36855  0.22156  0.90966  1.0000
  S   S142      1.0  0.35855  0.22136  0.94568  1.0000
  Fe  Fe70      1.0  0.39482  0.23434  0.86559  1.0000
  S   S143      1.0  0.42262  0.24957  0.84438  1.0000
  S   S144      1.0  0.34812  0.20140  0.89590  1.0000
  S   S145      1.0  0.37615  0.21483  0.84925  1.0000
  H   H1047     1.0  0.41321  0.25731  0.96963  1.0000
  C   C593      1.0  0.26417  0.25644  0.91746  1.0000
  H   H1048     1.0  0.37724  0.15014  0.95622  1.0000
  H   H1049     1.0  0.39186  0.13084  0.91970  1.0000
  C   C594      1.0  0.35501  0.28841  0.97293  1.0000
  C   C595      1.0  0.36673  0.05455  0.94883  1.0000
  C   C596      1.0  0.34885  0.26612  0.79038  1.0000
  H   H1050     1.0  0.40993  0.10935  0.91103  1.0000
  H   H1051     1.0  0.39992  0.09442  0.93701  1.0000
  H   H1052     1.0  0.28325  0.28182  0.90233  1.0000
  H   H1053     1.0  0.42573  0.24318  0.79169  1.0000
  C   C597      1.0  0.29511  0.27004  0.84692  1.0000
  C   C598      1.0  0.31205  0.27549  0.85388  1.0000
  C   C599      1.0  0.32328  0.26326  0.85561  1.0000
  C   C600      1.0  0.31782  0.24584  0.84965  1.0000
  C   C601      1.0  0.30114  0.24080  0.84230  1.0000
  C   C602      1.0  0.28986  0.25266  0.84114  1.0000
  H   H1054     1.0  0.31645  0.28909  0.85770  1.0000
  H   H1055     1.0  0.33621  0.26739  0.86109  1.0000
  H   H1056     1.0  0.29683  0.22753  0.83741  1.0000
  H   H1057     1.0  0.27693  0.24832  0.83559  1.0000
  C   C603      1.0  0.44473  0.30876  0.80575  1.0000
  C   C604      1.0  0.45195  0.29470  0.79962  1.0000
  C   C605      1.0  0.44510  0.27671  0.81175  1.0000
  C   C606      1.0  0.43074  0.27250  0.82986  1.0000
  C   C607      1.0  0.42341  0.28654  0.83586  1.0000
  C   C608      1.0  0.43040  0.30458  0.82388  1.0000
  H   H1058     1.0  0.46299  0.29773  0.78572  1.0000
  H   H1059     1.0  0.45095  0.26596  0.80707  1.0000
  H   H1060     1.0  0.41263  0.28357  0.85002  1.0000
  H   H1061     1.0  0.42317  0.02662  0.64916  1.0000
  C   C609      1.0  0.37162  0.23049  0.96476  1.0000
  H   H1062     1.0  0.36011  0.24633  0.80805  1.0000
  H   H1063     1.0  0.39623  0.24429  0.94148  1.0000
  H   H1064     1.0  0.34098  0.14734  0.93888  1.0000
  H   H1065     1.0  0.36363  0.30158  0.96265  1.0000
  H   H1066     1.0  0.39714  0.29170  0.80536  1.0000
  H   H1067     1.0  0.34612  0.17923  0.94420  1.0000
  H   H1068     1.0  0.46810  0.29481  0.84182  1.0000
  C   C610      1.0  0.36350  0.06472  0.96526  1.0000
  H   H1069     1.0  0.43583  0.07773  0.76649  1.0000
  H   H1070     1.0  0.31677  0.11163  0.92225  1.0000
  C   C611      1.0  0.37857  0.11627  0.95319  1.0000
  H   H1071     1.0  0.38711  0.30094  0.84142  1.0000
  H   H1072     1.0  0.37609  0.10207  0.96223  1.0000
  H   H1073     1.0  0.29209  0.31933  0.96972  1.0000
  C   C612      1.0  0.35328  0.11752  0.98069  1.0000
  C   C613      1.0  0.33108  0.25246  0.78829  1.0000
  C   C614      1.0  0.34527  0.10427  0.88116  1.0000
  C   C615      1.0  0.36422  0.10922  0.88051  1.0000
  C   C616      1.0  0.37381  0.12780  0.87955  1.0000
  C   C617      1.0  0.36464  0.14171  0.87951  1.0000
  C   C618      1.0  0.34576  0.13680  0.87976  1.0000
  C   C619      1.0  0.33622  0.11826  0.88037  1.0000
  H   H1074     1.0  0.37144  0.09871  0.88110  1.0000
  H   H1075     1.0  0.38844  0.13141  0.87913  1.0000
  H   H1076     1.0  0.33847  0.14727  0.87957  1.0000
  H   H1077     1.0  0.32161  0.11468  0.88058  1.0000
  C   C620      1.0  0.40068  0.03802  0.81431  1.0000
  C   C621      1.0  0.40772  0.03669  0.79284  1.0000
  C   C622      1.0  0.42647  0.03850  0.78646  1.0000
  C   C623      1.0  0.43845  0.04210  0.80134  1.0000
  C   C624      1.0  0.43137  0.04324  0.82294  1.0000
  C   C625      1.0  0.41249  0.04100  0.82950  1.0000
  H   H1078     1.0  0.39865  0.03430  0.78105  1.0000
  H   H1079     1.0  0.43162  0.03728  0.76994  1.0000
  H   H1080     1.0  0.30926  0.30089  0.88960  1.0000
  H   H1081     1.0  0.40712  0.04182  0.84615  1.0000
  C   C626      1.0  0.40395  0.10895  0.92839  1.0000
  H   H1082     1.0  0.46476  0.00161  0.64634  1.0000
  H   H1083     1.0  0.43402  0.01286  0.66497  1.0000
  C   C627      1.0  0.37536  0.27522  0.83058  1.0000
  H   H1084     1.0  0.37760  0.28829  0.93280  1.0000
  H   H1085     1.0  0.25763  0.26327  0.92954  1.0000
  C   C628      1.0  0.37860  0.04341  0.95070  1.0000
  H   H1086     1.0  0.35994  0.05526  0.93478  1.0000
  C   C629      1.0  0.47985  0.06311  0.58452  1.0000
  C   C630      1.0  0.35046  0.15207  0.95019  1.0000
  C   C631      1.0  0.38753  0.04276  0.96885  1.0000
  H   H1087     1.0  0.30477  0.28543  0.94900  1.0000
  H   H1088     1.0  0.33269  0.24723  0.77258  1.0000
  C   C632      1.0  0.31536  0.10058  0.93640  1.0000
  C   C633      1.0  0.43147  0.00678  0.63230  1.0000
  H   H1089     1.0  0.40949  0.21474  0.93604  1.0000
  H   H1090     1.0  0.35380  0.27759  0.93250  1.0000
  H   H1091     1.0  0.37756  0.10803  0.92061  1.0000
  H   H1092     1.0  0.35005  0.09842  0.94216  1.0000
  H   H1093     1.0  0.35048  0.11956  0.92616  1.0000
  H   H1094     1.0  0.41456  0.11725  0.93619  1.0000
  C   C634      1.0  0.38303  0.28304  0.80593  1.0000
  H   H1095     1.0  0.34106  0.28709  0.96892  1.0000
  C   C635      1.0  0.41040  0.20204  0.94633  1.0000
  H   H1096     1.0  0.32325  0.12021  0.95718  1.0000
  H   H1097     1.0  0.37531  0.29276  0.80001  1.0000
  H   H1098     1.0  0.30073  0.09581  0.94436  1.0000
  H   H1099     1.0  0.46328  0.02405  0.66949  1.0000
  H   H1100     1.0  0.44654  0.04740  0.61167  1.0000
  H   H1101     1.0  0.34209  0.30241  0.87723  1.0000
  H   H1102     1.0  0.38202  0.28866  0.76336  1.0000
  N   N36       1.0  0.39890  0.10106  0.81655  1.0000
  C   C636      1.0  0.39827  0.11952  0.82223  1.0000
  C   C637      1.0  0.40250  0.08964  0.83630  1.0000
  C   C638      1.0  0.41379  0.10393  0.79694  1.0000
  C   C639      1.0  0.38095  0.09103  0.81095  1.0000
  C   C640      1.0  0.36352  0.08957  0.82776  1.0000
  C   C641      1.0  0.39268  0.13261  0.80482  1.0000
  C   C642      1.0  0.41755  0.08615  0.79020  1.0000
  C   C643      1.0  0.42181  0.09596  0.84237  1.0000
  C   C644      1.0  0.42333  0.08375  0.86319  1.0000
  C   C645      1.0  0.34638  0.07869  0.82059  1.0000
  C   C646      1.0  0.39030  0.14974  0.81375  1.0000
  C   C647      1.0  0.43358  0.09068  0.77106  1.0000
  H   H1103     1.0  0.41190  0.12719  0.82499  1.0000
  H   H1104     1.0  0.38893  0.11777  0.83813  1.0000
  H   H1105     1.0  0.39262  0.08961  0.85106  1.0000
  H   H1106     1.0  0.40001  0.07496  0.83435  1.0000
  H   H1107     1.0  0.42687  0.11295  0.79961  1.0000
  H   H1108     1.0  0.41034  0.11142  0.78223  1.0000
  H   H1109     1.0  0.37913  0.09730  0.79453  1.0000
  H   H1110     1.0  0.38095  0.07667  0.80937  1.0000
  H   H1111     1.0  0.36166  0.10329  0.82953  1.0000
  H   H1112     1.0  0.36421  0.08243  0.84414  1.0000
  H   H1113     1.0  0.40341  0.13717  0.78986  1.0000
  H   H1114     1.0  0.37956  0.12596  0.80000  1.0000
  H   H1115     1.0  0.40540  0.07770  0.78493  1.0000
  H   H1116     1.0  0.42105  0.07764  0.80391  1.0000
  H   H1117     1.0  0.43265  0.09522  0.82909  1.0000
  H   H1118     1.0  0.42470  0.11026  0.84553  1.0000
  H   H1119     1.0  0.43722  0.08851  0.86724  1.0000
  H   H1120     1.0  0.41310  0.08434  0.87731  1.0000
  H   H1121     1.0  0.42114  0.06927  0.86072  1.0000
  H   H1122     1.0  0.34738  0.06465  0.81885  1.0000
  H   H1123     1.0  0.33418  0.07740  0.83318  1.0000
  H   H1124     1.0  0.34446  0.08580  0.80470  1.0000
  H   H1125     1.0  0.40317  0.15724  0.81854  1.0000
  H   H1126     1.0  0.38664  0.15911  0.80095  1.0000
  H   H1127     1.0  0.37913  0.14592  0.82832  1.0000
  H   H1128     1.0  0.38470  0.26808  0.83781  1.0000
  H   H1129     1.0  0.33870  0.32384  0.88348  1.0000
  H   H1130     1.0  0.46298  0.06311  0.65049  1.0000
  C   C648      1.0  0.31079  0.22853  0.95863  1.0000
  C   C649      1.0  0.23864  0.29012  0.94257  1.0000
  C   C650      1.0  0.48305  0.29812  0.83561  1.0000
  C   C651      1.0  0.44990  0.05215  0.65253  1.0000
  H   H1131     1.0  0.41568  0.28840  0.72804  1.0000
  H   H1132     1.0  0.36901  0.28475  0.86115  1.0000
  C   C652      1.0  0.33780  0.30943  0.89067  1.0000
  C   C653      1.0  0.44204  0.04798  0.67750  1.0000
  H   H1133     1.0  0.34277  0.14916  0.96721  1.0000
  H   H1134     1.0  0.31619  0.25785  0.95627  1.0000
  H   H1135     1.0  0.38603  0.23304  0.78339  1.0000
  H   H1136     1.0  0.40972  0.21421  0.97528  1.0000
  C   C654      1.0  0.43882  0.06520  0.68546  1.0000
  C   C655      1.0  0.37367  0.29060  0.84341  1.0000
  H   H1137     1.0  0.36568  0.17671  0.92659  1.0000
  H   H1138     1.0  0.43064  0.30813  0.73525  1.0000
  C   C656      1.0  0.25300  0.25522  0.89891  1.0000
  H   H1139     1.0  0.44050  0.05853  0.64403  1.0000
  H   H1140     1.0  0.46862  0.06799  0.57842  1.0000
  C   C657      1.0  0.39026  0.27905  0.76780  1.0000
  H   H1141     1.0  0.45176  0.04326  0.68693  1.0000
  C   C658      1.0  0.32713  0.10795  0.95279  1.0000
  H   H1142     1.0  0.36973  0.26389  0.93375  1.0000
  H   H1143     1.0  0.36171  0.26528  0.83310  1.0000
  H   H1144     1.0  0.25874  0.24823  0.88627  1.0000
  H   H1145     1.0  0.41276  0.30214  0.77213  1.0000
  H   H1146     1.0  0.42875  0.03727  0.68157  1.0000
  C   C659      1.0  0.43516  0.02075  0.64818  1.0000
  H   H1147     1.0  0.40315  0.99377  0.64838  1.0000
  H   H1148     1.0  0.30957  0.21804  0.94777  1.0000
  H   H1149     1.0  0.28553  0.24056  0.94234  1.0000
  H   H1150     1.0  0.32735  0.25039  0.93336  1.0000
  C   C660      1.0  0.34789  0.11217  0.94344  1.0000
  H   H1151     1.0  0.28666  0.25659  0.97278  1.0000
  H   H1152     1.0  0.40279  0.19000  0.93999  1.0000
  H   H1153     1.0  0.34689  0.00124  0.94283  1.0000
  H   H1154     1.0  0.34593  0.27223  0.80517  1.0000
  C   C661      1.0  0.39899  0.24348  0.78350  1.0000
  H   H1155     1.0  0.42909  0.07049  0.67649  1.0000
  H   H1156     1.0  0.43289  0.06183  0.70324  1.0000
  H   H1157     1.0  0.45194  0.07611  0.68305  1.0000
  H   H1158     1.0  0.35254  0.27718  0.77579  1.0000
  H   H1159     1.0  0.48156  0.05110  0.57703  1.0000
  H   H1160     1.0  0.31938  0.08883  0.93039  1.0000
  C   C662      1.0  0.41060  0.29072  0.76265  1.0000
  H   H1161     1.0  0.37225  0.14591  0.93032  1.0000
  H   H1162     1.0  0.44634  0.09846  0.77581  1.0000
  C   C663      1.0  0.27386  0.27742  0.98047  1.0000
  C   C664      1.0  0.36434  0.25649  0.79241  1.0000
  H   H1163     1.0  0.26320  0.24218  0.92508  1.0000
  C   C665      1.0  0.29232  0.27793  0.94325  1.0000
  C   C666      1.0  0.36625  0.14280  0.94813  1.0000
  H   H1164     1.0  0.44053  0.04587  0.83461  1.0000
  Fe  Fe71      1.0  0.46032  0.02142  0.72228  1.0000
  C   C667      1.0  0.38728  0.11661  0.92912  1.0000
  H   H1165     1.0  0.36660  0.17868  0.95504  1.0000
  H   H1166     1.0  0.38832  0.26929  0.75602  1.0000
  H   H1167     1.0  0.42005  0.28232  0.76651  1.0000
  H   H1168     1.0  0.40507  0.25039  0.76637  1.0000
  H   H1169     1.0  0.37484  0.27179  0.97016  1.0000
  C   C668      1.0  0.31429  0.24768  0.94508  1.0000
  H   H1170     1.0  0.38960  0.24924  0.81505  1.0000
  H   H1171     1.0  0.36349  0.29743  0.83767  1.0000
  C   C669      1.0  0.31812  0.29974  0.90202  1.0000
  H   H1172     1.0  0.36437  0.24797  0.77928  1.0000
  H   H1173     1.0  0.42747  0.01332  0.61739  1.0000
  N   N37       1.0  0.38327  0.26899  0.79115  1.0000
  C   C670      1.0  0.39549  0.25743  0.79835  1.0000
  H   H1174     1.0  0.35387  0.07284  0.96405  1.0000
  C   C671      1.0  0.41633  0.29928  0.73831  1.0000
  C   C672      1.0  0.36598  0.27589  0.93935  1.0000
  C   C673      1.0  0.41229  0.23334  0.79187  1.0000
  N   N38       1.0  0.36121  0.12238  0.95642  1.0000
  H   H1175     1.0  0.40889  0.26630  0.80007  1.0000
  H   H1176     1.0  0.30054  0.24217  0.91771  1.0000
  S   S146      1.0  0.47266  0.01388  0.75159  1.0000
  H   H1177     1.0  0.42506  0.20220  0.94480  1.0000
  C   C674      1.0  0.29861  0.24916  0.93212  1.0000
  H   H1178     1.0  0.32346  0.09723  0.96781  1.0000
  C   C675      1.0  0.45784  0.04252  0.61776  1.0000
  C   C676      1.0  0.39928  0.24874  0.97450  1.0000
  H   H1179     1.0  0.26661  0.28690  0.97288  1.0000
  H   H1180     1.0  0.32051  0.27242  0.89833  1.0000
  H   H1181     1.0  0.41445  0.22328  0.78119  1.0000
  H   H1182     1.0  0.34286  0.01924  0.97342  1.0000
  C   C677      1.0  0.47589  0.05810  0.60957  1.0000
  H   H1183     1.0  0.34731  0.30969  0.90265  1.0000
  C   C678      1.0  0.31614  0.27940  0.91185  1.0000
  H   H1184     1.0  0.26697  0.25683  0.96044  1.0000
  C   C679      1.0  0.28420  0.26781  0.90864  1.0000
  S   S147      1.0  0.43441  0.00378  0.71442  1.0000
  C   C680      1.0  0.46797  0.02991  0.65174  1.0000
  H   H1185     1.0  0.31456  0.30735  0.91510  1.0000
  Fe  Fe72      1.0  0.27754  0.31090  0.85509  1.0000
  H   H1186     1.0  0.47844  0.01864  0.62324  1.0000
  H   H1187     1.0  0.32708  0.24065  0.80214  1.0000
  H   H1188     1.0  0.35162  0.25935  0.97035  1.0000
  H   H1189     1.0  0.45910  0.03114  0.60889  1.0000
  H   H1190     1.0  0.29811  0.22518  0.97111  1.0000
  H   H1191     1.0  0.31962  0.01332  0.97098  1.0000
  H   H1192     1.0  0.28921  0.26233  0.89404  1.0000
  H   H1193     1.0  0.31987  0.25933  0.78866  1.0000
  H   H1194     1.0  0.32245  0.22801  0.96730  1.0000
  H   H1195     1.0  0.48028  0.26574  0.70219  1.0000
  C   C681      1.0  0.27954  0.26569  0.96422  1.0000
  H   H1196     1.0  0.47983  0.04197  0.65110  1.0000
  H   H1197     1.0  0.42479  0.31540  0.82882  1.0000
  H   H1198     1.0  0.23861  0.24725  0.90559  1.0000
  H   H1199     1.0  0.40732  0.30790  0.73331  1.0000
  C   C682      1.0  0.36202  0.27277  0.96444  1.0000
  H   H1200     1.0  0.28586  0.28882  0.93735  1.0000
  H   H1201     1.0  0.39677  0.03417  0.97028  1.0000
  H   H1202     1.0  0.38944  0.12497  0.96033  1.0000
  H   H1203     1.0  0.38772  0.20170  0.97048  1.0000
  H   H1204     1.0  0.47848  0.27644  0.62349  1.0000
  H   H1205     1.0  0.47519  0.07084  0.61594  1.0000
  H   H1206     1.0  0.25349  0.29707  0.93751  1.0000
  H   H1207     1.0  0.35269  0.32416  0.97379  1.0000
  H   H1208     1.0  0.39536  0.17198  0.97939  1.0000
  H   H1209     1.0  0.41778  0.18372  0.98193  1.0000
  H   H1210     1.0  0.48544  0.29827  0.81763  1.0000
  C   C683      1.0  0.32952  0.00905  0.98067  1.0000
  H   H1211     1.0  0.32128  0.04306  0.97610  1.0000
  Fe  Fe73      1.0  0.48622  0.06011  0.71070  1.0000
  H   H1212     1.0  0.48561  0.25152  0.51172  1.0000
  H   H1213     1.0  0.43526  0.35216  0.13347  1.0000
  S   S148      1.0  0.30015  0.35206  0.05408  1.0000
  H   H1214     1.0  0.36022  0.63882  0.35474  1.0000
  H   H1215     1.0  0.32547  0.49657  0.25323  1.0000
  H   H1216     1.0  0.31514  0.35251  0.17385  1.0000
  Fe  Fe74      1.0  0.32547  0.49206  0.36913  1.0000
  S   S149      1.0  0.34556  0.47663  0.37860  1.0000
  S   S150      1.0  0.29571  0.48158  0.38498  1.0000
  Fe  Fe75      1.0  0.35504  0.52388  0.34127  1.0000
  S   S151      1.0  0.37736  0.51133  0.34879  1.0000
  S   S152      1.0  0.36209  0.55020  0.31701  1.0000
  Fe  Fe76      1.0  0.35894  0.48529  0.34298  1.0000
  S   S153      1.0  0.37107  0.46666  0.32367  1.0000
  Fe  Fe77      1.0  0.36214  0.50404  0.38350  1.0000
  S   S154      1.0  0.37921  0.50881  0.41010  1.0000
  S   S155      1.0  0.33732  0.49832  0.33312  1.0000
  S   S156      1.0  0.34124  0.51903  0.37639  1.0000
  S   S157      1.0  0.40222  0.62153  0.35051  1.0000
  N   N39       1.0  0.42101  0.36015  0.16133  1.0000
  S   S158      1.0  0.25895  0.35542  0.07113  1.0000
  H   H1217     1.0  0.32586  0.49472  0.46938  1.0000
  S   S159      1.0  0.44471  0.64648  0.37128  1.0000
  Fe  Fe78      1.0  0.28368  0.35303  0.08630  1.0000
  S   S160      1.0  0.29296  0.36610  0.11540  1.0000
  Fe  Fe79      1.0  0.37212  0.44875  0.20451  1.0000
  S   S161      1.0  0.38268  0.46067  0.16864  1.0000
  S   S162      1.0  0.35789  0.46465  0.22580  1.0000
  Fe  Fe80      1.0  0.38893  0.41723  0.20242  1.0000
  S   S163      1.0  0.40129  0.42687  0.16698  1.0000
  S   S164      1.0  0.39323  0.39141  0.22012  1.0000
  Fe  Fe81      1.0  0.40896  0.45514  0.17560  1.0000
  S   S165      1.0  0.43776  0.47353  0.16221  1.0000
  Fe  Fe82      1.0  0.37392  0.43132  0.16286  1.0000
  S   S166      1.0  0.36493  0.42341  0.13106  1.0000
  S   S167      1.0  0.39891  0.44491  0.21160  1.0000
  S   S168      1.0  0.36098  0.41994  0.19824  1.0000
  H   H1218     1.0  0.40542  0.48511  0.22256  1.0000
  C   C684      1.0  0.41335  0.64537  0.46046  1.0000
  S   S169      1.0  0.47721  0.39496  0.20740  1.0000
  S   S170      1.0  0.46845  0.55274  0.18629  1.0000
  C   C685      1.0  0.44606  0.49544  0.16930  1.0000
  C   C686      1.0  0.43435  0.50413  0.18013  1.0000
  C   C687      1.0  0.44141  0.52169  0.18519  1.0000
  C   C688      1.0  0.46026  0.53052  0.17995  1.0000
  C   C689      1.0  0.47201  0.52166  0.16950  1.0000
  C   C690      1.0  0.46490  0.50431  0.16396  1.0000
  H   H1219     1.0  0.41981  0.49754  0.18410  1.0000
  H   H1220     1.0  0.43220  0.52852  0.19308  1.0000
  H   H1221     1.0  0.35269  0.33062  0.10229  1.0000
  H   H1222     1.0  0.47407  0.49769  0.15559  1.0000
  C   C691      1.0  0.41652  0.39228  0.21686  1.0000
  C   C692      1.0  0.42197  0.37654  0.22392  1.0000
  C   C693      1.0  0.44063  0.37710  0.22086  1.0000
  C   C694      1.0  0.45379  0.39345  0.21096  1.0000
  C   C695      1.0  0.44832  0.40916  0.20408  1.0000
  C   C696      1.0  0.42972  0.40857  0.20686  1.0000
  H   H1223     1.0  0.41178  0.36393  0.23170  1.0000
  H   H1224     1.0  0.44485  0.36499  0.22642  1.0000
  H   H1225     1.0  0.45853  0.42166  0.19611  1.0000
  H   H1226     1.0  0.42562  0.42072  0.20124  1.0000
  S   S171      1.0  0.27422  0.36694  0.00625  1.0000
  S   S172      1.0  0.45476  0.63123  0.32598  1.0000
  C   C697      1.0  0.42137  0.35333  0.13971  1.0000
  H   H1227     1.0  0.35313  0.45625  0.10937  1.0000
  C   C698      1.0  0.34498  0.40710  0.12717  1.0000
  C   C699      1.0  0.33085  0.39763  0.14459  1.0000
  C   C700      1.0  0.31508  0.38524  0.14058  1.0000
  C   C701      1.0  0.31327  0.38192  0.11923  1.0000
  C   C702      1.0  0.32747  0.39128  0.10183  1.0000
  C   C703      1.0  0.34319  0.40380  0.10579  1.0000
  H   H1228     1.0  0.33193  0.40005  0.16110  1.0000
  H   H1229     1.0  0.30411  0.37824  0.15414  1.0000
  H   H1230     1.0  0.32616  0.38917  0.08528  1.0000
  H   H1231     1.0  0.35395  0.41112  0.09215  1.0000
  C   C704      1.0  0.36808  0.50496  0.43763  1.0000
  C   C705      1.0  0.37861  0.50658  0.45437  1.0000
  H   H1232     1.0  0.39336  0.50975  0.45024  1.0000
  H   H1233     1.0  0.34079  0.49941  0.43029  1.0000
  C   C706      1.0  0.36899  0.46719  0.29582  1.0000
  C   C707      1.0  0.36270  0.48080  0.28451  1.0000
  C   C708      1.0  0.35988  0.48016  0.26280  1.0000
  C   C709      1.0  0.36335  0.46596  0.25223  1.0000
  C   C710      1.0  0.37022  0.45267  0.26330  1.0000
  C   C711      1.0  0.37309  0.45334  0.28501  1.0000
  H   H1234     1.0  0.35975  0.49166  0.29259  1.0000
  H   H1235     1.0  0.35481  0.49060  0.25421  1.0000
  H   H1236     1.0  0.37283  0.44159  0.25538  1.0000
  H   H1237     1.0  0.37798  0.44276  0.29369  1.0000
  C   C712      1.0  0.37390  0.56964  0.32648  1.0000
  C   C713      1.0  0.37878  0.58678  0.31266  1.0000
  C   C714      1.0  0.38755  0.60265  0.32009  1.0000
  C   C715      1.0  0.39174  0.60143  0.34127  1.0000
  C   C716      1.0  0.38680  0.58431  0.35517  1.0000
  C   C717      1.0  0.37798  0.56837  0.34775  1.0000
  H   H1238     1.0  0.37554  0.58781  0.29627  1.0000
  H   H1239     1.0  0.39113  0.61588  0.30940  1.0000
  H   H1240     1.0  0.38974  0.58340  0.37164  1.0000
  H   H1241     1.0  0.37420  0.55518  0.35854  1.0000
  H   H1242     1.0  0.28551  0.49331  0.47076  1.0000
  C   C718      1.0  0.26865  0.47539  0.33366  1.0000
  C   C719      1.0  0.28278  0.47849  0.34606  1.0000
  C   C720      1.0  0.27853  0.47716  0.36883  1.0000
  C   C721      1.0  0.26017  0.47303  0.37903  1.0000
  S   S173      1.0  0.46687  0.33344  0.14204  1.0000
  H   H1243     1.0  0.27179  0.47648  0.31606  1.0000
  H   H1244     1.0  0.29690  0.48186  0.33810  1.0000
  H   H1245     1.0  0.25678  0.47191  0.39665  1.0000
  H   H1246     1.0  0.24470  0.53227  0.45094  1.0000
  H   H1247     1.0  0.35458  0.56162  0.46199  1.0000
  H   H1248     1.0  0.40948  0.54859  0.37907  1.0000
  H   H1249     1.0  0.47430  0.50631  0.28674  1.0000
  H   H1250     1.0  0.33457  0.44041  0.34449  1.0000
  H   H1251     1.0  0.46690  0.54586  0.24967  1.0000
  N   N40       1.0  0.28380  0.53968  0.35586  1.0000
  C   C722      1.0  0.30303  0.54655  0.36012  1.0000
  C   C723      1.0  0.27349  0.52347  0.37353  1.0000
  C   C724      1.0  0.28515  0.53270  0.33430  1.0000
  C   C725      1.0  0.27375  0.55444  0.35436  1.0000
  C   C726      1.0  0.27856  0.56951  0.36871  1.0000
  C   C727      1.0  0.31634  0.56129  0.34152  1.0000
  C   C728      1.0  0.26667  0.52337  0.32778  1.0000
  C   C729      1.0  0.27167  0.52662  0.39762  1.0000
  C   C730      1.0  0.26248  0.50856  0.41350  1.0000
  C   C731      1.0  0.26534  0.58153  0.36849  1.0000
  C   C732      1.0  0.33215  0.57293  0.35029  1.0000
  C   C733      1.0  0.26934  0.51990  0.30417  1.0000
  H   H1252     1.0  0.30929  0.53487  0.36287  1.0000
  H   H1253     1.0  0.30305  0.55217  0.37558  1.0000
  H   H1254     1.0  0.25923  0.51803  0.37087  1.0000
  H   H1255     1.0  0.28012  0.51212  0.37257  1.0000
  H   H1256     1.0  0.29351  0.52261  0.33448  1.0000
  H   H1257     1.0  0.29241  0.54415  0.32052  1.0000
  H   H1258     1.0  0.27617  0.56195  0.33715  1.0000
  H   H1259     1.0  0.25870  0.54807  0.35819  1.0000
  H   H1260     1.0  0.29249  0.57871  0.36226  1.0000
  H   H1261     1.0  0.27827  0.56372  0.38599  1.0000
  H   H1262     1.0  0.32219  0.55441  0.32883  1.0000
  H   H1263     1.0  0.30931  0.57065  0.33329  1.0000
  H   H1264     1.0  0.25698  0.53194  0.32919  1.0000
  H   H1265     1.0  0.26025  0.50986  0.33852  1.0000
  H   H1266     1.0  0.28512  0.53228  0.40226  1.0000
  H   H1267     1.0  0.26293  0.53594  0.40022  1.0000
  H   H1268     1.0  0.24915  0.50170  0.40922  1.0000
  H   H1269     1.0  0.27138  0.49912  0.41282  1.0000
  H   H1270     1.0  0.26004  0.51117  0.43057  1.0000
  H   H1271     1.0  0.26898  0.59215  0.37888  1.0000
  H   H1272     1.0  0.26605  0.58858  0.35149  1.0000
  H   H1273     1.0  0.25112  0.57310  0.37507  1.0000
  H   H1274     1.0  0.34180  0.58281  0.33648  1.0000
  H   H1275     1.0  0.32705  0.58087  0.36219  1.0000
  H   H1276     1.0  0.33962  0.56400  0.35850  1.0000
  H   H1277     1.0  0.44623  0.43439  0.24434  1.0000
  C   C734      1.0  0.41407  0.57694  0.46287  1.0000
  C   C735      1.0  0.34081  0.33494  0.00037  1.0000
  N   N41       1.0  0.40174  0.56842  0.44790  1.0000
  C   C736      1.0  0.41344  0.56334  0.42947  1.0000
  H   H1278     1.0  0.26135  0.43182  0.34650  1.0000
  C   C737      1.0  0.34232  0.35399  0.07300  1.0000
  H   H1279     1.0  0.36968  0.38387  0.15497  1.0000
  S   S174      1.0  0.47023  0.33996  0.20439  1.0000
  H   H1280     1.0  0.42150  0.50446  0.22927  1.0000
  H   H1281     1.0  0.41777  0.55099  0.43565  1.0000
  H   H1282     1.0  0.42647  0.57433  0.42330  1.0000
  H   H1283     1.0  0.46727  0.63353  0.24696  1.0000
  H   H1284     1.0  0.42812  0.55494  0.46661  1.0000
  H   H1285     1.0  0.30633  0.47807  0.44851  1.0000
  H   H1286     1.0  0.36601  0.36143  0.17135  1.0000
  H   H1287     1.0  0.33881  0.34525  0.06048  1.0000
  C   C738      1.0  0.41172  0.41569  0.26768  1.0000
  H   H1288     1.0  0.24057  0.59172  0.31932  1.0000
  C   C739      1.0  0.30190  0.42762  0.28062  1.0000
  H   H1289     1.0  0.38741  0.60416  0.40162  1.0000
  H   H1290     1.0  0.41756  0.53785  0.40175  1.0000
  C   C740      1.0  0.25642  0.42599  0.33232  1.0000
  H   H1291     1.0  0.29105  0.42790  0.27044  1.0000
  C   C741      1.0  0.40688  0.33088  0.11645  1.0000
  H   H1292     1.0  0.39241  0.36926  0.13978  1.0000
  H   H1293     1.0  0.45924  0.37391  0.16706  1.0000
  H   H1294     1.0  0.33822  0.36681  0.06876  1.0000
  H   H1295     1.0  0.42377  0.48312  0.26321  1.0000
  H   H1296     1.0  0.27432  0.53313  0.29244  1.0000
  H   H1297     1.0  0.45103  0.55121  0.23249  1.0000
  H   H1298     1.0  0.43255  0.43227  0.28183  1.0000
  H   H1299     1.0  0.38333  0.58544  0.45297  1.0000
  C   C742      1.0  0.45744  0.60947  0.27188  1.0000
  C   C743      1.0  0.31916  0.42657  0.26515  1.0000
  H   H1300     1.0  0.42851  0.44139  0.23352  1.0000
  H   H1301     1.0  0.45174  0.49107  0.29680  1.0000
  Fe  Fe83      1.0  0.45672  0.62585  0.38856  1.0000
  H   H1302     1.0  0.45732  0.63718  0.27352  1.0000
  H   H1303     1.0  0.31199  0.39664  0.26895  1.0000
  C   C744      1.0  0.46592  0.62665  0.44345  1.0000
  H   H1304     1.0  0.26628  0.47646  0.46556  1.0000
  C   C745      1.0  0.33221  0.34395  0.09590  1.0000
  H   H1305     1.0  0.29191  0.48821  0.43339  1.0000
  C   C746      1.0  0.34057  0.49798  0.46518  1.0000
  H   H1306     1.0  0.47864  0.48977  0.25628  1.0000
  H   H1307     1.0  0.32794  0.40867  0.24436  1.0000
  C   C747      1.0  0.39426  0.37456  0.15526  1.0000
  H   H1308     1.0  0.43145  0.38804  0.14318  1.0000
  S   S175      1.0  0.44995  0.62398  0.42548  1.0000
  H   H1309     1.0  0.43830  0.34258  0.16965  1.0000
  H   H1310     1.0  0.42068  0.33305  0.10659  1.0000
  H   H1311     1.0  0.24901  0.43504  0.32418  1.0000
  H   H1312     1.0  0.46544  0.60156  0.26292  1.0000
  C   C748      1.0  0.43417  0.37916  0.15729  1.0000
  C   C749      1.0  0.45420  0.54005  0.24335  1.0000
  S   S176      1.0  0.44184  0.60283  0.37321  1.0000
  N   N42       1.0  0.41804  0.53835  0.29481  1.0000
  C   C750      1.0  0.40062  0.52981  0.28686  1.0000
  C   C751      1.0  0.42193  0.52493  0.31264  1.0000
  C   C752      1.0  0.41512  0.55456  0.30485  1.0000
  C   C753      1.0  0.43420  0.54529  0.27627  1.0000
  C   C754      1.0  0.43821  0.53110  0.26223  1.0000
  C   C755      1.0  0.39488  0.54211  0.26870  1.0000
  C   C756      1.0  0.43145  0.56515  0.31448  1.0000
  C   C757      1.0  0.41505  0.50409  0.31201  1.0000
  C   C758      1.0  0.42014  0.49247  0.33087  1.0000
  H   H1313     1.0  0.47411  0.48035  0.22553  1.0000
  C   C759      1.0  0.37812  0.53124  0.26076  1.0000
  C   C760      1.0  0.42595  0.57918  0.32723  1.0000
  H   H1314     1.0  0.38895  0.52532  0.30094  1.0000
  H   H1315     1.0  0.40142  0.51713  0.28037  1.0000
  H   H1316     1.0  0.43687  0.52813  0.31306  1.0000
  H   H1317     1.0  0.41561  0.52646  0.32921  1.0000
  H   H1318     1.0  0.40277  0.55003  0.31809  1.0000
  H   H1319     1.0  0.41233  0.56502  0.29258  1.0000
  H   H1320     1.0  0.43275  0.55737  0.26516  1.0000
  H   H1321     1.0  0.44696  0.55057  0.28275  1.0000
  H   H1322     1.0  0.42622  0.52502  0.25493  1.0000
  H   H1323     1.0  0.44214  0.52011  0.27232  1.0000
  H   H1324     1.0  0.39106  0.55381  0.27499  1.0000
  H   H1325     1.0  0.40600  0.54752  0.25423  1.0000
  H   H1326     1.0  0.44285  0.57280  0.30101  1.0000
  H   H1327     1.0  0.43664  0.55591  0.32574  1.0000
  H   H1328     1.0  0.39993  0.49984  0.31400  1.0000
  H   H1329     1.0  0.42062  0.50060  0.29637  1.0000
  H   H1330     1.0  0.43516  0.49625  0.33032  1.0000
  H   H1331     1.0  0.41330  0.49439  0.34693  1.0000
  H   H1332     1.0  0.41539  0.47770  0.32968  1.0000
  H   H1333     1.0  0.47371  0.45727  0.23588  1.0000
  H   H1334     1.0  0.45874  0.49832  0.25601  1.0000
  C   C761      1.0  0.47191  0.62873  0.48059  1.0000
  H   H1335     1.0  0.38128  0.51973  0.25329  1.0000
  H   H1336     1.0  0.36642  0.52572  0.27465  1.0000
  H   H1337     1.0  0.37402  0.54039  0.24815  1.0000
  C   C762      1.0  0.28064  0.47892  0.46814  1.0000
  H   H1338     1.0  0.48117  0.40070  0.14268  1.0000
  H   H1339     1.0  0.43815  0.58807  0.33172  1.0000
  H   H1340     1.0  0.44854  0.44818  0.10500  1.0000
  N   N43       1.0  0.44773  0.46341  0.24381  1.0000
  H   H1341     1.0  0.43371  0.35576  0.18987  1.0000
  C   C763      1.0  0.42731  0.34780  0.17795  1.0000
  C   C764      1.0  0.46551  0.46589  0.22842  1.0000
  C   C765      1.0  0.43751  0.47596  0.23349  1.0000
  H   H1342     1.0  0.43993  0.46593  0.27778  1.0000
  H   H1343     1.0  0.38107  0.65578  0.34085  1.0000
  C   C766      1.0  0.46352  0.46156  0.20519  1.0000
  H   H1344     1.0  0.37685  0.38188  0.18126  1.0000
  H   H1345     1.0  0.25419  0.60304  0.45006  1.0000
  H   H1346     1.0  0.45819  0.37320  0.13861  1.0000
  H   H1347     1.0  0.33607  0.35342  0.10753  1.0000
  H   H1348     1.0  0.43467  0.43882  0.13184  1.0000
  H   H1349     1.0  0.45302  0.44857  0.20561  1.0000
  Fe  Fe84      1.0  0.46648  0.61165  0.34590  1.0000
  H   H1350     1.0  0.43307  0.42538  0.11017  1.0000
  C   C767      1.0  0.46441  0.48794  0.26468  1.0000
  H   H1351     1.0  0.31735  0.34123  0.09568  1.0000
  H   H1352     1.0  0.47967  0.45796  0.17574  1.0000
  H   H1353     1.0  0.44679  0.49000  0.22718  1.0000
  C   C768      1.0  0.45488  0.38026  0.15237  1.0000
  C   C769      1.0  0.24548  0.54137  0.46341  1.0000
  C   C770      1.0  0.48617  0.58176  0.28959  1.0000
  H   H1354     1.0  0.44519  0.62429  0.47159  1.0000
  H   H1355     1.0  0.42194  0.63685  0.45393  1.0000
  H   H1356     1.0  0.45945  0.47275  0.19581  1.0000
  H   H1357     1.0  0.28595  0.46368  0.44193  1.0000
  H   H1358     1.0  0.40281  0.36720  0.18621  1.0000
  H   H1359     1.0  0.34203  0.65584  0.33374  1.0000
  H   H1360     1.0  0.39445  0.54055  0.46567  1.0000
  H   H1361     1.0  0.40322  0.40924  0.28403  1.0000
  Fe  Fe85      1.0  0.27470  0.35135  0.03969  1.0000
  H   H1362     1.0  0.40149  0.64430  0.45178  1.0000
  H   H1363     1.0  0.24665  0.41226  0.33864  1.0000
  C   C771      1.0  0.41141  0.49103  0.23610  1.0000
  C   C772      1.0  0.40234  0.36194  0.17041  1.0000
  H   H1364     1.0  0.33762  0.35785  0.15761  1.0000
  H   H1365     1.0  0.40019  0.49335  0.24765  1.0000
  S   S177      1.0  0.48247  0.63304  0.36296  1.0000
  H   H1366     1.0  0.44864  0.58332  0.47512  1.0000
  C   C773      1.0  0.48456  0.62910  0.43610  1.0000
  H   H1367     1.0  0.34479  0.42891  0.32466  1.0000
  C   C774      1.0  0.42416  0.43444  0.26902  1.0000
  H   H1368     1.0  0.30383  0.42562  0.33732  1.0000
  H   H1369     1.0  0.32329  0.43807  0.25098  1.0000
  H   H1370     1.0  0.46438  0.40776  0.15996  1.0000
  H   H1371     1.0  0.31720  0.50850  0.27375  1.0000
  H   H1372     1.0  0.40818  0.63978  0.47820  1.0000
  H   H1373     1.0  0.32643  0.32998  0.99785  1.0000
  C   C775      1.0  0.29191  0.47707  0.44679  1.0000
  H   H1374     1.0  0.28887  0.45039  0.32089  1.0000
  N   N44       1.0  0.30428  0.44361  0.29288  1.0000
  H   H1375     1.0  0.41637  0.57200  0.34261  1.0000
  C   C776      1.0  0.39366  0.61166  0.41398  1.0000
  H   H1376     1.0  0.32962  0.41573  0.34927  1.0000
  H   H1377     1.0  0.31393  0.41407  0.31746  1.0000
  H   H1378     1.0  0.41995  0.40639  0.26245  1.0000
  H   H1379     1.0  0.48301  0.63221  0.28982  1.0000
  H   H1380     1.0  0.25604  0.51218  0.30058  1.0000
  C   C777      1.0  0.31423  0.49554  0.26700  1.0000
  C   C778      1.0  0.43690  0.44341  0.24664  1.0000
  H   H1381     1.0  0.41958  0.58812  0.31715  1.0000
  C   C779      1.0  0.25501  0.53329  0.48065  1.0000
  Fe  Fe86      1.0  0.46894  0.65197  0.34466  1.0000
  Fe  Fe87      1.0  0.48326  0.34153  0.16926  1.0000
  H   H1382     1.0  0.44337  0.60609  0.26806  1.0000
  H   H1383     1.0  0.42581  0.58814  0.45305  1.0000
  C   C780      1.0  0.46645  0.63009  0.26496  1.0000
  H   H1384     1.0  0.30118  0.49397  0.26062  1.0000
  C   C781      1.0  0.24613  0.47048  0.36654  1.0000
  H   H1385     1.0  0.39075  0.54921  0.41400  1.0000
  C   C782      1.0  0.36672  0.64902  0.33954  1.0000
  H   H1386     1.0  0.43289  0.47123  0.21857  1.0000
  H   H1387     1.0  0.33085  0.42688  0.27393  1.0000
  H   H1388     1.0  0.46289  0.40728  0.13131  1.0000
  H   H1389     1.0  0.40306  0.62500  0.40515  1.0000
  H   H1390     1.0  0.41881  0.36353  0.12687  1.0000
  C   C783      1.0  0.31587  0.42678  0.32463  1.0000
  H   H1391     1.0  0.27927  0.51161  0.30181  1.0000
  C   C784      1.0  0.31267  0.47931  0.28508  1.0000
  H   H1392     1.0  0.47370  0.57071  0.29314  1.0000
  H   H1393     1.0  0.41089  0.60884  0.43786  1.0000
  Fe  Fe88      1.0  0.43154  0.62405  0.35439  1.0000
  H   H1394     1.0  0.40240  0.41721  0.25578  1.0000
  H   H1395     1.0  0.40991  0.46438  0.25283  1.0000
  H   H1396     1.0  0.45655  0.60529  0.28984  1.0000
  C   C785      1.0  0.46646  0.40026  0.14620  1.0000
  C   C786      1.0  0.41618  0.55116  0.39348  1.0000
  C   C787      1.0  0.33225  0.42810  0.33642  1.0000
  H   H1397     1.0  0.45674  0.52967  0.23334  1.0000
  H   H1398     1.0  0.43214  0.38599  0.17178  1.0000
  C   C788      1.0  0.31009  0.46104  0.27594  1.0000
  C   C789      1.0  0.48157  0.46044  0.19252  1.0000
  H   H1399     1.0  0.41530  0.44295  0.27463  1.0000
  C   C790      1.0  0.40445  0.55915  0.40920  1.0000
  H   H1400     1.0  0.26667  0.41809  0.30247  1.0000
  H   H1401     1.0  0.41548  0.59874  0.41410  1.0000
  C   C791      1.0  0.42218  0.56354  0.47681  1.0000
  H   H1402     1.0  0.40315  0.38886  0.15123  1.0000
  C   C792      1.0  0.37555  0.37542  0.16643  1.0000
  C   C793      1.0  0.39193  0.58195  0.43923  1.0000
  H   H1403     1.0  0.40372  0.33620  0.20464  1.0000
  H   H1404     1.0  0.36200  0.45288  0.08234  1.0000
  H   H1405     1.0  0.33253  0.44661  0.29645  1.0000
  H   H1406     1.0  0.31507  0.34306  0.13715  1.0000
  H   H1407     1.0  0.27882  0.41442  0.32459  1.0000
  C   C794      1.0  0.40446  0.60057  0.42626  1.0000
  H   H1408     1.0  0.35080  0.47082  0.08528  1.0000
  H   H1409     1.0  0.25428  0.55532  0.45608  1.0000
  H   H1410     1.0  0.27848  0.45104  0.29719  1.0000
  C   C795      1.0  0.38764  0.55116  0.45996  1.0000
  C   C796      1.0  0.37016  0.50414  0.47645  1.0000
  H   H1411     1.0  0.39201  0.34842  0.17472  1.0000
  H   H1412     1.0  0.42999  0.56083  0.38760  1.0000
  H   H1413     1.0  0.30118  0.47884  0.29809  1.0000
  C   C797      1.0  0.31547  0.40883  0.25564  1.0000
  H   H1414     1.0  0.32539  0.48221  0.29216  1.0000
  H   H1415     1.0  0.30410  0.40796  0.24617  1.0000
  C   C798      1.0  0.34901  0.50068  0.44309  1.0000
  H   H1416     1.0  0.40292  0.57196  0.39992  1.0000
  H   H1417     1.0  0.29694  0.41431  0.29210  1.0000
  H   H1418     1.0  0.32341  0.46224  0.26549  1.0000
  N   N45       1.0  0.41092  0.47818  0.10140  1.0000
  C   C799      1.0  0.42060  0.46627  0.11383  1.0000
  C   C800      1.0  0.41031  0.49440  0.11268  1.0000
  C   C801      1.0  0.39137  0.46690  0.10309  1.0000
  C   C802      1.0  0.41953  0.48444  0.07743  1.0000
  C   C803      1.0  0.44059  0.48760  0.07153  1.0000
  C   C804      1.0  0.41972  0.44737  0.10673  1.0000
  C   C805      1.0  0.37827  0.47693  0.09302  1.0000
  C   C806      1.0  0.42889  0.50773  0.11391  1.0000
  C   C807      1.0  0.42609  0.52233  0.12757  1.0000
  C   C808      1.0  0.44789  0.49741  0.04779  1.0000
  C   C809      1.0  0.43495  0.43949  0.11390  1.0000
  C   C810      1.0  0.35997  0.46336  0.09247  1.0000
  H   H1419     1.0  0.41459  0.46328  0.13162  1.0000
  H   H1420     1.0  0.43517  0.47356  0.11310  1.0000
  H   H1421     1.0  0.40280  0.50317  0.10427  1.0000
  H   H1422     1.0  0.40256  0.48944  0.12979  1.0000
  H   H1423     1.0  0.38509  0.46128  0.12062  1.0000
  H   H1424     1.0  0.39092  0.45472  0.09495  1.0000
  H   H1425     1.0  0.41344  0.47424  0.06742  1.0000
  H   H1426     1.0  0.41623  0.49733  0.07086  1.0000
  H   H1427     1.0  0.44406  0.47426  0.07319  1.0000
  H   H1428     1.0  0.44818  0.49582  0.08229  1.0000
  H   H1429     1.0  0.40640  0.43742  0.11454  1.0000
  H   H1430     1.0  0.42079  0.44831  0.08869  1.0000
  H   H1431     1.0  0.38431  0.48417  0.07598  1.0000
  H   H1432     1.0  0.37515  0.48705  0.10311  1.0000
  H   H1433     1.0  0.43796  0.50052  0.12160  1.0000
  H   H1434     1.0  0.43587  0.51516  0.09724  1.0000
  H   H1435     1.0  0.41847  0.51580  0.14433  1.0000
  H   H1436     1.0  0.43960  0.53117  0.12917  1.0000
  H   H1437     1.0  0.41840  0.53115  0.11961  1.0000
  H   H1438     1.0  0.44557  0.51130  0.04545  1.0000
  H   H1439     1.0  0.46285  0.49902  0.04384  1.0000
  H   H1440     1.0  0.44107  0.48932  0.03625  1.0000
  C   C811      1.0  0.27243  0.42419  0.31605  1.0000
  H   H1441     1.0  0.38277  0.61441  0.42561  1.0000
  H   H1442     1.0  0.30005  0.46066  0.26451  1.0000
  C   C812      1.0  0.42033  0.47779  0.24821  1.0000
  C   C813      1.0  0.45248  0.46808  0.26544  1.0000
  C   C814      1.0  0.45962  0.62637  0.46574  1.0000
  C   C815      1.0  0.28426  0.34010  0.98593  1.0000
  H   H1443     1.0  0.35736  0.35770  0.07244  1.0000
  H   H1444     1.0  0.37916  0.54463  0.44859  1.0000
  C   C816      1.0  0.31890  0.44400  0.30689  1.0000
  H   H1445     1.0  0.38211  0.57568  0.42897  1.0000
  H   H1446     1.0  0.32027  0.45578  0.31587  1.0000
  C   C817      1.0  0.25035  0.47144  0.34386  1.0000
  C   C818      1.0  0.28628  0.44323  0.30675  1.0000
  C   C819      1.0  0.31814  0.33415  0.15081  1.0000
  C   C820      1.0  0.48551  0.63539  0.27164  1.0000
  H   H1447     1.0  0.24754  0.65541  0.41582  1.0000
  H   H1448     1.0  0.24179  0.54879  0.42184  1.0000
  H   H1449     1.0  0.40698  0.58396  0.47433  1.0000
  H   H1450     1.0  0.34569  0.33253  0.13919  1.0000
  H   H1451     1.0  0.45989  0.45844  0.27249  1.0000
  C   C821      1.0  0.32582  0.34642  0.16663  1.0000
  H   H1452     1.0  0.28646  0.33431  0.00179  1.0000
  S   S178      1.0  0.47519  0.58897  0.33050  1.0000
  H   H1453     1.0  0.33011  0.33843  0.18021  1.0000
  Fe  Fe89      1.0  0.48556  0.36986  0.19986  1.0000
  H   H1454     1.0  0.25306  0.65045  0.44297  1.0000
  C   C822      1.0  0.46556  0.49211  0.28778  1.0000
  C   C823      1.0  0.41253  0.33121  0.19257  1.0000
  H   H1455     1.0  0.34648  0.34932  0.99148  1.0000
  H   H1456     1.0  0.47166  0.48236  0.29705  1.0000
  H   H1457     1.0  0.34085  0.33491  0.01817  1.0000
  H   H1458     1.0  0.26940  0.53454  0.47334  1.0000
  C   C824      1.0  0.35494  0.55118  0.47600  1.0000
  H   H1459     1.0  0.34906  0.53727  0.47244  1.0000
  H   H1460     1.0  0.39982  0.34027  0.10829  1.0000
  H   H1461     1.0  0.39427  0.33271  0.14845  1.0000
  C   C825      1.0  0.40831  0.33424  0.13983  1.0000
  H   H1462     1.0  0.48601  0.44889  0.20085  1.0000
  H   H1463     1.0  0.36652  0.32848  0.99464  1.0000
  C   C826      1.0  0.24201  0.65209  0.43371  1.0000
  H   H1464     1.0  0.24054  0.61208  0.46938  1.0000
  H   H1465     1.0  0.48653  0.52837  0.16528  1.0000
  H   H1466     1.0  0.23965  0.57267  0.44007  1.0000
  C   C827      1.0  0.24001  0.60301  0.45682  1.0000
  C   C828      1.0  0.35110  0.49973  0.48190  1.0000
  C   C829      1.0  0.27855  0.35618  0.98350  1.0000
  C   C830      1.0  0.37451  0.55322  0.48023  1.0000
  H   H1467     1.0  0.36707  0.64153  0.32548  1.0000
  H   H1468     1.0  0.29620  0.40628  0.70351  1.0000
  H   H1469     1.0  0.42724  0.64175  0.62976  1.0000
  H   H1470     1.0  0.41132  0.55435  0.49008  1.0000
  Fe  Fe90      1.0  0.35302  0.51022  0.53482  1.0000
  S   S179      1.0  0.34545  0.53624  0.53882  1.0000
  S   S180      1.0  0.33985  0.49565  0.50940  1.0000
  Fe  Fe91      1.0  0.37268  0.51163  0.57468  1.0000
  S   S181      1.0  0.36621  0.53767  0.58161  1.0000
  S   S182      1.0  0.38978  0.49757  0.59443  1.0000
  Fe  Fe92      1.0  0.33835  0.52441  0.57462  1.0000
  S   S183      1.0  0.31190  0.52723  0.59236  1.0000
  Fe  Fe93      1.0  0.37392  0.54692  0.54505  1.0000
  S   S184      1.0  0.39095  0.57489  0.52688  1.0000
  S   S185      1.0  0.34413  0.49758  0.57060  1.0000
  S   S186      1.0  0.38229  0.52171  0.53819  1.0000
  S   S187      1.0  0.43844  0.62617  0.58138  1.0000
  Fe  Fe94      1.0  0.40218  0.47743  0.71497  1.0000
  S   S188      1.0  0.41073  0.48050  0.74789  1.0000
  S   S189      1.0  0.38864  0.49666  0.69672  1.0000
  Fe  Fe95      1.0  0.41450  0.44310  0.71314  1.0000
  S   S190      1.0  0.42440  0.44336  0.74505  1.0000
  S   S191      1.0  0.41354  0.42098  0.69290  1.0000
  Fe  Fe96      1.0  0.39813  0.44979  0.75725  1.0000
  S   S192      1.0  0.38395  0.43432  0.79155  1.0000
  Fe  Fe97      1.0  0.43626  0.47379  0.73327  1.0000
  S   S193      1.0  0.46560  0.48557  0.73798  1.0000
  S   S194      1.0  0.38741  0.44749  0.72579  1.0000
  S   S195      1.0  0.42854  0.47279  0.69987  1.0000
  H   H1471     1.0  0.27163  0.61992  0.54053  1.0000
  H   H1472     1.0  0.35442  0.38448  0.71743  1.0000
  H   H1473     1.0  0.40893  0.54120  0.77227  1.0000
  S   S196      1.0  0.27143  0.35591  0.87346  1.0000
  H   H1474     1.0  0.39316  0.44586  0.64286  1.0000
  H   H1475     1.0  0.38989  0.42245  0.65585  1.0000
  H   H1476     1.0  0.42652  0.37952  0.74931  1.0000
  Fe  Fe98      1.0  0.28961  0.35284  0.84322  1.0000
  S   S197      1.0  0.30544  0.37530  0.81387  1.0000
  H   H1477     1.0  0.26743  0.43679  0.52817  1.0000
  C   C831      1.0  0.47464  0.50919  0.73876  1.0000
  C   C832      1.0  0.42587  0.35240  0.74370  1.0000
  H   H1478     1.0  0.34623  0.55295  0.49084  1.0000
  C   C833      1.0  0.29009  0.51302  0.52241  1.0000
  C   C834      1.0  0.47076  0.53970  0.74025  1.0000
  C   C835      1.0  0.46389  0.52150  0.73705  1.0000
  H   H1479     1.0  0.36614  0.37965  0.78703  1.0000
  H   H1480     1.0  0.27143  0.59038  0.56638  1.0000
  H   H1481     1.0  0.45008  0.51685  0.73395  1.0000
  C   C836      1.0  0.43034  0.40899  0.69256  1.0000
  C   C837      1.0  0.43225  0.39897  0.67567  1.0000
  C   C838      1.0  0.44519  0.38893  0.67467  1.0000
  C   C839      1.0  0.45604  0.38836  0.69088  1.0000
  C   C840      1.0  0.45405  0.39815  0.70812  1.0000
  C   C841      1.0  0.44131  0.40870  0.70881  1.0000
  H   H1482     1.0  0.42380  0.39913  0.66311  1.0000
  H   H1483     1.0  0.28700  0.52071  0.50764  1.0000
  H   H1484     1.0  0.46239  0.39767  0.72070  1.0000
  H   H1485     1.0  0.43980  0.41634  0.72198  1.0000
  C   C842      1.0  0.36231  0.41760  0.79741  1.0000
  C   C843      1.0  0.35062  0.41568  0.78201  1.0000
  C   C844      1.0  0.33336  0.40263  0.78738  1.0000
  C   C845      1.0  0.32754  0.39126  0.80817  1.0000
  C   C846      1.0  0.33937  0.39294  0.82348  1.0000
  C   C847      1.0  0.35662  0.40611  0.81814  1.0000
  H   H1486     1.0  0.35473  0.42446  0.76608  1.0000
  H   H1487     1.0  0.32434  0.40144  0.77542  1.0000
  H   H1488     1.0  0.33508  0.38432  0.83953  1.0000
  H   H1489     1.0  0.36551  0.40751  0.83023  1.0000
  H   H1490     1.0  0.32249  0.48320  0.61696  1.0000
  H   H1491     1.0  0.34748  0.47213  0.62987  1.0000
  H   H1492     1.0  0.43181  0.58190  0.49909  1.0000
  C   C848      1.0  0.47343  0.46377  0.67553  1.0000
  C   C849      1.0  0.38936  0.49776  0.62277  1.0000
  C   C850      1.0  0.37861  0.50686  0.63450  1.0000
  C   C851      1.0  0.37871  0.50666  0.65709  1.0000
  C   C852      1.0  0.38939  0.49724  0.66815  1.0000
  C   C853      1.0  0.40017  0.48820  0.65637  1.0000
  C   C854      1.0  0.40014  0.48847  0.63379  1.0000
  H   H1493     1.0  0.37022  0.51404  0.62619  1.0000
  H   H1494     1.0  0.37028  0.51366  0.66609  1.0000
  H   H1495     1.0  0.40839  0.48081  0.66463  1.0000
  H   H1496     1.0  0.40843  0.48133  0.62482  1.0000
  C   C855      1.0  0.40374  0.58930  0.54226  1.0000
  C   C856      1.0  0.41934  0.60318  0.53147  1.0000
  C   C857      1.0  0.43021  0.61433  0.54347  1.0000
  C   C858      1.0  0.42502  0.61224  0.56621  1.0000
  C   C859      1.0  0.40902  0.59890  0.57694  1.0000
  C   C860      1.0  0.39857  0.58720  0.56504  1.0000
  H   H1497     1.0  0.42320  0.60522  0.51382  1.0000
  H   H1498     1.0  0.44248  0.62469  0.53506  1.0000
  H   H1499     1.0  0.40491  0.59733  0.59452  1.0000
  H   H1500     1.0  0.38645  0.57672  0.57347  1.0000
  S   S198      1.0  0.28902  0.32766  0.92477  1.0000
  H   H1501     1.0  0.39263  0.40328  0.77226  1.0000
  H   H1502     1.0  0.30498  0.46493  0.52309  1.0000
  C   C861      1.0  0.35850  0.44891  0.65928  1.0000
  C   C862      1.0  0.28981  0.55947  0.51759  1.0000
  S   S199      1.0  0.30112  0.33216  0.86171  1.0000
  C   C863      1.0  0.26081  0.48610  0.58105  1.0000
  C   C864      1.0  0.27707  0.48092  0.58154  1.0000
  C   C865      1.0  0.29297  0.49361  0.58442  1.0000
  C   C866      1.0  0.29249  0.51133  0.58752  1.0000
  C   C867      1.0  0.27615  0.51637  0.58722  1.0000
  C   C868      1.0  0.26046  0.50393  0.58362  1.0000
  H   H1503     1.0  0.27738  0.46713  0.57964  1.0000
  H   H1504     1.0  0.30542  0.48949  0.58486  1.0000
  H   H1505     1.0  0.27559  0.52991  0.58970  1.0000
  H   H1506     1.0  0.24797  0.50803  0.58333  1.0000
  H   H1507     1.0  0.32606  0.45461  0.63748  1.0000
  N   N46       1.0  0.27053  0.46395  0.50952  1.0000
  H   H1508     1.0  0.37835  0.50531  0.48928  1.0000
  N   N47       1.0  0.44013  0.56147  0.60813  1.0000
  C   C869      1.0  0.42629  0.55726  0.59315  1.0000
  C   C870      1.0  0.43049  0.56403  0.62976  1.0000
  C   C871      1.0  0.45377  0.57968  0.59793  1.0000
  C   C872      1.0  0.45030  0.54691  0.61142  1.0000
  C   C873      1.0  0.43980  0.52688  0.61045  1.0000
  C   C874      1.0  0.43444  0.55805  0.56876  1.0000
  C   C875      1.0  0.41581  0.54706  0.64350  1.0000
  C   C876      1.0  0.40616  0.55206  0.66395  1.0000
  C   C877      1.0  0.45010  0.51321  0.61846  1.0000
  C   C878      1.0  0.42031  0.54742  0.55683  1.0000
  H   H1509     1.0  0.41777  0.56713  0.59320  1.0000
  H   H1510     1.0  0.41623  0.54367  0.59925  1.0000
  H   H1511     1.0  0.44043  0.56823  0.64076  1.0000
  H   H1512     1.0  0.42394  0.57547  0.62694  1.0000
  H   H1513     1.0  0.44651  0.59033  0.59369  1.0000
  H   H1514     1.0  0.46140  0.57868  0.58186  1.0000
  H   H1515     1.0  0.46298  0.55028  0.59882  1.0000
  H   H1516     1.0  0.45516  0.54675  0.62746  1.0000
  H   H1517     1.0  0.43811  0.52543  0.59334  1.0000
  H   H1518     1.0  0.42600  0.52271  0.62060  1.0000
  H   H1519     1.0  0.43899  0.57259  0.56012  1.0000
  H   H1520     1.0  0.44644  0.55234  0.56727  1.0000
  H   H1521     1.0  0.40520  0.54145  0.63397  1.0000
  H   H1522     1.0  0.42229  0.53623  0.64930  1.0000
  H   H1523     1.0  0.39619  0.53956  0.67400  1.0000
  H   H1524     1.0  0.41619  0.55775  0.67423  1.0000
  H   H1525     1.0  0.39861  0.56226  0.65924  1.0000
  H   H1526     1.0  0.44265  0.49915  0.61667  1.0000
  C   C879      1.0  0.45891  0.51621  0.80024  1.0000
  H   H1527     1.0  0.45099  0.51316  0.63609  1.0000
  H   H1528     1.0  0.40786  0.55240  0.55846  1.0000
  H   H1529     1.0  0.42608  0.54941  0.53909  1.0000
  H   H1530     1.0  0.41646  0.53250  0.56372  1.0000
  N   N48       1.0  0.34190  0.44994  0.67469  1.0000
  C   C880      1.0  0.33634  0.46661  0.66522  1.0000
  C   C881      1.0  0.34770  0.45269  0.69647  1.0000
  C   C882      1.0  0.32706  0.43216  0.67711  1.0000
  C   C883      1.0  0.30691  0.43307  0.68214  1.0000
  C   C884      1.0  0.36845  0.43459  0.66762  1.0000
  C   C885      1.0  0.33328  0.45551  0.71462  1.0000
  C   C886      1.0  0.34180  0.46041  0.73456  1.0000
  C   C887      1.0  0.29366  0.41382  0.68824  1.0000
  H   H1531     1.0  0.34675  0.47938  0.66636  1.0000
  H   H1532     1.0  0.32355  0.46762  0.67498  1.0000
  H   H1533     1.0  0.35187  0.44063  0.70392  1.0000
  H   H1534     1.0  0.36003  0.46466  0.69384  1.0000
  H   H1535     1.0  0.36879  0.46251  0.65521  1.0000
  H   H1536     1.0  0.32906  0.42163  0.69008  1.0000
  H   H1537     1.0  0.30320  0.44024  0.66746  1.0000
  H   H1538     1.0  0.30451  0.44055  0.69574  1.0000
  H   H1539     1.0  0.37586  0.43912  0.68088  1.0000
  H   H1540     1.0  0.32738  0.46679  0.70888  1.0000
  H   H1541     1.0  0.32221  0.44257  0.72043  1.0000
  H   H1542     1.0  0.33122  0.46231  0.74740  1.0000
  H   H1543     1.0  0.34736  0.44925  0.74165  1.0000
  H   H1544     1.0  0.35299  0.47341  0.72989  1.0000
  H   H1545     1.0  0.29514  0.40591  0.67472  1.0000
  H   H1546     1.0  0.27936  0.41489  0.69115  1.0000
  H   H1547     1.0  0.41106  0.40066  0.75395  1.0000
  H   H1548     1.0  0.37733  0.36371  0.79760  1.0000
  S   S200      1.0  0.26691  0.33124  0.83449  1.0000
  H   H1549     1.0  0.33087  0.33410  0.79669  1.0000
  Fe  Fe99      1.0  0.28118  0.33342  0.89124  1.0000
  H   H1550     1.0  0.30061  0.55219  0.51876  1.0000
  H   H1551     1.0  0.37643  0.40770  0.74642  1.0000
  N   N49       1.0  0.29516  0.58051  0.57081  1.0000
  H   H1552     1.0  0.41454  0.37251  0.72766  1.0000
  H   H1553     1.0  0.44657  0.44774  0.80673  1.0000
  C   C888      1.0  0.27509  0.45137  0.52764  1.0000
  N   N50       1.0  0.43858  0.50748  0.80251  1.0000
  C   C889      1.0  0.43630  0.48976  0.79359  1.0000
  C   C890      1.0  0.43089  0.52035  0.78837  1.0000
  C   C891      1.0  0.41749  0.64965  0.62539  1.0000
  C   C892      1.0  0.42983  0.50464  0.82639  1.0000
  C   C893      1.0  0.41223  0.48846  0.83455  1.0000
  H   H1554     1.0  0.24801  0.51848  0.48629  1.0000
  S   S201      1.0  0.47806  0.65615  0.53194  1.0000
  C   C894      1.0  0.41009  0.51428  0.78817  1.0000
  C   C895      1.0  0.40495  0.52662  0.77004  1.0000
  C   C896      1.0  0.40322  0.48915  0.85771  1.0000
  H   H1555     1.0  0.30107  0.49509  0.50443  1.0000
  H   H1556     1.0  0.29530  0.55773  0.59560  1.0000
  H   H1557     1.0  0.44133  0.49274  0.77552  1.0000
  H   H1558     1.0  0.42168  0.48217  0.79548  1.0000
  H   H1559     1.0  0.43327  0.53396  0.79364  1.0000
  H   H1560     1.0  0.43823  0.52305  0.77114  1.0000
  H   H1561     1.0  0.38958  0.35002  0.75488  1.0000
  H   H1562     1.0  0.45454  0.65609  0.60897  1.0000
  H   H1563     1.0  0.43964  0.50217  0.83735  1.0000
  H   H1564     1.0  0.42660  0.51746  0.83019  1.0000
  H   H1565     1.0  0.41555  0.47508  0.83517  1.0000
  H   H1566     1.0  0.40192  0.48848  0.82377  1.0000
  H   H1567     1.0  0.27665  0.62838  0.56539  1.0000
  H   H1568     1.0  0.24655  0.46468  0.49462  1.0000
  H   H1569     1.0  0.27968  0.51244  0.53691  1.0000
  H   H1570     1.0  0.26158  0.55439  0.59419  1.0000
  H   H1571     1.0  0.40544  0.50002  0.78527  1.0000
  H   H1572     1.0  0.40238  0.51546  0.80406  1.0000
  H   H1573     1.0  0.38992  0.52229  0.77057  1.0000
  H   H1574     1.0  0.41286  0.48855  0.86940  1.0000
  H   H1575     1.0  0.39876  0.50192  0.85786  1.0000
  H   H1576     1.0  0.39097  0.47719  0.86330  1.0000
  C   C897      1.0  0.46884  0.58721  0.61141  1.0000
  H   H1577     1.0  0.36227  0.34043  0.77621  1.0000
  H   H1578     1.0  0.25037  0.44254  0.49984  1.0000
  S   S202      1.0  0.47863  0.33598  0.72937  1.0000
  H   H1579     1.0  0.47498  0.43624  0.70764  1.0000
  C   C898      1.0  0.28288  0.46543  0.48791  1.0000
  H   H1580     1.0  0.44672  0.38143  0.66131  1.0000
  H   H1581     1.0  0.47011  0.57672  0.62476  1.0000
  H   H1582     1.0  0.37624  0.42743  0.63565  1.0000
  H   H1583     1.0  0.24347  0.59181  0.52744  1.0000
  C   C899      1.0  0.28569  0.59577  0.56921  1.0000
  H   H1584     1.0  0.46051  0.37355  0.79639  1.0000
  C   C900      1.0  0.48476  0.44959  0.70814  1.0000
  H   H1585     1.0  0.30766  0.62122  0.55726  1.0000
  H   H1586     1.0  0.29754  0.47006  0.48926  1.0000
  C   C901      1.0  0.44655  0.47637  0.80363  1.0000
  C   C902      1.0  0.32731  0.57442  0.56806  1.0000
  C   C903      1.0  0.29011  0.57015  0.59419  1.0000
  C   C904      1.0  0.46660  0.36367  0.82822  1.0000
  C   C905      1.0  0.28275  0.62603  0.54918  1.0000
  H   H1587     1.0  0.29062  0.56526  0.50006  1.0000
  C   C906      1.0  0.34773  0.58387  0.56052  1.0000
  H   H1588     1.0  0.46523  0.42919  0.79124  1.0000
  C   C907      1.0  0.35692  0.35229  0.77917  1.0000
  H   H1589     1.0  0.43042  0.40595  0.80520  1.0000
  C   C908      1.0  0.47448  0.42491  0.77900  1.0000
  H   H1590     1.0  0.28425  0.60087  0.58510  1.0000
  C   C909      1.0  0.26610  0.55253  0.62732  1.0000
  C   C910      1.0  0.31573  0.58842  0.56598  1.0000
  H   H1591     1.0  0.41698  0.34067  0.73814  1.0000
  H   H1592     1.0  0.47680  0.36873  0.89011  1.0000
  C   C911      1.0  0.29541  0.45101  0.52636  1.0000
  H   H1593     1.0  0.32549  0.56766  0.58541  1.0000
  H   H1594     1.0  0.32355  0.56374  0.55783  1.0000
  C   C912      1.0  0.29849  0.44082  0.54772  1.0000
  H   H1595     1.0  0.44526  0.37603  0.81967  1.0000
  H   H1596     1.0  0.47704  0.34712  0.86399  1.0000
  C   C913      1.0  0.45976  0.37700  0.81315  1.0000
  H   H1597     1.0  0.29070  0.63951  0.53913  1.0000
  H   H1598     1.0  0.27617  0.54949  0.52360  1.0000
  S   S203      1.0  0.47211  0.37558  0.68830  1.0000
  H   H1599     1.0  0.29690  0.57878  0.60536  1.0000
  H   H1600     1.0  0.29414  0.55493  0.55884  1.0000
  H   H1601     1.0  0.30711  0.58335  0.52535  1.0000
  H   H1602     1.0  0.35254  0.59446  0.57056  1.0000
  H   H1603     1.0  0.35557  0.57349  0.56245  1.0000
  H   H1604     1.0  0.35063  0.59031  0.54290  1.0000
  C   C914      1.0  0.28872  0.56713  0.55592  1.0000
  C   C915      1.0  0.36254  0.39757  0.72117  1.0000
  H   H1605     1.0  0.43429  0.41360  0.77589  1.0000
  H   H1606     1.0  0.41829  0.38025  0.78698  1.0000
  C   C916      1.0  0.27937  0.35524  0.94437  1.0000
  H   H1607     1.0  0.35861  0.42092  0.67400  1.0000
  H   H1608     1.0  0.46734  0.41116  0.77593  1.0000
  H   H1609     1.0  0.47653  0.45685  0.71791  1.0000
  H   H1610     1.0  0.35665  0.38835  0.75585  1.0000
  H   H1611     1.0  0.35376  0.40714  0.72210  1.0000
  Fe  Fe100     1.0  0.46775  0.63693  0.56416  1.0000
  C   C917      1.0  0.42363  0.40835  0.79088  1.0000
  H   H1612     1.0  0.35478  0.44575  0.64331  1.0000
  C   C918      1.0  0.36905  0.39419  0.74306  1.0000
  H   H1613     1.0  0.47755  0.47126  0.65832  1.0000
  H   H1614     1.0  0.41620  0.41887  0.79353  1.0000
  H   H1615     1.0  0.46209  0.54893  0.73980  1.0000
  H   H1616     1.0  0.41181  0.52546  0.75362  1.0000
  H   H1617     1.0  0.45738  0.34977  0.82933  1.0000
  H   H1618     1.0  0.27764  0.36123  0.92832  1.0000
  H   H1619     1.0  0.40016  0.38567  0.80406  1.0000
  H   H1620     1.0  0.39361  0.38817  0.72911  1.0000
  H   H1621     1.0  0.37437  0.40386  0.70764  1.0000
  H   H1622     1.0  0.37457  0.36861  0.73662  1.0000
  H   H1623     1.0  0.28334  0.58337  0.52723  1.0000
  C   C919      1.0  0.41671  0.36802  0.74452  1.0000
  H   H1624     1.0  0.44229  0.45740  0.78062  1.0000
  H   H1625     1.0  0.40077  0.35554  0.77699  1.0000
  C   C920      1.0  0.27624  0.36380  0.96263  1.0000
  C   C921      1.0  0.29281  0.57492  0.53103  1.0000
  C   C922      1.0  0.38277  0.43249  0.64930  1.0000
  H   H1626     1.0  0.32811  0.42616  0.66182  1.0000
  H   H1627     1.0  0.31003  0.47891  0.64454  1.0000
  C   C923      1.0  0.32395  0.48247  0.63448  1.0000
  H   H1628     1.0  0.33186  0.49624  0.63670  1.0000
  H   H1629     1.0  0.43902  0.35730  0.73188  1.0000
  C   C924      1.0  0.33388  0.46799  0.64081  1.0000
  N   N51       1.0  0.38822  0.37619  0.76363  1.0000
  C   C925      1.0  0.39824  0.36169  0.76087  1.0000
  C   C926      1.0  0.37239  0.36862  0.78256  1.0000
  C   C927      1.0  0.38172  0.38118  0.74243  1.0000
  C   C928      1.0  0.40057  0.39331  0.76865  1.0000
  C   C929      1.0  0.41031  0.39043  0.78859  1.0000
  C   C930      1.0  0.34183  0.34573  0.79947  1.0000
  C   C931      1.0  0.39991  0.64195  0.64236  1.0000
  H   H1630     1.0  0.27204  0.37637  0.96060  1.0000
  H   H1631     1.0  0.42889  0.34769  0.76010  1.0000
  H   H1632     1.0  0.46806  0.39133  0.81225  1.0000
  H   H1633     1.0  0.31988  0.59827  0.57723  1.0000
  C   C932      1.0  0.43734  0.57388  0.48767  1.0000
  H   H1634     1.0  0.46138  0.48131  0.79647  1.0000
  H   H1635     1.0  0.27362  0.56132  0.55993  1.0000
  H   H1636     1.0  0.28948  0.42653  0.55160  1.0000
  H   H1637     1.0  0.30372  0.52041  0.52544  1.0000
  H   H1638     1.0  0.32047  0.59664  0.54923  1.0000
  H   H1639     1.0  0.26220  0.48095  0.53167  1.0000
  Fe  Fe101     1.0  0.47722  0.34344  0.76306  1.0000
  C   C933      1.0  0.43948  0.45709  0.79860  1.0000
  H   H1640     1.0  0.29947  0.61020  0.53550  1.0000
  H   H1641     1.0  0.37394  0.54223  0.49418  1.0000
  H   H1642     1.0  0.29431  0.48705  0.53376  1.0000
  H   H1643     1.0  0.44300  0.56393  0.49725  1.0000
  H   H1644     1.0  0.29572  0.44811  0.56151  1.0000
  C   C934      1.0  0.29523  0.61337  0.55186  1.0000
  H   H1645     1.0  0.46344  0.45036  0.67577  1.0000
  H   H1646     1.0  0.46410  0.51671  0.60862  1.0000
  C   C935      1.0  0.26933  0.56347  0.60408  1.0000
  H   H1647     1.0  0.29924  0.44377  0.51291  1.0000
  H   H1648     1.0  0.44512  0.47543  0.82170  1.0000
  C   C936      1.0  0.28750  0.33165  0.96770  1.0000
  H   H1649     1.0  0.31298  0.44033  0.54599  1.0000
  H   H1650     1.0  0.40266  0.64367  0.65909  1.0000
  H   H1651     1.0  0.35047  0.35623  0.76505  1.0000
  H   H1652     1.0  0.26614  0.49100  0.50364  1.0000
  H   H1653     1.0  0.46670  0.61536  0.60756  1.0000
  H   H1654     1.0  0.46685  0.43976  0.75173  1.0000
  H   H1655     1.0  0.46693  0.62843  0.49774  1.0000
  H   H1656     1.0  0.38938  0.64900  0.63839  1.0000
  C   C937      1.0  0.29040  0.49370  0.51889  1.0000
  H   H1657     1.0  0.37922  0.56637  0.48599  1.0000
  H   H1658     1.0  0.34733  0.34102  0.81412  1.0000
  C   C938      1.0  0.25112  0.45543  0.50666  1.0000
  C   C939      1.0  0.27142  0.48249  0.51578  1.0000
  S   S204      1.0  0.24102  0.47034  0.57709  1.0000
  H   H1659     1.0  0.27136  0.54020  0.62722  1.0000
  H   H1660     1.0  0.27038  0.45461  0.54399  1.0000
  H   H1661     1.0  0.33559  0.35696  0.80283  1.0000
  H   H1662     1.0  0.23982  0.44287  0.54173  1.0000
  H   H1663     1.0  0.41408  0.64696  0.60921  1.0000
  H   H1664     1.0  0.47726  0.60880  0.63024  1.0000
  H   H1665     1.0  0.39442  0.62705  0.64228  1.0000
  H   H1666     1.0  0.46677  0.47208  0.68550  1.0000
  H   H1667     1.0  0.45279  0.60068  0.63222  1.0000
  H   H1668     1.0  0.26333  0.57522  0.60511  1.0000
  S   S205      1.0  0.48035  0.37333  0.75044  1.0000
  H   H1669     1.0  0.25118  0.54784  0.63395  1.0000
  H   H1670     1.0  0.46512  0.36750  0.84477  1.0000
  C   C940      1.0  0.46611  0.60398  0.62098  1.0000
  S   S206      1.0  0.45324  0.33177  0.79164  1.0000
  C   C941      1.0  0.28494  0.33908  0.94692  1.0000
  H   H1671     1.0  0.42452  0.45157  0.80478  1.0000
  H   H1672     1.0  0.25506  0.54061  0.49485  1.0000
  H   H1673     1.0  0.46604  0.51663  0.78332  1.0000
  H   H1674     1.0  0.27297  0.56118  0.63833  1.0000
  Fe  Fe102     1.0  0.24926  0.33296  0.86571  1.0000
  H   H1675     1.0  0.24947  0.38079  0.90850  1.0000
  C   C942      1.0  0.47622  0.65764  0.64033  1.0000
  H   H1676     1.0  0.47836  0.65582  0.65766  1.0000
  H   H1677     1.0  0.45609  0.53741  0.82042  1.0000
  Fe  Fe103     1.0  0.48414  0.36618  0.71704  1.0000
  H   H1678     1.0  0.46505  0.50770  0.81131  1.0000
  C   C943      1.0  0.47969  0.43893  0.75769  1.0000
  H   H1679     1.0  0.24385  0.35754  0.94342  1.0000
  S   S207      1.0  0.48518  0.61825  0.55628  1.0000
  C   C944      1.0  0.48688  0.36463  0.81954  1.0000
  H   H1680     1.0  0.46318  0.54600  0.79132  1.0000
  H   H1681     1.0  0.48237  0.59159  0.60033  1.0000
  H   H1682     1.0  0.24692  0.32784  0.94001  1.0000
  H   H1683     1.0  0.47839  0.40003  0.52053  1.0000
  H   H1684     1.0  0.23967  0.33091  0.97867  1.0000
  H   H1685     1.0  0.23853  0.61276  0.55291  1.0000
  C   C945      1.0  0.23932  0.58655  0.54488  1.0000
  S   S208      1.0  0.23867  0.55336  0.53376  1.0000
  H   H1686     1.0  0.48579  0.37108  0.53215  1.0000
  C   C946      1.0  0.46462  0.53602  0.80524  1.0000
  H   H1687     1.0  0.48458  0.37455  0.50334  1.0000
  H   H1688     1.0  0.47247  0.64386  0.63555  1.0000
  H   H1689     1.0  0.28102  0.45156  0.48327  1.0000
  C   C947      1.0  0.48466  0.54146  0.80808  1.0000
  H   H1690     1.0  0.44856  0.65866  0.64945  1.0000
  H   H1691     1.0  0.48425  0.41982  0.73682  1.0000
  H   H1692     1.0  0.48639  0.33154  0.81215  1.0000
  H   H1693     1.0  0.48627  0.45248  0.76163  1.0000
  C   C948      1.0  0.48557  0.33234  0.82997  1.0000
  H   H1694     1.0  0.47073  0.32861  0.83689  1.0000
  H   H1695     1.0  0.48691  0.42395  0.78592  1.0000
  H   H1696     1.0  0.48672  0.53292  0.82290  1.0000
  Fe  Fe104     1.0  0.31721  0.74009  0.38206  1.0000
  S   S209      1.0  0.31259  0.76819  0.37908  1.0000
  S   S210      1.0  0.29768  0.71162  0.39090  1.0000
  Fe  Fe105     1.0  0.35846  0.75525  0.37634  1.0000
  S   S211      1.0  0.35775  0.78475  0.37370  1.0000
  S   S212      1.0  0.38272  0.74397  0.37039  1.0000
  Fe  Fe106     1.0  0.33346  0.77357  0.40144  1.0000
  S   S213      1.0  0.32522  0.78530  0.43151  1.0000
  Fe  Fe107     1.0  0.33710  0.77721  0.35172  1.0000
  S   S214      1.0  0.33901  0.79110  0.31661  1.0000
  S   S215      1.0  0.33645  0.74493  0.40599  1.0000
  S   S216      1.0  0.33951  0.74839  0.35276  1.0000
  Fe  Fe108     1.0  0.46929  0.77550  0.41060  1.0000
  S   S217      1.0  0.44081  0.76934  0.42987  1.0000
  H   H1697     1.0  0.38130  0.76308  0.40717  1.0000
  S   S218      1.0  0.29486  0.90094  0.06046  1.0000
  H   H1698     1.0  0.40431  0.77299  0.43052  1.0000
  Fe  Fe109     1.0  0.28624  0.87398  0.08364  1.0000
  S   S219      1.0  0.31002  0.86564  0.09629  1.0000
  Fe  Fe110     1.0  0.27733  0.88629  0.03894  1.0000
  S   S220      1.0  0.28859  0.89225  0.00272  1.0000
  Fe  Fe111     1.0  0.37847  0.88478  0.23951  1.0000
  S   S221      1.0  0.37686  0.86643  0.21417  1.0000
  S   S222      1.0  0.37109  0.87612  0.27663  1.0000
  Fe  Fe112     1.0  0.39039  0.92007  0.20461  1.0000
  S   S223      1.0  0.38934  0.90427  0.17673  1.0000
  S   S224      1.0  0.39687  0.95116  0.19772  1.0000
  Fe  Fe113     1.0  0.36306  0.88556  0.19657  1.0000
  S   S225      1.0  0.33442  0.87736  0.18812  1.0000
  Fe  Fe114     1.0  0.40336  0.88682  0.19667  1.0000
  S   S226      1.0  0.42874  0.88020  0.18064  1.0000
  S   S227      1.0  0.36321  0.90267  0.22318  1.0000
  S   S228      1.0  0.40584  0.90386  0.22318  1.0000
  C   C949      1.0  0.41525  0.96424  0.20811  1.0000
  S   S229      1.0  0.27092  0.85861  0.06035  1.0000
  C   C950      1.0  0.42505  0.95586  0.22169  1.0000
  H   H1699     1.0  0.32545  0.79908  0.02243  1.0000
  H   H1700     1.0  0.42146  0.94110  0.22600  1.0000
  H   H1701     1.0  0.26605  0.81682  0.04538  1.0000
  C   C951      1.0  0.25841  0.86660  0.99628  1.0000
  H   H1702     1.0  0.25391  0.86412  0.01389  1.0000
  C   C952      1.0  0.31679  0.86989  0.12157  1.0000
  C   C953      1.0  0.33510  0.87154  0.12398  1.0000
  C   C954      1.0  0.34089  0.87439  0.14404  1.0000
  C   C955      1.0  0.32825  0.87503  0.16209  1.0000
  C   C956      1.0  0.30992  0.87321  0.15976  1.0000
  C   C957      1.0  0.30424  0.87088  0.13954  1.0000
  H   H1703     1.0  0.34486  0.87060  0.11023  1.0000
  H   H1704     1.0  0.35500  0.87561  0.14566  1.0000
  H   H1705     1.0  0.30001  0.87351  0.17371  1.0000
  H   H1706     1.0  0.29006  0.86933  0.13800  1.0000
  C   C958      1.0  0.28999  0.95377  0.08233  1.0000
  C   C959      1.0  0.28800  0.96961  0.09054  1.0000
  C   C960      1.0  0.33910  0.69274  0.41576  1.0000
  C   C961      1.0  0.24791  0.85646  0.98305  1.0000
  C   C962      1.0  0.32271  0.96869  0.07148  1.0000
  C   C963      1.0  0.30745  0.95356  0.07242  1.0000
  H   H1707     1.0  0.27459  0.96999  0.09821  1.0000
  H   H1708     1.0  0.33620  0.96804  0.06449  1.0000
  H   H1709     1.0  0.30927  0.94156  0.06594  1.0000
  C   C964      1.0  0.46175  0.89078  0.22579  1.0000
  C   C965      1.0  0.44624  0.88672  0.21578  1.0000
  C   C966      1.0  0.44799  0.88420  0.19391  1.0000
  C   C967      1.0  0.46539  0.88519  0.18235  1.0000
  C   C968      1.0  0.46515  0.68865  0.42456  1.0000
  H   H1710     1.0  0.43291  0.88527  0.22512  1.0000
  H   H1711     1.0  0.46682  0.88306  0.16548  1.0000
  S   S230      1.0  0.47750  0.76743  0.37832  1.0000
  C   C969      1.0  0.28149  0.70496  0.37401  1.0000
  C   C970      1.0  0.27215  0.68633  0.37658  1.0000
  C   C971      1.0  0.25829  0.68059  0.36448  1.0000
  C   C972      1.0  0.26112  0.90666  0.14822  1.0000
  C   C973      1.0  0.26347  0.71203  0.34654  1.0000
  C   C974      1.0  0.27740  0.71781  0.35868  1.0000
  H   H1712     1.0  0.27550  0.67630  0.38813  1.0000
  H   H1713     1.0  0.29202  0.74232  0.41719  1.0000
  H   H1714     1.0  0.28467  0.73220  0.35650  1.0000
  C   C975      1.0  0.33507  0.78199  0.45520  1.0000
  C   C976      1.0  0.42007  0.98347  0.20276  1.0000
  C   C977      1.0  0.35455  0.67349  0.35565  1.0000
  H   H1715     1.0  0.44702  0.96012  0.24043  1.0000
  H   H1716     1.0  0.42886  0.82905  0.32486  1.0000
  C   C978      1.0  0.35142  0.77689  0.45434  1.0000
  C   C979      1.0  0.35020  0.69233  0.39367  1.0000
  H   H1717     1.0  0.35703  0.89259  0.33686  1.0000
  H   H1718     1.0  0.46028  0.89295  0.24263  1.0000
  H   H1719     1.0  0.35821  0.77477  0.43893  1.0000
  C   C980      1.0  0.34926  0.81471  0.30636  1.0000
  C   C981      1.0  0.35069  0.82795  0.31999  1.0000
  C   C982      1.0  0.35760  0.84677  0.31077  1.0000
  C   C983      1.0  0.36336  0.85242  0.28797  1.0000
  C   C984      1.0  0.36251  0.83912  0.27453  1.0000
  C   C985      1.0  0.35527  0.82039  0.28363  1.0000
  H   H1720     1.0  0.34603  0.82372  0.33752  1.0000
  H   H1721     1.0  0.35829  0.85696  0.32133  1.0000
  H   H1722     1.0  0.36740  0.84326  0.25709  1.0000
  H   H1723     1.0  0.35438  0.81022  0.27302  1.0000
  C   C986      1.0  0.39794  0.74954  0.38838  1.0000
  C   C987      1.0  0.41450  0.74481  0.38546  1.0000
  C   C988      1.0  0.42764  0.75070  0.39838  1.0000
  C   C989      1.0  0.42405  0.76098  0.41455  1.0000
  C   C990      1.0  0.40713  0.76498  0.41812  1.0000
  C   C991      1.0  0.39412  0.75942  0.40488  1.0000
  H   H1724     1.0  0.41739  0.73705  0.37277  1.0000
  H   H1725     1.0  0.44049  0.74721  0.39591  1.0000
  C   C992      1.0  0.38571  0.72889  0.31288  1.0000
  H   H1726     1.0  0.36829  0.67710  0.36055  1.0000
  H   H1727     1.0  0.43119  0.70537  0.40661  1.0000
  H   H1728     1.0  0.33232  0.91929  0.07748  1.0000
  N   N52       1.0  0.31327  0.93328  0.13820  1.0000
  H   H1729     1.0  0.48060  0.77225  0.32525  1.0000
  H   H1730     1.0  0.36271  0.67273  0.32027  1.0000
  C   C993      1.0  0.47694  0.94275  0.21216  1.0000
  C   C994      1.0  0.32698  0.82736  0.02653  1.0000
  H   H1731     1.0  0.46792  0.74011  0.46724  1.0000
  H   H1732     1.0  0.47494  0.92766  0.21576  1.0000
  H   H1733     1.0  0.39436  0.93658  0.25443  1.0000
  H   H1734     1.0  0.46679  0.68017  0.41168  1.0000
  C   C995      1.0  0.35299  0.81718  0.20964  1.0000
  H   H1735     1.0  0.28438  0.90065  0.15986  1.0000
  H   H1736     1.0  0.26687  0.93513  0.03488  1.0000
  C   C996      1.0  0.46912  0.93939  0.17616  1.0000
  H   H1737     1.0  0.38131  0.69976  0.31997  1.0000
  H   H1738     1.0  0.39355  0.92037  0.32252  1.0000
  H   H1739     1.0  0.29590  0.83999  0.03349  1.0000
  C   C997      1.0  0.44620  0.69246  0.38547  1.0000
  H   H1740     1.0  0.36445  0.98493  0.02109  1.0000
  H   H1741     1.0  0.28799  0.85375  0.01414  1.0000
  H   H1742     1.0  0.30034  0.77230  0.29152  1.0000
  C   C998      1.0  0.42770  0.71136  0.44613  1.0000
  H   H1743     1.0  0.42361  0.93621  0.17063  1.0000
  H   H1744     1.0  0.45465  0.69148  0.26087  1.0000
  C   C999      1.0  0.30325  0.98481  0.08943  1.0000
  C   C1000     1.0  0.35597  0.66328  0.33584  1.0000
  H   H1745     1.0  0.26275  0.71989  0.41296  1.0000
  H   H1746     1.0  0.40942  0.77268  0.46768  1.0000
  N   N53       1.0  0.43625  0.79429  0.33662  1.0000
  C   C1001     1.0  0.43027  0.79828  0.35909  1.0000
  C   C1002     1.0  0.41951  0.78489  0.32800  1.0000
  C   C1003     1.0  0.44762  0.78078  0.33939  1.0000
  C   C1004     1.0  0.44580  0.80434  0.37234  1.0000
  C   C1005     1.0  0.45355  0.77311  0.31860  1.0000
  C   C1006     1.0  0.40524  0.79582  0.32484  1.0000
  C   C1007     1.0  0.38827  0.78399  0.31824  1.0000
  C   C1008     1.0  0.43951  0.81311  0.39152  1.0000
  C   C1009     1.0  0.46794  0.76277  0.32225  1.0000
  H   H1747     1.0  0.42030  0.78585  0.36942  1.0000
  H   H1748     1.0  0.42261  0.80884  0.35816  1.0000
  H   H1749     1.0  0.42347  0.78147  0.31161  1.0000
  H   H1750     1.0  0.41234  0.77154  0.33906  1.0000
  H   H1751     1.0  0.44023  0.76882  0.35246  1.0000
  H   H1752     1.0  0.46044  0.78724  0.34505  1.0000
  H   H1753     1.0  0.44804  0.83420  0.33857  1.0000
  H   H1754     1.0  0.45002  0.79216  0.37932  1.0000
  H   H1755     1.0  0.45804  0.81426  0.36181  1.0000
  H   H1756     1.0  0.44165  0.76320  0.31464  1.0000
  H   H1757     1.0  0.40054  0.80053  0.34008  1.0000
  H   H1758     1.0  0.41107  0.80779  0.31137  1.0000
  H   H1759     1.0  0.38135  0.77199  0.33142  1.0000
  H   H1760     1.0  0.37846  0.79227  0.31560  1.0000
  H   H1761     1.0  0.39196  0.77906  0.30276  1.0000
  H   H1762     1.0  0.45061  0.81638  0.40128  1.0000
  H   H1763     1.0  0.43615  0.82602  0.38541  1.0000
  H   H1764     1.0  0.42730  0.80348  0.40250  1.0000
  H   H1765     1.0  0.37739  0.91799  0.27096  1.0000
  Fe  Fe115     1.0  0.24611  0.86592  0.07608  1.0000
  C   C1010     1.0  0.33847  0.93230  0.10568  1.0000
  H   H1766     1.0  0.28755  0.93450  0.15671  1.0000
  H   H1767     1.0  0.35962  0.83058  0.19862  1.0000
  C   C1011     1.0  0.45400  0.84508  0.30415  1.0000
  H   H1768     1.0  0.34475  0.91904  0.15162  1.0000
  H   H1769     1.0  0.46014  0.69092  0.38115  1.0000
  H   H1770     1.0  0.46337  0.94492  0.21755  1.0000
  H   H1771     1.0  0.33529  0.89896  0.02270  1.0000
  H   H1772     1.0  0.39675  0.94071  0.14952  1.0000
  C   C1012     1.0  0.27478  0.87979  0.98666  1.0000
  H   H1773     1.0  0.33989  0.94620  0.09645  1.0000
  H   H1774     1.0  0.25128  0.66617  0.36645  1.0000
  H   H1775     1.0  0.28824  0.93674  0.12787  1.0000
  C   C1013     1.0  0.35800  0.90671  0.34025  1.0000
  C   C1014     1.0  0.32079  0.98435  0.08017  1.0000
  C   C1015     1.0  0.34331  0.92798  0.18285  1.0000
  H   H1776     1.0  0.34717  0.94322  0.15066  1.0000
  C   C1016     1.0  0.43958  0.96662  0.22977  1.0000
  C   C1017     1.0  0.44230  0.70350  0.36521  1.0000
  H   H1777     1.0  0.34560  0.66276  0.36936  1.0000
  H   H1778     1.0  0.28528  0.90255  0.13064  1.0000
  Fe  Fe116     1.0  0.26926  0.90604  0.07665  1.0000
  C   C1018     1.0  0.26336  0.81982  0.02840  1.0000
  N   N54       1.0  0.24111  0.70241  0.43883  1.0000
  C   C1019     1.0  0.32437  0.85869  0.25962  1.0000
  H   H1779     1.0  0.37786  0.73934  0.31260  1.0000
  S   S231      1.0  0.26108  0.87949  0.10134  1.0000
  H   H1780     1.0  0.34827  0.81468  0.01498  1.0000
  H   H1781     1.0  0.46245  0.81343  0.32122  1.0000
  H   H1782     1.0  0.33598  0.95805  0.12685  1.0000
  H   H1783     1.0  0.34908  0.93334  0.11615  1.0000
  H   H1784     1.0  0.34799  0.69363  0.42844  1.0000
  H   H1785     1.0  0.44569  0.69715  0.46069  1.0000
  C   C1020     1.0  0.44762  0.81125  0.32055  1.0000
  N   N55       1.0  0.44635  0.69186  0.42726  1.0000
  C   C1021     1.0  0.31861  0.92543  0.15906  1.0000
  H   H1786     1.0  0.40014  0.94521  0.11983  1.0000
  H   H1787     1.0  0.31636  0.82165  0.99690  1.0000
  H   H1788     1.0  0.45946  0.78432  0.30424  1.0000
  H   H1789     1.0  0.33794  0.68517  0.32230  1.0000
  C   C1022     1.0  0.44358  0.82985  0.32346  1.0000
  H   H1790     1.0  0.43631  0.67866  0.38881  1.0000
  H   H1791     1.0  0.45183  0.71756  0.36130  1.0000
  H   H1792     1.0  0.47487  0.97391  0.19385  1.0000
  H   H1793     1.0  0.27922  0.92908  0.99925  1.0000
  C   C1023     1.0  0.35841  0.93844  0.25228  1.0000
  C   C1024     1.0  0.48098  0.88923  0.19242  1.0000
  H   H1794     1.0  0.43684  0.92053  0.16413  1.0000
  H   H1795     1.0  0.29107  0.81189  0.18938  1.0000
  H   H1796     1.0  0.30958  0.92462  0.10700  1.0000
  H   H1797     1.0  0.41527  0.70049  0.44532  1.0000
  H   H1798     1.0  0.44257  0.91431  0.27774  1.0000
  H   H1799     1.0  0.36322  0.70723  0.30877  1.0000
  H   H1800     1.0  0.40495  0.95305  0.31097  1.0000
  H   H1801     1.0  0.45527  0.71587  0.40136  1.0000
  C   C1025     1.0  0.48522  0.97010  0.18235  1.0000
  C   C1026     1.0  0.26592  0.94392  0.01960  1.0000
  C   C1027     1.0  0.32428  0.70417  0.33402  1.0000
  C   C1028     1.0  0.31730  0.96495  0.15085  1.0000
  H   H1802     1.0  0.33944  0.86814  0.00075  1.0000
  H   H1803     1.0  0.33487  0.71655  0.32470  1.0000
  H   H1804     1.0  0.29905  0.74130  0.44353  1.0000
  H   H1805     1.0  0.30342  0.98381  0.01431  1.0000
  H   H1806     1.0  0.28317  0.81983  0.24044  1.0000
  H   H1807     1.0  0.36599  0.93459  0.32335  1.0000
  H   H1808     1.0  0.42945  0.72287  0.43239  1.0000
  H   H1809     1.0  0.37834  0.95908  0.26252  1.0000
  H   H1810     1.0  0.39583  0.73188  0.32401  1.0000
  H   H1811     1.0  0.27738  0.82731  0.99522  1.0000
  H   H1812     1.0  0.43636  0.66327  0.42446  1.0000
  H   H1813     1.0  0.33334  0.88858  0.05093  1.0000
  H   H1814     1.0  0.27125  0.81799  0.20230  1.0000
  H   H1815     1.0  0.42797  0.70449  0.36792  1.0000
  H   H1816     1.0  0.44956  0.95576  0.18320  1.0000
  H   H1817     1.0  0.33279  0.98664  0.01914  1.0000
  H   H1818     1.0  0.34403  0.90741  0.34687  1.0000
  C   C1029     1.0  0.38511  0.91993  0.30927  1.0000
  H   H1819     1.0  0.38285  0.90587  0.30519  1.0000
  H   H1820     1.0  0.38596  0.95691  0.30013  1.0000
  H   H1821     1.0  0.37335  0.70859  0.35474  1.0000
  H   H1822     1.0  0.25757  0.91402  0.13350  1.0000
  C   C1030     1.0  0.33514  0.81099  0.02676  1.0000
  C   C1031     1.0  0.37278  0.70955  0.32056  1.0000
  C   C1032     1.0  0.33602  0.88650  0.03364  1.0000
  H   H1823     1.0  0.34203  0.90651  0.09697  1.0000
  H   H1824     1.0  0.35811  0.92925  0.18255  1.0000
  C   C1033     1.0  0.44947  0.94133  0.18227  1.0000
  S   S232      1.0  0.27042  0.93452  0.08553  1.0000
  H   H1825     1.0  0.42505  0.79521  0.45851  1.0000
  H   H1826     1.0  0.28059  0.71103  0.43978  1.0000
  C   C1034     1.0  0.41199  0.96889  0.27811  1.0000
  H   H1827     1.0  0.40317  0.90643  0.26836  1.0000
  C   C1035     1.0  0.33938  0.92936  0.15941  1.0000
  N   N56       1.0  0.34726  0.69026  0.35293  1.0000
  C   C1036     1.0  0.33269  0.68780  0.33865  1.0000
  H   H1828     1.0  0.25468  0.92078  0.00490  1.0000
  C   C1037     1.0  0.33829  0.69205  0.37537  1.0000
  C   C1038     1.0  0.36261  0.70750  0.34428  1.0000
  C   C1039     1.0  0.41524  0.78602  0.47273  1.0000
  C   C1040     1.0  0.31887  0.92418  0.11927  1.0000
  H   H1829     1.0  0.25671  0.83120  0.02721  1.0000
  H   H1830     1.0  0.46173  0.66415  0.44911  1.0000
  C   C1041     1.0  0.44447  0.98581  0.22427  1.0000
  C   C1042     1.0  0.43765  0.93508  0.16541  1.0000
  C   C1043     1.0  0.29262  0.92931  0.14195  1.0000
  C   C1044     1.0  0.38482  0.93263  0.27047  1.0000
  C   C1045     1.0  0.28707  0.74034  0.43509  1.0000
  H   H1831     1.0  0.42639  0.96845  0.27807  1.0000
  C   C1046     1.0  0.42442  0.71883  0.46739  1.0000
  H   H1832     1.0  0.32543  0.68073  0.38130  1.0000
  C   C1047     1.0  0.44501  0.70411  0.44418  1.0000
  H   H1833     1.0  0.33409  0.70503  0.37460  1.0000
  H   H1834     1.0  0.35757  0.71985  0.34552  1.0000
  H   H1835     1.0  0.41250  0.98799  0.09184  1.0000
  H   H1836     1.0  0.28705  0.81307  0.01311  1.0000
  H   H1837     1.0  0.25653  0.91218  0.16292  1.0000
  H   H1838     1.0  0.26002  0.72202  0.33503  1.0000
  N   N57       1.0  0.31338  0.84849  0.00130  1.0000
  H   H1839     1.0  0.30341  0.71162  0.31733  1.0000
  H   H1840     1.0  0.36202  0.70476  0.38987  1.0000
  C   C1048     1.0  0.44470  0.70231  0.40555  1.0000
  H   H1841     1.0  0.44433  0.69655  0.35089  1.0000
  H   H1842     1.0  0.40403  0.79242  0.47726  1.0000
  H   H1843     1.0  0.36659  0.93995  0.23572  1.0000
  C   C1049     1.0  0.28116  0.82498  0.01171  1.0000
  H   H1844     1.0  0.30694  0.67896  0.47071  1.0000
  H   H1845     1.0  0.36215  0.94356  0.28438  1.0000
  H   H1846     1.0  0.31721  0.90933  0.12522  1.0000
  H   H1847     1.0  0.35634  0.92684  0.07878  1.0000
  C   C1050     1.0  0.32650  0.78492  0.47525  1.0000
  C   C1051     1.0  0.29477  0.84244  0.01588  1.0000
  H   H1848     1.0  0.34998  0.88462  0.03018  1.0000
  H   H1849     1.0  0.28080  0.75152  0.43866  1.0000
  H   H1850     1.0  0.31190  0.93002  0.17341  1.0000
  H   H1851     1.0  0.31422  0.82297  0.03890  1.0000
  C   C1052     1.0  0.34248  0.92047  0.08872  1.0000
  H   H1852     1.0  0.31326  0.91023  0.16264  1.0000
  C   C1053     1.0  0.46335  0.68591  0.27131  1.0000
  H   H1853     1.0  0.45712  0.71643  0.44030  1.0000
  C   C1054     1.0  0.27328  0.72154  0.44290  1.0000
  H   H1854     1.0  0.46899  0.84693  0.30271  1.0000
  C   C1055     1.0  0.40533  0.97820  0.13667  1.0000
  N   N58       1.0  0.39523  0.93423  0.28942  1.0000
  H   H1855     1.0  0.28603  0.83272  0.17821  1.0000
  H   H1856     1.0  0.47154  0.75695  0.30742  1.0000
  H   H1857     1.0  0.30811  0.87210  0.03469  1.0000
  C   C1056     1.0  0.38734  0.96375  0.13583  1.0000
  C   C1057     1.0  0.37096  0.94439  0.26853  1.0000
  H   H1858     1.0  0.36343  0.73365  0.47644  1.0000
  H   H1859     1.0  0.37761  0.93447  0.13559  1.0000
  H   H1860     1.0  0.34892  0.94727  0.25107  1.0000
  C   C1058     1.0  0.39070  0.94490  0.13513  1.0000
  H   H1861     1.0  0.39323  0.73000  0.29603  1.0000
  H   H1862     1.0  0.40947  0.97422  0.15271  1.0000
  H   H1863     1.0  0.41604  0.97630  0.12409  1.0000
  H   H1864     1.0  0.24294  0.69579  0.47328  1.0000
  H   H1865     1.0  0.44968  0.84176  0.28855  1.0000
  H   H1866     1.0  0.25836  0.68470  0.44663  1.0000
  C   C1059     1.0  0.32170  0.86958  0.03044  1.0000
  C   C1060     1.0  0.30909  0.69964  0.32045  1.0000
  H   H1867     1.0  0.40975  0.90123  0.29457  1.0000
  H   H1868     1.0  0.25188  0.73199  0.43058  1.0000
  C   C1061     1.0  0.47917  0.89226  0.21413  1.0000
  H   H1869     1.0  0.37714  0.96237  0.15083  1.0000
  H   H1870     1.0  0.38149  0.96752  0.12113  1.0000
  C   C1062     1.0  0.29855  0.78639  0.29007  1.0000
  H   H1871     1.0  0.31158  0.83955  0.19872  1.0000
  H   H1872     1.0  0.35016  0.92394  0.25785  1.0000
  C   C1063     1.0  0.28568  0.82343  0.19370  1.0000
  C   C1064     1.0  0.29744  0.83411  0.20809  1.0000
  H   H1873     1.0  0.32128  0.67535  0.34621  1.0000
  H   H1874     1.0  0.32224  0.85773  0.04241  1.0000
  H   H1875     1.0  0.29731  0.80816  0.22698  1.0000
  C   C1065     1.0  0.29694  0.82195  0.23037  1.0000
  C   C1066     1.0  0.32096  0.95392  0.13237  1.0000
  C   C1067     1.0  0.36582  0.92090  0.31919  1.0000
  H   H1876     1.0  0.32754  0.68010  0.42098  1.0000
  H   H1877     1.0  0.31806  0.70763  0.34935  1.0000
  H   H1878     1.0  0.42287  0.70809  0.48196  1.0000
  H   H1879     1.0  0.41921  0.67509  0.42593  1.0000
  H   H1880     1.0  0.32412  0.88599  0.24390  1.0000
  H   H1881     1.0  0.25376  0.80741  0.02501  1.0000
  H   H1882     1.0  0.27769  0.97413  0.04605  1.0000
  C   C1068     1.0  0.42468  0.66535  0.45750  1.0000
  C   C1069     1.0  0.41334  0.91108  0.27879  1.0000
  C   C1070     1.0  0.39884  0.95307  0.29573  1.0000
  H   H1883     1.0  0.36672  0.90945  0.35292  1.0000
  H   H1884     1.0  0.31546  0.95924  0.11803  1.0000
  H   H1885     1.0  0.40898  0.96771  0.26141  1.0000
  H   H1886     1.0  0.32340  0.96084  0.16521  1.0000
  H   H1887     1.0  0.31446  0.69649  0.30440  1.0000
  H   H1888     1.0  0.35417  0.80604  0.20024  1.0000
  H   H1889     1.0  0.36034  0.81594  0.22371  1.0000
  H   H1890     1.0  0.46813  0.92440  0.17924  1.0000
  H   H1891     1.0  0.25363  0.89189  0.15046  1.0000
  H   H1892     1.0  0.48282  0.68538  0.24337  1.0000
  H   H1893     1.0  0.33787  0.80682  0.04347  1.0000
  H   H1894     1.0  0.44274  0.93250  0.19835  1.0000
  C   C1071     1.0  0.32456  0.86638  0.00628  1.0000
  H   H1895     1.0  0.44648  0.80924  0.30339  1.0000
  H   H1896     1.0  0.29202  0.84598  0.21093  1.0000
  C   C1072     1.0  0.43162  0.67377  0.43276  1.0000
  S   S233      1.0  0.25194  0.89317  0.05321  1.0000
  C   C1073     1.0  0.25360  0.69346  0.34979  1.0000
  H   H1897     1.0  0.32953  0.70721  0.47425  1.0000
  H   H1898     1.0  0.46261  0.75132  0.33648  1.0000
  H   H1899     1.0  0.46491  0.66453  0.25271  1.0000
  C   C1074     1.0  0.24812  0.68592  0.43588  1.0000
  H   H1900     1.0  0.32157  0.79608  0.26382  1.0000
  H   H1901     1.0  0.34021  0.83118  0.24324  1.0000
  H   H1902     1.0  0.33704  0.83853  0.03156  1.0000
  C   C1075     1.0  0.43202  0.91025  0.26744  1.0000
  H   H1903     1.0  0.30505  0.79314  0.30278  1.0000
  H   H1904     1.0  0.43120  0.89596  0.26490  1.0000
  H   H1905     1.0  0.45108  0.85825  0.30678  1.0000
  H   H1906     1.0  0.28479  0.75952  0.48235  1.0000
  H   H1907     1.0  0.33979  0.93921  0.19061  1.0000
  H   H1908     1.0  0.29775  0.68774  0.32953  1.0000
  H   H1909     1.0  0.29654  0.84800  0.25423  1.0000
  H   H1910     1.0  0.33531  0.91457  0.19299  1.0000
  H   H1911     1.0  0.31328  0.85772  0.23013  1.0000
  H   H1912     1.0  0.43619  0.91940  0.25113  1.0000
  C   C1076     1.0  0.30732  0.79724  0.26706  1.0000
  H   H1913     1.0  0.31814  0.82312  0.27561  1.0000
  C   C1077     1.0  0.33282  0.81555  0.21774  1.0000
  H   H1914     1.0  0.33869  0.86008  0.25187  1.0000
  H   H1915     1.0  0.32653  0.80159  0.22730  1.0000
  C   C1078     1.0  0.31063  0.84848  0.24626  1.0000
  H   H1916     1.0  0.47311  0.94389  0.15810  1.0000
  H   H1917     1.0  0.33625  0.84402  0.21951  1.0000
  H   H1918     1.0  0.30857  0.87722  0.26982  1.0000
  C   C1079     1.0  0.33069  0.83078  0.23128  1.0000
  H   H1919     1.0  0.32208  0.85153  0.27685  1.0000
  H   H1920     1.0  0.28368  0.78534  0.29329  1.0000
  H   H1921     1.0  0.35630  0.91753  0.30750  1.0000
  C   C1080     1.0  0.30767  0.81775  0.26569  1.0000
  C   C1081     1.0  0.28171  0.90875  0.14514  1.0000
  H   H1922     1.0  0.29946  0.79044  0.25544  1.0000
  H   H1923     1.0  0.27774  0.95633  0.01619  1.0000
  H   H1924     1.0  0.42122  0.94023  0.26759  1.0000
  H   H1925     1.0  0.24188  0.71615  0.39241  1.0000
  C   C1082     1.0  0.41365  0.93073  0.28292  1.0000
  C   C1083     1.0  0.31483  0.70686  0.47761  1.0000
  H   H1926     1.0  0.44329  0.94386  0.14903  1.0000
  H   H1927     1.0  0.32626  0.81678  0.20302  1.0000
  H   H1928     1.0  0.33286  0.88532  0.26934  1.0000
  C   C1084     1.0  0.32230  0.87799  0.26068  1.0000
  N   N59       1.0  0.31172  0.82944  0.24308  1.0000
  H   H1929     1.0  0.29434  0.81846  0.27475  1.0000
  H   H1930     1.0  0.42233  0.93371  0.29567  1.0000
  H   H1931     1.0  0.33357  0.70491  0.41453  1.0000
  C   C1085     1.0  0.26636  0.93334  0.00053  1.0000
  C   C1086     1.0  0.48202  0.94188  0.25153  1.0000
  H   H1932     1.0  0.30244  0.96288  0.15628  1.0000
  H   H1933     1.0  0.26888  0.72008  0.46085  1.0000
  H   H1934     1.0  0.35548  0.68004  0.39582  1.0000
  H   H1935     1.0  0.31382  0.72043  0.47006  1.0000
  H   H1936     1.0  0.26720  0.98883  0.02983  1.0000
  C   C1087     1.0  0.30450  0.69254  0.46558  1.0000
  H   H1937     1.0  0.48173  0.92711  0.25325  1.0000
  H   H1938     1.0  0.28956  0.69117  0.46900  1.0000
  H   H1939     1.0  0.48430  0.71966  0.32766  1.0000
  H   H1940     1.0  0.47975  0.66250  0.28910  1.0000
  C   C1088     1.0  0.32350  0.83389  0.00332  1.0000
  H   H1941     1.0  0.30925  0.69689  0.44759  1.0000
  H   H1942     1.0  0.41582  0.67311  0.46520  1.0000
  H   H1943     1.0  0.26945  0.99145  0.05771  1.0000
  H   H1944     1.0  0.48674  0.79646  0.45423  1.0000
  C   C1089     1.0  0.25686  0.71945  0.43038  1.0000
  C   C1090     1.0  0.47034  0.67855  0.44494  1.0000
  H   H1945     1.0  0.43591  0.66564  0.46696  1.0000
  H   H1946     1.0  0.41171  0.72343  0.46822  1.0000
  C   C1091     1.0  0.27616  0.98826  0.04235  1.0000
  H   H1947     1.0  0.25578  0.68780  0.41891  1.0000
  C   C1092     1.0  0.32584  0.98557  0.14296  1.0000
  H   H1948     1.0  0.46804  0.94311  0.25702  1.0000
  C   C1093     1.0  0.35939  0.77526  0.47328  1.0000
  S   S234      1.0  0.48126  0.68128  0.32743  1.0000
  N   N60       1.0  0.48338  0.94971  0.18785  1.0000
  H   H1949     1.0  0.43590  0.73092  0.46767  1.0000
  H   H1950     1.0  0.46893  0.68549  0.45930  1.0000
  H   H1951     1.0  0.47252  0.69752  0.27683  1.0000
  H   H1952     1.0  0.47577  0.70201  0.41887  1.0000
  H   H1953     1.0  0.34080  0.98860  0.13696  1.0000
  H   H1954     1.0  0.48186  0.97374  0.16579  1.0000
  H   H1955     1.0  0.32139  0.87831  0.99673  1.0000
  H   H1956     1.0  0.37238  0.77198  0.47223  1.0000
  H   H1957     1.0  0.31390  0.78898  0.47597  1.0000
  C   C1094     1.0  0.47457  0.67562  0.25825  1.0000
  H   H1958     1.0  0.33724  0.83889  0.99271  1.0000
  H   H1959     1.0  0.41246  0.99015  0.19257  1.0000
  H   H1960     1.0  0.31931  0.99073  0.12951  1.0000
  H   H1961     1.0  0.45434  0.67650  0.28598  1.0000
  H   H1962     1.0  0.37611  0.99158  0.14947  1.0000
  H   H1963     1.0  0.44116  0.99262  0.14090  1.0000
  C   C1095     1.0  0.41081  0.98777  0.28265  1.0000
  H   H1964     1.0  0.25298  0.94802  0.02239  1.0000
  H   H1965     1.0  0.41410  0.98970  0.29911  1.0000
  H   H1966     1.0  0.39691  0.98941  0.28170  1.0000
  H   H1967     1.0  0.39166  0.99222  0.16827  1.0000
  H   H1968     1.0  0.32370  0.99309  0.15670  1.0000
  H   H1969     1.0  0.31779  0.97924  0.98263  1.0000
  Fe  Fe117     1.0  0.34773  0.77427  0.55176  1.0000
  S   S235      1.0  0.33935  0.74638  0.57297  1.0000
  S   S236      1.0  0.36146  0.77610  0.51661  1.0000
  Fe  Fe118     1.0  0.34287  0.79359  0.59150  1.0000
  S   S237      1.0  0.33428  0.76711  0.61563  1.0000
  S   S238      1.0  0.34715  0.82225  0.60026  1.0000
  Fe  Fe119     1.0  0.35678  0.75951  0.59548  1.0000
  S   S239      1.0  0.37637  0.74510  0.60838  1.0000
  Fe  Fe120     1.0  0.31726  0.75602  0.59122  1.0000
  S   S240      1.0  0.29036  0.73501  0.60626  1.0000
  S   S241      1.0  0.36695  0.78672  0.57319  1.0000
  S   S242      1.0  0.32406  0.78322  0.56813  1.0000
  S   S243      1.0  0.44285  0.80223  0.63102  1.0000
  Fe  Fe121     1.0  0.25496  0.88856  0.86949  1.0000
  S   S244      1.0  0.27374  0.87724  0.88834  1.0000
  S   S245      1.0  0.26038  0.91983  0.86061  1.0000
  S   S246      1.0  0.24920  0.83611  0.88487  1.0000
  Fe  Fe122     1.0  0.24797  0.85675  0.90703  1.0000
  H   H1970     1.0  0.42818  0.68324  0.58299  1.0000
  Fe  Fe123     1.0  0.27310  0.85794  0.86407  1.0000
  S   S247      1.0  0.29902  0.85085  0.85037  1.0000
  S   S248      1.0  0.25557  0.87018  0.84393  1.0000
  Fe  Fe124     1.0  0.40668  0.87298  0.73602  1.0000
  S   S249      1.0  0.40947  0.87608  0.69957  1.0000
  S   S250      1.0  0.42733  0.86102  0.75097  1.0000
  Fe  Fe125     1.0  0.37246  0.88704  0.74052  1.0000
  S   S251      1.0  0.37325  0.89155  0.70389  1.0000
  S   S252      1.0  0.34918  0.89493  0.76007  1.0000
  Fe  Fe126     1.0  0.37903  0.86394  0.70522  1.0000
  S   S253      1.0  0.36449  0.83771  0.69418  1.0000
  Fe  Fe127     1.0  0.40359  0.90327  0.70182  1.0000
  S   S254      1.0  0.42301  0.92838  0.67967  1.0000
  S   S255      1.0  0.37660  0.85888  0.74200  1.0000
  S   S256      1.0  0.40248  0.90084  0.73818  1.0000
  C   C1096     1.0  0.42702  0.94852  0.69126  1.0000
  C   C1097     1.0  0.41353  0.95133  0.70683  1.0000
  C   C1098     1.0  0.44647  0.97895  0.69216  1.0000
  C   C1099     1.0  0.44353  0.96234  0.68400  1.0000
  H   H1971     1.0  0.40069  0.94082  0.71237  1.0000
  H   H1972     1.0  0.45393  0.96027  0.67182  1.0000
  C   C1100     1.0  0.31281  0.86305  0.82516  1.0000
  C   C1101     1.0  0.30766  0.87670  0.81225  1.0000
  C   C1102     1.0  0.31903  0.88637  0.79240  1.0000
  C   C1103     1.0  0.33553  0.88234  0.78516  1.0000
  C   C1104     1.0  0.34060  0.86853  0.79792  1.0000
  C   C1105     1.0  0.32927  0.85894  0.81787  1.0000
  H   H1973     1.0  0.29490  0.87979  0.81757  1.0000
  H   H1974     1.0  0.31496  0.89693  0.78251  1.0000
  H   H1975     1.0  0.35330  0.86534  0.79251  1.0000
  H   H1976     1.0  0.33331  0.84835  0.82775  1.0000
  C   C1106     1.0  0.27618  0.93716  0.87016  1.0000
  C   C1107     1.0  0.28684  0.93292  0.88559  1.0000
  H   H1977     1.0  0.41310  0.98028  0.63121  1.0000
  H   H1978     1.0  0.28581  0.91870  0.89181  1.0000
  H   H1979     1.0  0.33337  0.73610  0.49048  1.0000
  C   C1108     1.0  0.25355  0.85976  0.96019  1.0000
  H   H1980     1.0  0.45930  0.91556  0.65716  1.0000
  H   H1981     1.0  0.45386  0.73195  0.53637  1.0000
  C   C1109     1.0  0.45308  0.89267  0.73036  1.0000
  C   C1110     1.0  0.44977  0.87550  0.74354  1.0000
  C   C1111     1.0  0.46437  0.87017  0.75131  1.0000
  C   C1112     1.0  0.42496  0.78590  0.53923  1.0000
  H   H1982     1.0  0.44192  0.89685  0.72427  1.0000
  H   H1983     1.0  0.46187  0.85686  0.76153  1.0000
  C   C1113     1.0  0.42513  0.78311  0.49203  1.0000
  C   C1114     1.0  0.27503  0.72469  0.59013  1.0000
  C   C1115     1.0  0.26404  0.70664  0.59782  1.0000
  C   C1116     1.0  0.25135  0.69811  0.58557  1.0000
  H   H1984     1.0  0.34313  0.99204  0.82182  1.0000
  C   C1117     1.0  0.25983  0.72605  0.55855  1.0000
  C   C1118     1.0  0.27295  0.73438  0.57041  1.0000
  H   H1985     1.0  0.26555  0.69916  0.61317  1.0000
  C   C1119     1.0  0.41585  0.98980  0.64308  1.0000
  H   H1986     1.0  0.33686  0.85166  0.95899  1.0000
  H   H1987     1.0  0.28110  0.74842  0.56465  1.0000
  C   C1120     1.0  0.35246  0.82650  0.62622  1.0000
  C   C1121     1.0  0.35044  0.81209  0.64359  1.0000
  C   C1122     1.0  0.35406  0.81587  0.66425  1.0000
  C   C1123     1.0  0.36021  0.83404  0.66769  1.0000
  C   C1124     1.0  0.36254  0.84850  0.65025  1.0000
  C   C1125     1.0  0.35857  0.84472  0.62964  1.0000
  H   H1988     1.0  0.34569  0.79803  0.64127  1.0000
  H   H1989     1.0  0.35200  0.80461  0.67769  1.0000
  H   H1990     1.0  0.36717  0.86255  0.65272  1.0000
  H   H1991     1.0  0.36013  0.85596  0.61633  1.0000
  C   C1126     1.0  0.39403  0.76035  0.61696  1.0000
  C   C1127     1.0  0.41014  0.75542  0.61934  1.0000
  C   C1128     1.0  0.42509  0.76812  0.62422  1.0000
  C   C1129     1.0  0.42372  0.78556  0.62727  1.0000
  C   C1130     1.0  0.40719  0.79004  0.62625  1.0000
  C   C1131     1.0  0.39243  0.77759  0.62066  1.0000
  H   H1992     1.0  0.41111  0.74190  0.61699  1.0000
  H   H1993     1.0  0.43763  0.76440  0.62580  1.0000
  H   H1994     1.0  0.40596  0.80331  0.62918  1.0000
  H   H1995     1.0  0.37985  0.78132  0.61928  1.0000
  C   C1132     1.0  0.43436  0.80593  0.56726  1.0000
  C   C1133     1.0  0.28528  0.75168  0.49852  1.0000
  C   C1134     1.0  0.24964  0.92054  0.96123  1.0000
  H   H1996     1.0  0.44920  0.80861  0.56099  1.0000
  H   H1997     1.0  0.42920  0.81674  0.55858  1.0000
  H   H1998     1.0  0.43269  0.80676  0.58496  1.0000
  N   N61       1.0  0.46865  0.95523  0.75431  1.0000
  N   N62       1.0  0.44337  0.67951  0.60938  1.0000
  C   C1135     1.0  0.46162  0.93664  0.76904  1.0000
  C   C1136     1.0  0.45354  0.96453  0.75257  1.0000
  H   H1999     1.0  0.29086  0.76165  0.50897  1.0000
  H   H2000     1.0  0.41877  0.84607  0.56526  1.0000
  H   H2001     1.0  0.26995  0.94536  0.92352  1.0000
  C   C1137     1.0  0.44354  0.96740  0.77468  1.0000
  C   C1138     1.0  0.44363  0.92402  0.76475  1.0000
  C   C1139     1.0  0.43873  0.90518  0.77954  1.0000
  C   C1140     1.0  0.37342  0.87674  0.53587  1.0000
  H   H2002     1.0  0.33483  0.74068  0.51714  1.0000
  C   C1141     1.0  0.40393  0.75432  0.55001  1.0000
  H   H2003     1.0  0.46455  0.94551  0.72390  1.0000
  H   H2004     1.0  0.46379  0.69554  0.53222  1.0000
  C   C1142     1.0  0.25279  0.97145  0.91629  1.0000
  H   H2005     1.0  0.45952  0.93811  0.78664  1.0000
  H   H2006     1.0  0.44318  0.95694  0.74378  1.0000
  H   H2007     1.0  0.45892  0.97830  0.74208  1.0000
  H   H2008     1.0  0.37746  0.70838  0.56038  1.0000
  H   H2009     1.0  0.43152  0.98832  0.76050  1.0000
  H   H2010     1.0  0.39484  0.82425  0.55186  1.0000
  H   H2011     1.0  0.35957  0.89830  0.53720  1.0000
  C   C1143     1.0  0.24924  0.70783  0.56589  1.0000
  C   C1144     1.0  0.37970  0.86292  0.55162  1.0000
  H   H2012     1.0  0.30354  0.83881  0.97277  1.0000
  H   H2013     1.0  0.43850  0.95446  0.78680  1.0000
  H   H2014     1.0  0.43191  0.92992  0.76819  1.0000
  H   H2015     1.0  0.44494  0.92203  0.74743  1.0000
  H   H2016     1.0  0.43587  0.90652  0.79708  1.0000
  H   H2017     1.0  0.42632  0.89609  0.77549  1.0000
  H   H2018     1.0  0.45007  0.89858  0.77708  1.0000
  H   H2019     1.0  0.40262  0.81446  0.58900  1.0000
  H   H2020     1.0  0.33278  0.81500  0.52607  1.0000
  C   C1145     1.0  0.40728  0.86107  0.52799  1.0000
  H   H2021     1.0  0.43912  0.79337  0.53067  1.0000
  H   H2022     1.0  0.44639  0.85370  0.49862  1.0000
  C   C1146     1.0  0.38274  0.72220  0.56451  1.0000
  H   H2023     1.0  0.44557  0.86817  0.51905  1.0000
  H   H2024     1.0  0.37096  0.72788  0.56871  1.0000
  H   H2025     1.0  0.35162  0.87970  0.56033  1.0000
  N   N63       1.0  0.32630  0.93448  0.82878  1.0000
  C   C1147     1.0  0.32723  0.95411  0.83125  1.0000
  C   C1148     1.0  0.30796  0.92526  0.82328  1.0000
  C   C1149     1.0  0.32786  0.92439  0.85072  1.0000
  C   C1150     1.0  0.34186  0.93316  0.81197  1.0000
  C   C1151     1.0  0.34388  0.94379  0.78845  1.0000
  C   C1152     1.0  0.34515  0.96530  0.83736  1.0000
  C   C1153     1.0  0.32408  0.90314  0.85309  1.0000
  C   C1154     1.0  0.29912  0.93713  0.80821  1.0000
  C   C1155     1.0  0.28316  0.92509  0.80003  1.0000
  C   C1156     1.0  0.36216  0.94449  0.77454  1.0000
  H   H2026     1.0  0.40533  0.97062  0.72553  1.0000
  C   C1157     1.0  0.32581  0.89461  0.87605  1.0000
  H   H2027     1.0  0.31565  0.95433  0.84401  1.0000
  H   H2028     1.0  0.32527  0.96217  0.81606  1.0000
  H   H2029     1.0  0.30891  0.91305  0.81582  1.0000
  H   H2030     1.0  0.29749  0.91987  0.83855  1.0000
  H   H2031     1.0  0.31827  0.92713  0.86410  1.0000
  H   H2032     1.0  0.34180  0.92952  0.85456  1.0000
  H   H2033     1.0  0.35512  0.93749  0.81779  1.0000
  H   H2034     1.0  0.34046  0.91861  0.81008  1.0000
  H   H2035     1.0  0.34336  0.95818  0.78832  1.0000
  H   H2036     1.0  0.33288  0.93661  0.78028  1.0000
  H   H2037     1.0  0.34700  0.95938  0.85386  1.0000
  H   H2038     1.0  0.35723  0.96572  0.82510  1.0000
  H   H2039     1.0  0.33393  0.89933  0.84111  1.0000
  H   H2040     1.0  0.31003  0.89663  0.85058  1.0000
  H   H2041     1.0  0.47813  0.96814  0.78095  1.0000
  H   H2042     1.0  0.30894  0.94557  0.79367  1.0000
  C   C1158     1.0  0.45773  0.66983  0.61400  1.0000
  H   H2043     1.0  0.28808  0.91604  0.78953  1.0000
  H   H2044     1.0  0.46821  0.68244  0.56840  1.0000
  H   H2045     1.0  0.33348  0.98571  0.85084  1.0000
  H   H2046     1.0  0.36284  0.95118  0.75738  1.0000
  H   H2047     1.0  0.37375  0.95256  0.78115  1.0000
  H   H2048     1.0  0.28240  0.67609  0.58280  1.0000
  H   H2049     1.0  0.24526  0.92147  0.92674  1.0000
  H   H2050     1.0  0.40739  0.72816  0.54103  1.0000
  H   H2051     1.0  0.31591  0.89768  0.88876  1.0000
  H   H2052     1.0  0.32275  0.87944  0.87734  1.0000
  H   H2053     1.0  0.33993  0.89991  0.87919  1.0000
  H   H2054     1.0  0.29366  0.94657  0.81763  1.0000
  H   H2055     1.0  0.38920  0.82585  0.60528  1.0000
  H   H2056     1.0  0.27444  0.84537  0.81020  1.0000
  H   H2057     1.0  0.34605  0.83472  0.50607  1.0000
  H   H2058     1.0  0.44081  0.69578  0.54310  1.0000
  H   H2059     1.0  0.47208  0.92879  0.76746  1.0000
  S   S257      1.0  0.23981  0.84750  0.94385  1.0000
  H   H2060     1.0  0.27110  0.74375  0.50624  1.0000
  H   H2061     1.0  0.30567  0.67662  0.57232  1.0000
  H   H2062     1.0  0.47246  0.87995  0.64880  1.0000
  C   C1159     1.0  0.32774  0.86087  0.95999  1.0000
  C   C1160     1.0  0.29736  0.73874  0.49512  1.0000
  H   H2063     1.0  0.29215  0.69706  0.50527  1.0000
  H   H2064     1.0  0.43726  0.87321  0.49368  1.0000
  H   H2065     1.0  0.31183  0.68962  0.50875  1.0000
  C   C1161     1.0  0.32254  0.86462  0.93732  1.0000
  H   H2066     1.0  0.40559  0.87121  0.51440  1.0000
  H   H2067     1.0  0.45029  0.69975  0.63027  1.0000
  C   C1162     1.0  0.28309  0.92968  0.95546  1.0000
  H   H2068     1.0  0.33614  0.97705  0.94735  1.0000
  H   H2069     1.0  0.36367  0.93041  0.77426  1.0000
  H   H2070     1.0  0.30079  0.69550  0.58460  1.0000
  H   H2071     1.0  0.23778  0.94756  0.93986  1.0000
  C   C1163     1.0  0.47598  0.95251  0.73167  1.0000
  H   H2072     1.0  0.40217  0.85483  0.58044  1.0000
  H   H2073     1.0  0.45090  0.80684  0.71476  1.0000
  H   H2074     1.0  0.47373  0.79512  0.69431  1.0000
  H   H2075     1.0  0.24918  0.96672  0.95147  1.0000
  H   H2076     1.0  0.27274  0.91644  0.81409  1.0000
  H   H2077     1.0  0.46644  0.88330  0.68660  1.0000
  C   C1164     1.0  0.46797  0.80526  0.68525  1.0000
  N   N64       1.0  0.26632  0.93666  0.95861  1.0000
  H   H2078     1.0  0.25335  0.96374  0.90243  1.0000
  H   H2079     1.0  0.46451  0.70525  0.60430  1.0000
  H   H2080     1.0  0.44766  0.90490  0.68447  1.0000
  C   C1165     1.0  0.48346  0.96704  0.76385  1.0000
  C   C1166     1.0  0.35073  0.77801  0.49339  1.0000
  H   H2081     1.0  0.24331  0.68404  0.59129  1.0000
  H   H2082     1.0  0.42669  0.67282  0.64185  1.0000
  Fe  Fe128     1.0  0.46845  0.79922  0.61147  1.0000
  H   H2083     1.0  0.48501  0.94315  0.73271  1.0000
  C   C1167     1.0  0.41191  0.76941  0.51168  1.0000
  H   H2084     1.0  0.33511  0.87080  0.92477  1.0000
  H   H2085     1.0  0.31492  0.85166  0.93274  1.0000
  C   C1168     1.0  0.47073  0.90474  0.72557  1.0000
  H   H2086     1.0  0.40941  0.78422  0.57197  1.0000
  H   H2087     1.0  0.41618  0.79460  0.53350  1.0000
  S   S258      1.0  0.31042  0.98255  0.90098  1.0000
  H   H2088     1.0  0.41714  0.96501  0.76410  1.0000
  C   C1169     1.0  0.46107  0.66722  0.63806  1.0000
  H   H2089     1.0  0.46486  0.74117  0.55766  1.0000
  H   H2090     1.0  0.36766  0.85503  0.56439  1.0000
  C   C1170     1.0  0.33405  0.78249  0.49443  1.0000
  H   H2091     1.0  0.28557  0.71993  0.52470  1.0000
  C   C1171     1.0  0.42705  0.97468  0.77138  1.0000
  H   H2092     1.0  0.31391  0.87438  0.93711  1.0000
  C   C1172     1.0  0.29957  0.96572  0.88625  1.0000
  H   H2093     1.0  0.43076  0.79676  0.49638  1.0000
  H   H2094     1.0  0.47116  0.67766  0.60381  1.0000
  H   H2095     1.0  0.44958  0.76566  0.55601  1.0000
  H   H2096     1.0  0.38905  0.87137  0.56076  1.0000
  C   C1173     1.0  0.41922  0.84980  0.51716  1.0000
  H   H2097     1.0  0.47642  0.75578  0.48514  1.0000
  H   H2098     1.0  0.27652  0.93393  0.79019  1.0000
  H   H2099     1.0  0.47836  0.97971  0.71222  1.0000
  C   C1174     1.0  0.25062  0.95865  0.93814  1.0000
  H   H2100     1.0  0.27942  0.96294  0.93761  1.0000
  H   H2101     1.0  0.25200  0.94904  0.98192  1.0000
  H   H2102     1.0  0.26969  0.95926  0.85029  1.0000
  H   H2103     1.0  0.45915  0.73447  0.49628  1.0000
  H   H2104     1.0  0.42964  0.77670  0.57295  1.0000
  H   H2105     1.0  0.38372  0.83007  0.51949  1.0000
  H   H2106     1.0  0.32721  0.78454  0.50984  1.0000
  H   H2107     1.0  0.43783  0.71277  0.58719  1.0000
  S   S259      1.0  0.46933  0.77779  0.59061  1.0000
  H   H2108     1.0  0.41284  0.84349  0.50409  1.0000
  N   N65       1.0  0.42100  0.81725  0.69335  1.0000
  C   C1175     1.0  0.41678  0.83420  0.68234  1.0000
  C   C1176     1.0  0.41714  0.81624  0.71794  1.0000
  C   C1177     1.0  0.44130  0.81968  0.68664  1.0000
  C   C1178     1.0  0.41052  0.79976  0.68686  1.0000
  C   C1179     1.0  0.39126  0.79915  0.68108  1.0000
  C   C1180     1.0  0.42314  0.83917  0.65703  1.0000
  C   C1181     1.0  0.44917  0.80463  0.69784  1.0000
  C   C1182     1.0  0.39690  0.81315  0.72854  1.0000
  C   C1183     1.0  0.39489  0.81268  0.75333  1.0000
  C   C1184     1.0  0.38061  0.77951  0.68025  1.0000
  C   C1185     1.0  0.41311  0.85200  0.64634  1.0000
  C   C1186     1.0  0.45502  0.90244  0.66911  1.0000
  H   H2109     1.0  0.42355  0.84634  0.68920  1.0000
  H   H2110     1.0  0.40198  0.83324  0.68609  1.0000
  H   H2111     1.0  0.42142  0.80468  0.72650  1.0000
  H   H2112     1.0  0.42539  0.82899  0.72256  1.0000
  H   H2113     1.0  0.44927  0.83317  0.68973  1.0000
  H   H2114     1.0  0.44473  0.82010  0.66866  1.0000
  H   H2115     1.0  0.41840  0.79665  0.67219  1.0000
  H   H2116     1.0  0.40899  0.78780  0.70003  1.0000
  H   H2117     1.0  0.39258  0.80763  0.66475  1.0000
  H   H2118     1.0  0.38280  0.80454  0.69292  1.0000
  H   H2119     1.0  0.43802  0.84631  0.65317  1.0000
  H   H2120     1.0  0.42095  0.82675  0.64930  1.0000
  H   H2121     1.0  0.44003  0.79067  0.69880  1.0000
  H   H2122     1.0  0.42003  0.97634  0.78745  1.0000
  H   H2123     1.0  0.39119  0.82420  0.72153  1.0000
  H   H2124     1.0  0.38855  0.79963  0.72628  1.0000
  H   H2125     1.0  0.40195  0.82621  0.75693  1.0000
  H   H2126     1.0  0.38020  0.80950  0.76063  1.0000
  H   H2127     1.0  0.40063  0.80197  0.76123  1.0000
  H   H2128     1.0  0.38884  0.77303  0.66938  1.0000
  H   H2129     1.0  0.37686  0.77106  0.69698  1.0000
  H   H2130     1.0  0.36785  0.77965  0.67373  1.0000
  H   H2131     1.0  0.39838  0.84476  0.64815  1.0000
  H   H2132     1.0  0.41457  0.86450  0.65396  1.0000
  H   H2133     1.0  0.41886  0.85624  0.62855  1.0000
  C   C1187     1.0  0.41619  0.96820  0.71429  1.0000
  H   H2134     1.0  0.33562  0.87419  0.96337  1.0000
  C   C1188     1.0  0.29594  0.68516  0.57423  1.0000
  C   C1189     1.0  0.40444  0.84255  0.57414  1.0000
  H   H2135     1.0  0.42112  0.83869  0.52925  1.0000
  C   C1190     1.0  0.45003  0.69914  0.61260  1.0000
  C   C1191     1.0  0.43870  0.71224  0.60483  1.0000
  H   H2136     1.0  0.29341  0.89277  0.95641  1.0000
  H   H2137     1.0  0.39908  0.77381  0.51455  1.0000
  H   H2138     1.0  0.38878  0.73532  0.53100  1.0000
  H   H2139     1.0  0.43699  0.66396  0.58357  1.0000
  C   C1192     1.0  0.30167  0.94358  0.95557  1.0000
  H   H2140     1.0  0.44706  0.76980  0.51732  1.0000
  H   H2141     1.0  0.37045  0.74457  0.49909  1.0000
  H   H2142     1.0  0.31810  0.92871  0.93782  1.0000
  H   H2143     1.0  0.42459  0.70792  0.61446  1.0000
  C   C1193     1.0  0.44760  0.73179  0.60777  1.0000
  C   C1194     1.0  0.27784  0.95577  0.86225  1.0000
  N   N66       1.0  0.38885  0.85008  0.54099  1.0000
  H   H2144     1.0  0.45287  0.97757  0.78200  1.0000
  H   H2145     1.0  0.40812  0.75614  0.50568  1.0000
  H   H2146     1.0  0.31500  0.92293  0.96745  1.0000
  N   N67       1.0  0.31293  0.71682  0.51623  1.0000
  C   C1195     1.0  0.34690  0.82312  0.51833  1.0000
  C   C1196     1.0  0.29961  0.72848  0.51727  1.0000
  C   C1197     1.0  0.31256  0.70790  0.53953  1.0000
  H   H2147     1.0  0.28156  0.91761  0.96828  1.0000
  C   C1198     1.0  0.39628  0.73475  0.54497  1.0000
  H   H2148     1.0  0.46205  0.70358  0.56918  1.0000
  C   C1199     1.0  0.29401  0.69469  0.55184  1.0000
  H   H2149     1.0  0.38950  0.72067  0.57907  1.0000
  C   C1200     1.0  0.44357  0.75348  0.54901  1.0000
  H   H2150     1.0  0.25791  0.73372  0.54361  1.0000
  C   C1201     1.0  0.42547  0.67057  0.62479  1.0000
  H   H2151     1.0  0.32252  0.99294  0.94341  1.0000
  C   C1202     1.0  0.43263  0.98205  0.70697  1.0000
  C   C1203     1.0  0.26518  0.94536  0.97886  1.0000
  H   H2152     1.0  0.33046  0.94439  0.95316  1.0000
  H   H2153     1.0  0.31685  0.71863  0.54972  1.0000
  H   H2154     1.0  0.32253  0.69953  0.53989  1.0000
  H   H2155     1.0  0.35000  0.83907  0.54390  1.0000
  H   H2156     1.0  0.41958  0.98237  0.65761  1.0000
  H   H2157     1.0  0.28977  0.98415  0.86477  1.0000
  H   H2158     1.0  0.37742  0.82893  0.56943  1.0000
  C   C1204     1.0  0.35740  0.83024  0.53592  1.0000
  H   H2159     1.0  0.28858  0.68390  0.54235  1.0000
  H   H2160     1.0  0.28376  0.70235  0.55503  1.0000
  H   H2161     1.0  0.47659  0.84428  0.70664  1.0000
  C   C1205     1.0  0.26744  0.95089  0.93885  1.0000
  H   H2162     1.0  0.46854  0.79555  0.49041  1.0000
  H   H2163     1.0  0.41374  0.83196  0.60324  1.0000
  H   H2164     1.0  0.30485  0.95521  0.94168  1.0000
  H   H2165     1.0  0.41534  0.86945  0.53843  1.0000
  C   C1206     1.0  0.45684  0.68897  0.56775  1.0000
  C   C1207     1.0  0.39086  0.83567  0.55882  1.0000
  H   H2166     1.0  0.44544  0.89188  0.66253  1.0000
  H   H2167     1.0  0.47310  0.91799  0.71534  1.0000
  N   N68       1.0  0.30833  0.84095  0.75237  1.0000
  C   C1208     1.0  0.32676  0.83856  0.75597  1.0000
  C   C1209     1.0  0.31086  0.86010  0.74004  1.0000
  C   C1210     1.0  0.29703  0.83935  0.77476  1.0000
  C   C1211     1.0  0.29829  0.82664  0.74047  1.0000
  C   C1212     1.0  0.31021  0.81928  0.72348  1.0000
  C   C1213     1.0  0.32608  0.82098  0.77223  1.0000
  C   C1214     1.0  0.27854  0.84429  0.77511  1.0000
  C   C1215     1.0  0.32268  0.86525  0.71680  1.0000
  C   C1216     1.0  0.32546  0.88550  0.70732  1.0000
  C   C1217     1.0  0.29851  0.80806  0.70946  1.0000
  C   C1218     1.0  0.34461  0.81673  0.77041  1.0000
  C   C1219     1.0  0.26691  0.83866  0.79815  1.0000
  H   H2168     1.0  0.33449  0.85052  0.76240  1.0000
  H   H2169     1.0  0.33558  0.83871  0.74028  1.0000
  H   H2170     1.0  0.29744  0.86239  0.73756  1.0000
  H   H2171     1.0  0.31680  0.87043  0.74995  1.0000
  H   H2172     1.0  0.30505  0.84825  0.78477  1.0000
  H   H2173     1.0  0.29374  0.82508  0.78407  1.0000
  H   H2174     1.0  0.28977  0.81427  0.75236  1.0000
  H   H2175     1.0  0.28830  0.83200  0.73197  1.0000
  H   H2176     1.0  0.31731  0.81016  0.73203  1.0000
  H   H2177     1.0  0.32091  0.83036  0.71219  1.0000
  H   H2178     1.0  0.32222  0.82291  0.78940  1.0000
  H   H2179     1.0  0.31582  0.80885  0.76934  1.0000
  H   H2180     1.0  0.27055  0.83733  0.76362  1.0000
  H   H2181     1.0  0.28097  0.85938  0.77046  1.0000
  H   H2182     1.0  0.33639  0.86296  0.71691  1.0000
  H   H2183     1.0  0.31562  0.85716  0.70547  1.0000
  H   H2184     1.0  0.31210  0.88846  0.70618  1.0000
  H   H2185     1.0  0.33278  0.89448  0.71775  1.0000
  H   H2186     1.0  0.33383  0.88884  0.69057  1.0000
  H   H2187     1.0  0.30738  0.80269  0.69790  1.0000
  H   H2188     1.0  0.28794  0.79624  0.71998  1.0000
  H   H2189     1.0  0.29176  0.81681  0.69966  1.0000
  H   H2190     1.0  0.34331  0.80361  0.78146  1.0000
  H   H2191     1.0  0.34957  0.81535  0.75330  1.0000
  H   H2192     1.0  0.35478  0.82777  0.77552  1.0000
  C   C1220     1.0  0.33201  0.72920  0.50767  1.0000
  C   C1221     1.0  0.26993  0.87293  0.95068  1.0000
  C   C1222     1.0  0.28057  0.88283  0.96389  1.0000
  H   H2193     1.0  0.27451  0.87541  0.93318  1.0000
  C   C1223     1.0  0.43825  0.86205  0.50649  1.0000
  H   H2194     1.0  0.26318  0.82352  0.80347  1.0000
  C   C1224     1.0  0.29855  0.94712  0.89341  1.0000
  H   H2195     1.0  0.41478  0.67722  0.62029  1.0000
  H   H2196     1.0  0.44647  0.67413  0.54255  1.0000
  C   C1225     1.0  0.30738  0.70197  0.50276  1.0000
  H   H2197     1.0  0.30638  0.94365  0.90570  1.0000
  H   H2198     1.0  0.46672  0.80172  0.66872  1.0000
  C   C1226     1.0  0.40237  0.82778  0.59409  1.0000
  H   H2199     1.0  0.44713  0.73263  0.62546  1.0000
  H   H2200     1.0  0.44027  0.74125  0.60045  1.0000
  C   C1227     1.0  0.47163  0.89598  0.67403  1.0000
  H   H2201     1.0  0.25015  0.90936  0.97441  1.0000
  H   H2202     1.0  0.48543  0.85976  0.66704  1.0000
  N   N69       1.0  0.41927  0.76710  0.53286  1.0000
  C   C1228     1.0  0.36551  0.73118  0.49376  1.0000
  H   H2203     1.0  0.46207  0.73641  0.59927  1.0000
  S   S260      1.0  0.47797  0.79998  0.53224  1.0000
  H   H2204     1.0  0.35684  0.81825  0.54846  1.0000
  C   C1229     1.0  0.28941  0.96997  0.87023  1.0000
  H   H2205     1.0  0.48206  0.95810  0.68598  1.0000
  C   C1230     1.0  0.42394  0.78687  0.56405  1.0000
  C   C1231     1.0  0.34777  0.71979  0.50884  1.0000
  H   H2206     1.0  0.43308  0.74333  0.56171  1.0000
  H   H2207     1.0  0.35068  0.71821  0.52587  1.0000
  C   C1232     1.0  0.45157  0.68855  0.54503  1.0000
  C   C1233     1.0  0.44035  0.67849  0.58613  1.0000
  H   H2208     1.0  0.25876  0.90639  0.93494  1.0000
  C   C1234     1.0  0.48215  0.88221  0.74627  1.0000
  H   H2209     1.0  0.28451  0.92460  0.93961  1.0000
  C   C1235     1.0  0.31721  0.93429  0.95335  1.0000
  H   H2210     1.0  0.30097  0.86078  0.97638  1.0000
  H   H2211     1.0  0.40810  0.75258  0.56634  1.0000
  H   H2212     1.0  0.30342  0.73876  0.52816  1.0000
  C   C1236     1.0  0.36395  0.88851  0.54874  1.0000
  C   C1237     1.0  0.43555  0.75943  0.52867  1.0000
  H   H2213     1.0  0.47761  0.81912  0.68329  1.0000
  C   C1238     1.0  0.45904  0.74473  0.54285  1.0000
  H   H2214     1.0  0.43229  0.74760  0.51989  1.0000
  H   H2215     1.0  0.37777  0.85050  0.51082  1.0000
  H   H2216     1.0  0.39223  0.76054  0.55251  1.0000
  H   H2217     1.0  0.24095  0.97739  0.91629  1.0000
  H   H2218     1.0  0.25408  0.84298  0.79817  1.0000
  C   C1239     1.0  0.31038  0.85188  0.97781  1.0000
  H   H2219     1.0  0.35377  0.81413  0.50980  1.0000
  H   H2220     1.0  0.36353  0.86962  0.52634  1.0000
  C   C1240     1.0  0.37758  0.84059  0.52574  1.0000
  H   H2221     1.0  0.37342  0.89650  0.55814  1.0000
  H   H2222     1.0  0.47019  0.75452  0.53044  1.0000
  H   H2223     1.0  0.38528  0.88615  0.52416  1.0000
  C   C1241     1.0  0.24695  0.91159  0.94055  1.0000
  H   H2224     1.0  0.48348  0.90353  0.63949  1.0000
  C   C1242     1.0  0.48314  0.79749  0.48885  1.0000
  C   C1243     1.0  0.33070  0.99000  0.97556  1.0000
  H   H2225     1.0  0.46540  0.68067  0.64345  1.0000
  C   C1244     1.0  0.48200  0.89194  0.65314  1.0000
  C   C1245     1.0  0.48645  0.73134  0.48720  1.0000
  H   H2226     1.0  0.45909  0.98963  0.68635  1.0000
  C   C1246     1.0  0.34480  0.98518  0.83800  1.0000
  H   H2227     1.0  0.48509  0.86996  0.62184  1.0000
  C   C1247     1.0  0.48530  0.89964  0.73359  1.0000
  H   H2228     1.0  0.34408  0.70595  0.50432  1.0000
  C   C1248     1.0  0.47159  0.74105  0.48372  1.0000
  H   H2229     1.0  0.24230  0.75220  0.59716  1.0000
  S   S261      1.0  0.48494  0.82244  0.58498  1.0000
  H   H2230     1.0  0.43673  0.77763  0.48624  1.0000
  H   H2231     1.0  0.48043  0.71648  0.48733  1.0000
  H   H2232     1.0  0.26554  0.98289  0.91364  1.0000
  C   C1249     1.0  0.33425  0.99038  0.95080  1.0000
  H   H2233     1.0  0.48039  0.90695  0.68080  1.0000
  H   H2234     1.0  0.37624  0.72376  0.49457  1.0000
  H   H2235     1.0  0.30170  0.94917  0.97105  1.0000
  H   H2236     1.0  0.31064  0.74707  0.48526  1.0000
  H   H2237     1.0  0.27597  0.95865  0.97631  1.0000
  H   H2238     1.0  0.29045  0.72869  0.48560  1.0000
  C   C1250     1.0  0.48691  0.97017  0.71514  1.0000
  H   H2239     1.0  0.35794  0.99300  0.84186  1.0000
  H   H2240     1.0  0.34208  0.98596  0.98232  1.0000
  Fe  Fe129     1.0  0.54809  0.29091  0.37172  1.0000
  H   H2241     1.0  0.51975  0.25492  0.24025  1.0000
  S   S262      1.0  0.55794  0.30698  0.33734  1.0000
  S   S263      1.0  0.57114  0.30721  0.38559  1.0000
  Fe  Fe130     1.0  0.62109  0.03949  0.22308  1.0000
  S   S264      1.0  0.62926  0.04175  0.18675  1.0000
  S   S265      1.0  0.60200  0.01341  0.24395  1.0000
  Fe  Fe131     1.0  0.64126  0.07946  0.22260  1.0000
  S   S266      1.0  0.65096  0.08466  0.18601  1.0000
  S   S267      1.0  0.64758  0.10437  0.23942  1.0000
  Fe  Fe132     1.0  0.62232  0.06871  0.18460  1.0000
  S   S268      1.0  0.60831  0.07820  0.15748  1.0000
  Fe  Fe133     1.0  0.65708  0.05729  0.19133  1.0000
  S   S269      1.0  0.68272  0.05004  0.17669  1.0000
  S   S270      1.0  0.61209  0.06554  0.22057  1.0000
  S   S271      1.0  0.64944  0.05310  0.22830  1.0000
  C   C1251     1.0  0.70534  0.03278  0.05854  1.0000
  S   S272      1.0  0.52411  0.05083  0.15235  1.0000
  S   S273      1.0  0.49177  0.07676  0.18172  1.0000
  C   C1252     1.0  0.51890  0.25815  0.27455  1.0000
  Fe  Fe134     1.0  0.68100  0.13036  0.34764  1.0000
  S   S274      1.0  0.68600  0.16005  0.33251  1.0000
  S   S275      1.0  0.67004  0.10466  0.33351  1.0000
  Fe  Fe135     1.0  0.69139  0.14004  0.39171  1.0000
  S   S276      1.0  0.69684  0.17026  0.38012  1.0000
  S   S277      1.0  0.69460  0.12746  0.42550  1.0000
  Fe  Fe136     1.0  0.67148  0.16255  0.36536  1.0000
  S   S278      1.0  0.64850  0.17548  0.37269  1.0000
  Fe  Fe137     1.0  0.71102  0.16509  0.34869  1.0000
  H   H2242     1.0  0.71500  0.02620  0.05010  1.0000
  S   S279      1.0  0.66487  0.13264  0.37948  1.0000
  S   S280      1.0  0.70717  0.13506  0.36121  1.0000
  Fe  Fe138     1.0  0.53618  0.18037  0.32496  1.0000
  Fe  Fe139     1.0  0.56787  0.16321  0.31855  1.0000
  S   S281      1.0  0.55421  0.13897  0.34482  1.0000
  S   S282      1.0  0.59656  0.16640  0.30205  1.0000
  S   S283      1.0  0.54351  0.16189  0.30209  1.0000
  S   S284      1.0  0.56187  0.18357  0.33875  1.0000
  C   C1253     1.0  0.63443  0.17388  0.35268  1.0000
  C   C1254     1.0  0.64160  0.17428  0.33073  1.0000
  C   C1255     1.0  0.63003  0.17250  0.31505  1.0000
  C   C1256     1.0  0.61120  0.16987  0.32140  1.0000
  C   C1257     1.0  0.60408  0.16954  0.34338  1.0000
  C   C1258     1.0  0.61571  0.17186  0.35889  1.0000
  H   H2243     1.0  0.65610  0.17617  0.32575  1.0000
  H   H2244     1.0  0.63568  0.17289  0.29809  1.0000
  H   H2245     1.0  0.58958  0.16723  0.34862  1.0000
  H   H2246     1.0  0.61011  0.17165  0.37582  1.0000
  C   C1259     1.0  0.69867  0.17019  0.45848  1.0000
  C   C1260     1.0  0.69500  0.15893  0.44270  1.0000
  C   C1261     1.0  0.69676  0.14104  0.44619  1.0000
  C   C1262     1.0  0.70087  0.13400  0.46629  1.0000
  H   H2247     1.0  0.69802  0.18428  0.45533  1.0000
  H   H2248     1.0  0.69131  0.16426  0.42756  1.0000
  H   H2249     1.0  0.55384  0.11819  0.24495  1.0000
  C   C1263     1.0  0.65678  0.10426  0.26394  1.0000
  C   C1264     1.0  0.66341  0.12103  0.27093  1.0000
  C   C1265     1.0  0.66810  0.12141  0.29195  1.0000
  C   C1266     1.0  0.66626  0.10497  0.30612  1.0000
  C   C1267     1.0  0.66022  0.08821  0.29884  1.0000
  C   C1268     1.0  0.65564  0.08783  0.27777  1.0000
  H   H2250     1.0  0.66441  0.13380  0.26030  1.0000
  H   H2251     1.0  0.67275  0.13440  0.29735  1.0000
  H   H2252     1.0  0.65881  0.07543  0.30970  1.0000
  H   H2253     1.0  0.65052  0.07483  0.27260  1.0000
  C   C1269     1.0  0.58462  0.07090  0.15752  1.0000
  C   C1270     1.0  0.57164  0.06366  0.17680  1.0000
  C   C1271     1.0  0.55278  0.05828  0.17567  1.0000
  C   C1272     1.0  0.54706  0.05965  0.15522  1.0000
  C   C1273     1.0  0.56013  0.06696  0.13614  1.0000
  C   C1274     1.0  0.57873  0.07274  0.13730  1.0000
  H   H2254     1.0  0.57613  0.06225  0.19248  1.0000
  H   H2255     1.0  0.54275  0.05257  0.19049  1.0000
  H   H2256     1.0  0.55584  0.06819  0.12030  1.0000
  H   H2257     1.0  0.58866  0.07848  0.12237  1.0000
  C   C1275     1.0  0.69412  0.05804  0.14921  1.0000
  C   C1276     1.0  0.71009  0.05297  0.14228  1.0000
  C   C1277     1.0  0.71966  0.05903  0.12058  1.0000
  C   C1278     1.0  0.71329  0.07014  0.10554  1.0000
  C   C1279     1.0  0.69724  0.07512  0.11242  1.0000
  C   C1280     1.0  0.68769  0.06913  0.13419  1.0000
  H   H2258     1.0  0.71510  0.04437  0.15383  1.0000
  H   H2259     1.0  0.72032  0.22495  0.40684  1.0000
  H   H2260     1.0  0.69220  0.08371  0.10088  1.0000
  H   H2261     1.0  0.67539  0.07313  0.13935  1.0000
  C   C1281     1.0  0.53767  0.24575  0.36286  1.0000
  C   C1282     1.0  0.54082  0.25291  0.34041  1.0000
  C   C1283     1.0  0.53852  0.24098  0.32510  1.0000
  H   H2262     1.0  0.54508  0.26760  0.33486  1.0000
  H   H2263     1.0  0.54121  0.24653  0.30775  1.0000
  H   H2264     1.0  0.57452  0.10760  0.42508  1.0000
  H   H2265     1.0  0.73105  0.08740  0.14800  1.0000
  H   H2266     1.0  0.64266  0.00135  0.15148  1.0000
  Fe  Fe140     1.0  0.52892  0.13898  0.33027  1.0000
  H   H2267     1.0  0.73039  0.00514  0.09856  1.0000
  C   C1284     1.0  0.52688  0.29799  0.47548  1.0000
  N   N70       1.0  0.62871  0.13712  0.46178  1.0000
  C   C1285     1.0  0.64198  0.15288  0.44559  1.0000
  C   C1286     1.0  0.62819  0.11907  0.45397  1.0000
  C   C1287     1.0  0.71911  0.29894  0.37964  1.0000
  H   H2268     1.0  0.58722  0.15130  0.22588  1.0000
  H   H2269     1.0  0.55572  0.26976  0.42253  1.0000
  C   C1288     1.0  0.64422  0.17231  0.45159  1.0000
  C   C1289     1.0  0.64640  0.11679  0.44202  1.0000
  C   C1290     1.0  0.64424  0.09725  0.43749  1.0000
  H   H2270     1.0  0.51686  0.01239  0.18148  1.0000
  C   C1291     1.0  0.65728  0.18702  0.43341  1.0000
  H   H2271     1.0  0.63792  0.15319  0.42904  1.0000
  H   H2272     1.0  0.65595  0.15101  0.44310  1.0000
  C   C1292     1.0  0.60988  0.14014  0.46253  1.0000
  H   H2273     1.0  0.61871  0.11685  0.44190  1.0000
  H   H2274     1.0  0.60710  0.14320  0.44552  1.0000
  H   H2275     1.0  0.52490  0.04992  0.36607  1.0000
  C   C1293     1.0  0.59163  0.12246  0.20639  1.0000
  H   H2276     1.0  0.54557  0.11694  0.21148  1.0000
  H   H2277     1.0  0.54810  0.14889  0.47592  1.0000
  H   H2278     1.0  0.52901  0.06598  0.47372  1.0000
  H   H2279     1.0  0.63362  0.09368  0.42714  1.0000
  H   H2280     1.0  0.55747  0.30825  0.27433  1.0000
  H   H2281     1.0  0.54147  0.26601  0.24697  1.0000
  H   H2282     1.0  0.65078  0.12618  0.42593  1.0000
  H   H2283     1.0  0.72225  0.11383  0.17816  1.0000
  H   H2284     1.0  0.65744  0.09629  0.42852  1.0000
  H   H2285     1.0  0.64053  0.08723  0.45313  1.0000
  H   H2286     1.0  0.71749  0.29947  0.39748  1.0000
  H   H2287     1.0  0.55133  0.99393  0.13376  1.0000
  H   H2288     1.0  0.49586  0.07735  0.31164  1.0000
  C   C1294     1.0  0.54141  0.14787  0.46184  1.0000
  H   H2289     1.0  0.57008  0.01329  0.12099  1.0000
  H   H2290     1.0  0.65184  0.18713  0.41778  1.0000
  H   H2291     1.0  0.65882  0.20077  0.43813  1.0000
  H   H2292     1.0  0.62536  0.11572  0.16713  1.0000
  H   H2293     1.0  0.55711  0.08290  0.39117  1.0000
  H   H2294     1.0  0.54692  0.05801  0.23059  1.0000
  H   H2295     1.0  0.52149  0.24457  0.27904  1.0000
  H   H2296     1.0  0.69184  0.02838  0.05340  1.0000
  H   H2297     1.0  0.56579  0.16249  0.43859  1.0000
  H   H2298     1.0  0.52976  0.30851  0.30460  1.0000
  C   C1295     1.0  0.52135  0.18664  0.46358  1.0000
  H   H2299     1.0  0.51725  0.14504  0.41111  1.0000
  C   C1296     1.0  0.52401  0.14573  0.42521  1.0000
  H   H2300     1.0  0.60081  0.12294  0.21889  1.0000
  H   H2301     1.0  0.51328  0.17698  0.47862  1.0000
  H   H2302     1.0  0.52047  0.12689  0.24672  1.0000
  S   S285      1.0  0.55635  0.16250  0.39623  1.0000
  H   H2303     1.0  0.54106  0.01426  0.10795  1.0000
  Fe  Fe141     1.0  0.50149  0.05164  0.17900  1.0000
  C   C1297     1.0  0.52233  0.31614  0.29522  1.0000
  C   C1298     1.0  0.53993  0.08429  0.43022  1.0000
  C   C1299     1.0  0.55133  0.15568  0.44072  1.0000
  H   H2304     1.0  0.58734  0.13987  0.38618  1.0000
  C   C1300     1.0  0.55713  0.00887  0.13297  1.0000
  H   H2305     1.0  0.69412  0.03527  0.09073  1.0000
  S   S286      1.0  0.54060  0.26012  0.38258  1.0000
  H   H2306     1.0  0.48844  0.22975  0.34659  1.0000
  H   H2307     1.0  0.50579  0.27798  0.30586  1.0000
  H   H2308     1.0  0.53990  0.08729  0.23649  1.0000
  Fe  Fe142     1.0  0.54015  0.32464  0.34825  1.0000
  C   C1301     1.0  0.53234  0.22667  0.36989  1.0000
  H   H2309     1.0  0.55286  0.08004  0.42936  1.0000
  H   H2310     1.0  0.71821  0.03751  0.98944  1.0000
  C   C1302     1.0  0.70346  0.02780  0.08347  1.0000
  H   H2311     1.0  0.73556  0.15977  0.37796  1.0000
  H   H2312     1.0  0.55656  0.02525  0.23325  1.0000
  H   H2313     1.0  0.62297  0.00477  0.20657  1.0000
  C   C1303     1.0  0.56989  0.09388  0.22702  1.0000
  H   H2314     1.0  0.54496  0.08784  0.19900  1.0000
  H   H2315     1.0  0.52888  0.07125  0.43258  1.0000
  S   S287      1.0  0.51968  0.15749  0.35231  1.0000
  C   C1304     1.0  0.51657  0.11993  0.28197  1.0000
  H   H2316     1.0  0.52609  0.20004  0.36017  1.0000
  H   H2317     1.0  0.71270  0.01397  0.98542  1.0000
  H   H2318     1.0  0.56300  0.02841  0.15500  1.0000
  C   C1305     1.0  0.59268  0.02048  0.16067  1.0000
  H   H2319     1.0  0.56033  0.29034  0.43438  1.0000
  H   H2320     1.0  0.70614  0.09533  0.17021  1.0000
  H   H2321     1.0  0.65000  0.17315  0.46692  1.0000
  H   H2322     1.0  0.58298  0.14184  0.41482  1.0000
  C   C1306     1.0  0.56709  0.01893  0.20205  1.0000
  C   C1307     1.0  0.60090  0.02695  0.13590  1.0000
  C   C1308     1.0  0.62084  0.03834  0.13237  1.0000
  H   H2323     1.0  0.71148  0.28504  0.37754  1.0000
  H   H2324     1.0  0.51120  0.27046  0.35624  1.0000
  S   S288      1.0  0.50064  0.31334  0.23948  1.0000
  H   H2325     1.0  0.68265  0.02271  0.12397  1.0000
  H   H2326     1.0  0.53756  0.09477  0.16254  1.0000
  H   H2327     1.0  0.59185  0.03327  0.16695  1.0000
  H   H2328     1.0  0.60283  0.01528  0.16906  1.0000
  C   C1309     1.0  0.53558  0.06243  0.36726  1.0000
  H   H2329     1.0  0.55480  0.12316  0.39007  1.0000
  H   H2330     1.0  0.51036  0.21660  0.46915  1.0000
  C   C1310     1.0  0.61113  0.99327  0.21292  1.0000
  C   C1311     1.0  0.49808  0.25662  0.27948  1.0000
  N   N71       1.0  0.57436  0.00622  0.16626  1.0000
  C   C1312     1.0  0.50212  0.27872  0.35050  1.0000
  C   C1313     1.0  0.69618  0.00669  0.09120  1.0000
  C   C1314     1.0  0.67791  0.00747  0.12606  1.0000
  H   H2331     1.0  0.58090  0.02773  0.20262  1.0000
  H   H2332     1.0  0.54633  0.00767  0.16682  1.0000
  H   H2333     1.0  0.59307  0.03579  0.12822  1.0000
  H   H2334     1.0  0.62203  0.05067  0.14022  1.0000
  H   H2335     1.0  0.62945  0.03004  0.13928  1.0000
  H   H2336     1.0  0.62618  0.04305  0.11452  1.0000
  N   N72       1.0  0.57200  0.11375  0.21759  1.0000
  C   C1315     1.0  0.53699  0.09242  0.45156  1.0000
  C   C1316     1.0  0.50128  0.08816  0.29747  1.0000
  S   S289      1.0  0.50276  0.04487  0.21459  1.0000
  C   C1317     1.0  0.62012  0.12189  0.18093  1.0000
  C   C1318     1.0  0.59920  0.99354  0.23182  1.0000
  H   H2337     1.0  0.53046  0.01471  0.13542  1.0000
  H   H2338     1.0  0.71718  0.03302  0.08778  1.0000
  H   H2339     1.0  0.52644  0.12525  0.38598  1.0000
  N   N73       1.0  0.59622  0.23617  0.34903  1.0000
  C   C1319     1.0  0.59115  0.25411  0.34691  1.0000
  C   C1320     1.0  0.58106  0.22177  0.36466  1.0000
  C   C1321     1.0  0.61411  0.23877  0.35741  1.0000
  C   C1322     1.0  0.59859  0.22982  0.32717  1.0000
  C   C1323     1.0  0.58330  0.23054  0.31335  1.0000
  C   C1324     1.0  0.60489  0.27042  0.33064  1.0000
  C   C1325     1.0  0.61956  0.22090  0.36484  1.0000
  C   C1326     1.0  0.57688  0.22583  0.38824  1.0000
  C   C1327     1.0  0.56477  0.20876  0.40397  1.0000
  C   C1328     1.0  0.58637  0.22228  0.29263  1.0000
  C   C1329     1.0  0.59721  0.28710  0.32784  1.0000
  H   H2340     1.0  0.58990  0.25880  0.36304  1.0000
  H   H2341     1.0  0.57731  0.25226  0.34244  1.0000
  H   H2342     1.0  0.56799  0.21998  0.35832  1.0000
  H   H2343     1.0  0.58374  0.20802  0.36566  1.0000
  H   H2344     1.0  0.61419  0.24653  0.37128  1.0000
  H   H2345     1.0  0.62554  0.24758  0.34447  1.0000
  H   H2346     1.0  0.61182  0.23788  0.31662  1.0000
  H   H2347     1.0  0.59950  0.21535  0.32962  1.0000
  H   H2348     1.0  0.58286  0.24487  0.30806  1.0000
  H   H2349     1.0  0.56972  0.22276  0.32286  1.0000
  H   H2350     1.0  0.61790  0.27459  0.33696  1.0000
  H   H2351     1.0  0.60807  0.26688  0.31418  1.0000
  H   H2352     1.0  0.61954  0.21250  0.35166  1.0000
  H   H2353     1.0  0.60994  0.21244  0.37966  1.0000
  H   H2354     1.0  0.58948  0.23055  0.39510  1.0000
  H   H2355     1.0  0.56947  0.23664  0.38814  1.0000
  H   H2356     1.0  0.57246  0.19831  0.40654  1.0000
  H   H2357     1.0  0.56059  0.21246  0.42008  1.0000
  H   H2358     1.0  0.55225  0.20275  0.39742  1.0000
  H   H2359     1.0  0.57494  0.22250  0.28347  1.0000
  H   H2360     1.0  0.59943  0.23032  0.28181  1.0000
  H   H2361     1.0  0.58674  0.20777  0.29690  1.0000
  H   H2362     1.0  0.59415  0.29146  0.34390  1.0000
  H   H2363     1.0  0.60741  0.29880  0.31662  1.0000
  H   H2364     1.0  0.58451  0.28386  0.32071  1.0000
  H   H2365     1.0  0.64911  0.23281  0.35607  1.0000
  N   N74       1.0  0.60680  0.10916  0.30651  1.0000
  C   C1330     1.0  0.60856  0.09341  0.29487  1.0000
  C   C1331     1.0  0.61744  0.12697  0.29159  1.0000
  C   C1332     1.0  0.61579  0.10750  0.32652  1.0000
  C   C1333     1.0  0.58717  0.10928  0.31377  1.0000
  C   C1334     1.0  0.57308  0.10110  0.29960  1.0000
  C   C1335     1.0  0.60190  0.07399  0.30924  1.0000
  C   C1336     1.0  0.61806  0.12396  0.33900  1.0000
  C   C1337     1.0  0.61109  0.13132  0.26946  1.0000
  C   C1338     1.0  0.62417  0.14865  0.25512  1.0000
  C   C1339     1.0  0.55529  0.10650  0.30475  1.0000
  C   C1340     1.0  0.59986  0.05903  0.29501  1.0000
  C   C1341     1.0  0.62192  0.11876  0.36202  1.0000
  H   H2366     1.0  0.62311  0.09534  0.28776  1.0000
  H   H2367     1.0  0.60162  0.09321  0.28043  1.0000
  H   H2368     1.0  0.61688  0.13886  0.29983  1.0000
  H   H2369     1.0  0.63217  0.12742  0.28809  1.0000
  H   H2370     1.0  0.62971  0.10558  0.32196  1.0000
  H   H2371     1.0  0.60790  0.09501  0.33860  1.0000
  H   H2372     1.0  0.58172  0.10149  0.33078  1.0000
  H   H2373     1.0  0.58648  0.12359  0.31482  1.0000
  H   H2374     1.0  0.56970  0.08587  0.30284  1.0000
  H   H2375     1.0  0.57835  0.10572  0.28190  1.0000
  H   H2376     1.0  0.61213  0.07201  0.31973  1.0000
  H   H2377     1.0  0.58862  0.07206  0.32012  1.0000
  H   H2378     1.0  0.60569  0.12910  0.34056  1.0000
  H   H2379     1.0  0.62995  0.13532  0.33001  1.0000
  H   H2380     1.0  0.61054  0.12006  0.25986  1.0000
  H   H2381     1.0  0.59746  0.13396  0.27256  1.0000
  H   H2382     1.0  0.62506  0.16062  0.26368  1.0000
  H   H2383     1.0  0.63805  0.14667  0.25103  1.0000
  H   H2384     1.0  0.61912  0.15169  0.23955  1.0000
  H   H2385     1.0  0.55770  0.12162  0.30026  1.0000
  H   H2386     1.0  0.54525  0.09974  0.29511  1.0000
  H   H2387     1.0  0.54928  0.10209  0.32247  1.0000
  H   H2388     1.0  0.58917  0.05978  0.28482  1.0000
  H   H2389     1.0  0.61306  0.06056  0.28403  1.0000
  H   H2390     1.0  0.59586  0.04527  0.30565  1.0000
  H   H2391     1.0  0.63388  0.11294  0.36112  1.0000
  H   H2392     1.0  0.62505  0.13121  0.36974  1.0000
  H   H2393     1.0  0.60985  0.10848  0.37241  1.0000
  C   C1342     1.0  0.53281  0.30806  0.45402  1.0000
  H   H2394     1.0  0.49251  0.20030  0.33722  1.0000
  H   H2395     1.0  0.65782  0.02282  0.15480  1.0000
  H   H2396     1.0  0.51193  0.18993  0.45255  1.0000
  H   H2397     1.0  0.54221  0.21207  0.45430  1.0000
  C   C1343     1.0  0.57543  0.12852  0.47410  1.0000
  H   H2398     1.0  0.57239  0.14903  0.26471  1.0000
  C   C1344     1.0  0.55405  0.11477  0.40634  1.0000
  C   C1345     1.0  0.52125  0.09995  0.41004  1.0000
  C   C1346     1.0  0.70949  0.00635  0.12571  1.0000
  C   C1347     1.0  0.55876  0.11610  0.20219  1.0000
  H   H2399     1.0  0.52453  0.27852  0.24446  1.0000
  S   S290      1.0  0.72486  0.07774  0.07803  1.0000
  H   H2400     1.0  0.54964  0.11867  0.15980  1.0000
  H   H2401     1.0  0.49161  0.24650  0.26967  1.0000
  H   H2402     1.0  0.63102  0.17590  0.45378  1.0000
  H   H2403     1.0  0.54821  0.27255  0.47133  1.0000
  H   H2404     1.0  0.59351  0.13696  0.19861  1.0000
  H   H2405     1.0  0.60116  0.13232  0.40472  1.0000
  C   C1348     1.0  0.52287  0.13864  0.46474  1.0000
  C   C1349     1.0  0.51691  0.31072  0.27590  1.0000
  C   C1350     1.0  0.55659  0.01292  0.22561  1.0000
  H   H2406     1.0  0.56929  0.16787  0.24631  1.0000
  H   H2407     1.0  0.58122  0.09274  0.23618  1.0000
  H   H2408     1.0  0.52536  0.30425  0.44105  1.0000
  S   S291      1.0  0.51168  0.11083  0.32714  1.0000
  C   C1351     1.0  0.53018  0.21476  0.35459  1.0000
  H   H2409     1.0  0.54698  0.10588  0.45063  1.0000
  H   H2410     1.0  0.52270  0.13378  0.28398  1.0000
  H   H2411     1.0  0.70748  0.20150  0.41792  1.0000
  H   H2412     1.0  0.56539  0.09811  0.17911  1.0000
  H   H2413     1.0  0.73491  0.16592  0.44447  1.0000
  H   H2414     1.0  0.55565  0.24239  0.45927  1.0000
  H   H2415     1.0  0.49596  0.11907  0.37535  1.0000
  H   H2416     1.0  0.64201  0.21223  0.37650  1.0000
  H   H2417     1.0  0.51871  0.10795  0.42318  1.0000
  Fe  Fe143     1.0  0.54637  0.15931  0.36431  1.0000
  C   C1352     1.0  0.54271  0.15447  0.42236  1.0000
  H   H2418     1.0  0.53045  0.17974  0.45471  1.0000
  H   H2419     1.0  0.70661  0.00098  0.14366  1.0000
  C   C1353     1.0  0.50679  0.09817  0.25783  1.0000
  H   H2420     1.0  0.71315  0.02152  0.12423  1.0000
  H   H2421     1.0  0.71072  0.04790  0.05332  1.0000
  C   C1354     1.0  0.54184  0.24485  0.46182  1.0000
  H   H2422     1.0  0.57128  0.08574  0.21380  1.0000
  C   C1355     1.0  0.50313  0.00313  0.18161  1.0000
  C   C1356     1.0  0.51412  0.13765  0.44641  1.0000
  H   H2423     1.0  0.57885  0.10590  0.39643  1.0000
  C   C1357     1.0  0.63871  0.22525  0.37071  1.0000
  H   H2424     1.0  0.72217  0.20872  0.34746  1.0000
  H   H2425     1.0  0.54768  0.09722  0.37424  1.0000
  H   H2426     1.0  0.60900  0.15234  0.47014  1.0000
  C   C1358     1.0  0.51521  0.11599  0.26084  1.0000
  C   C1359     1.0  0.56574  0.15266  0.25062  1.0000
  C   C1360     1.0  0.53310  0.22190  0.33219  1.0000
  S   S292      1.0  0.53017  0.20710  0.31292  1.0000
  H   H2427     1.0  0.49335  0.07039  0.27406  1.0000
  C   C1361     1.0  0.58710  0.13316  0.40321  1.0000
  C   C1362     1.0  0.49984  0.08419  0.27621  1.0000
  C   C1363     1.0  0.72673  0.00087  0.11659  1.0000
  H   H2428     1.0  0.53140  0.26868  0.45386  1.0000
  C   C1364     1.0  0.54835  0.06304  0.24633  1.0000
  H   H2429     1.0  0.52302  0.09432  0.45477  1.0000
  H   H2430     1.0  0.50356  0.23073  0.31004  1.0000
  C   C1365     1.0  0.54787  0.32356  0.44958  1.0000
  H   H2431     1.0  0.73464  0.23915  0.35775  1.0000
  H   H2432     1.0  0.62331  0.13696  0.17532  1.0000
  H   H2433     1.0  0.55982  0.05900  0.25292  1.0000
  C   C1366     1.0  0.57384  0.11392  0.40823  1.0000
  H   H2434     1.0  0.67100  0.18449  0.43070  1.0000
  H   H2435     1.0  0.49811  0.00796  0.16660  1.0000
  C   C1367     1.0  0.55921  0.27538  0.43738  1.0000
  H   H2436     1.0  0.49381  0.00417  0.19635  1.0000
  H   H2437     1.0  0.51143  0.25939  0.32083  1.0000
  H   H2438     1.0  0.52988  0.22107  0.38724  1.0000
  S   S293      1.0  0.52862  0.30733  0.38188  1.0000
  H   H2439     1.0  0.53546  0.24004  0.44785  1.0000
  H   H2440     1.0  0.54864  0.05872  0.36811  1.0000
  C   C1368     1.0  0.54443  0.08731  0.39003  1.0000
  H   H2441     1.0  0.54994  0.12302  0.41840  1.0000
  H   H2442     1.0  0.63946  0.23355  0.38403  1.0000
  H   H2443     1.0  0.57677  0.12068  0.24911  1.0000
  C   C1369     1.0  0.50965  0.10609  0.30041  1.0000
  H   H2444     1.0  0.52724  0.05897  0.40218  1.0000
  C   C1370     1.0  0.54172  0.10616  0.17174  1.0000
  C   C1371     1.0  0.55166  0.08389  0.24288  1.0000
  H   H2445     1.0  0.72330  0.17658  0.41264  1.0000
  C   C1372     1.0  0.55331  0.10086  0.18831  1.0000
  H   H2446     1.0  0.59737  0.09849  0.19316  1.0000
  C   C1373     1.0  0.52067  0.21523  0.47985  1.0000
  H   H2447     1.0  0.53545  0.05640  0.25821  1.0000
  C   C1374     1.0  0.65450  0.00759  0.15901  1.0000
  H   H2448     1.0  0.55197  0.08816  0.25918  1.0000
  H   H2449     1.0  0.71648  0.20825  0.38900  1.0000
  H   H2450     1.0  0.57343  0.13069  0.45675  1.0000
  C   C1375     1.0  0.59946  0.11341  0.18792  1.0000
  C   C1376     1.0  0.56840  0.12351  0.23657  1.0000
  H   H2451     1.0  0.56528  0.14868  0.21722  1.0000
  H   H2452     1.0  0.55067  0.14743  0.25563  1.0000
  C   C1377     1.0  0.56870  0.00227  0.19098  1.0000
  H   H2453     1.0  0.49611  0.27008  0.27232  1.0000
  H   H2454     1.0  0.62736  0.11909  0.19476  1.0000
  H   H2455     1.0  0.57270  0.27357  0.44022  1.0000
  C   C1378     1.0  0.49967  0.26421  0.31626  1.0000
  H   H2456     1.0  0.66582  0.00432  0.11768  1.0000
  H   H2457     1.0  0.71310  0.30923  0.37127  1.0000
  S   S294      1.0  0.50593  0.09435  0.23064  1.0000
  H   H2458     1.0  0.54218  0.00525  0.22585  1.0000
  H   H2459     1.0  0.57844  0.99603  0.19877  1.0000
  C   C1379     1.0  0.54439  0.26592  0.45737  1.0000
  H   H2460     1.0  0.54949  0.03356  0.12088  1.0000
  H   H2461     1.0  0.60077  0.01535  0.12703  1.0000
  H   H2462     1.0  0.56423  0.12946  0.19067  1.0000
  H   H2463     1.0  0.52912  0.10868  0.18033  1.0000
  H   H2464     1.0  0.59297  0.11109  0.46931  1.0000
  H   H2465     1.0  0.70204  0.12006  0.46920  1.0000
  H   H2466     1.0  0.52131  0.10480  0.37410  1.0000
  C   C1380     1.0  0.73669  0.21377  0.34736  1.0000
  C   C1381     1.0  0.57229  0.14472  0.23080  1.0000
  H   H2467     1.0  0.55315  0.07797  0.46977  1.0000
  C   C1382     1.0  0.54369  0.01842  0.12384  1.0000
  N   N75       1.0  0.53990  0.09656  0.40915  1.0000
  H   H2468     1.0  0.55959  0.02713  0.19297  1.0000
  C   C1383     1.0  0.57112  0.31774  0.27406  1.0000
  C   C1384     1.0  0.73383  0.10132  0.15219  1.0000
  C   C1385     1.0  0.72041  0.10016  0.17314  1.0000
  H   H2469     1.0  0.59316  0.11579  0.17320  1.0000
  H   H2470     1.0  0.52035  0.29902  0.27035  1.0000
  H   H2471     1.0  0.49415  0.28170  0.36513  1.0000
  H   H2472     1.0  0.54106  0.31868  0.19017  1.0000
  H   H2473     1.0  0.51482  0.28641  0.47899  1.0000
  H   H2474     1.0  0.51643  0.07305  0.38597  1.0000
  H   H2475     1.0  0.52682  0.26797  0.28361  1.0000
  H   H2476     1.0  0.53733  0.07276  0.35220  1.0000
  H   H2477     1.0  0.50836  0.24601  0.47898  1.0000
  C   C1386     1.0  0.51795  0.11081  0.38880  1.0000
  H   H2478     1.0  0.54142  0.19988  0.48129  1.0000
  H   H2479     1.0  0.72230  0.09015  0.18672  1.0000
  C   C1387     1.0  0.71923  0.21035  0.40557  1.0000
  C   C1388     1.0  0.55999  0.01323  0.15606  1.0000
  H   H2480     1.0  0.65756  0.11993  0.45156  1.0000
  H   H2481     1.0  0.48887  0.09688  0.39274  1.0000
  H   H2482     1.0  0.51028  0.08676  0.41488  1.0000
  H   H2483     1.0  0.73188  0.05499  0.11542  1.0000
  C   C1389     1.0  0.53295  0.20406  0.46952  1.0000
  C   C1390     1.0  0.52657  0.26482  0.25006  1.0000
  H   H2484     1.0  0.58141  0.30973  0.27349  1.0000
  H   H2485     1.0  0.49969  0.13069  0.44865  1.0000
  C   C1391     1.0  0.52963  0.06998  0.38769  1.0000
  H   H2486     1.0  0.68334  0.00186  0.08462  1.0000
  H   H2487     1.0  0.62261  0.10739  0.46799  1.0000
  C   C1392     1.0  0.50753  0.32072  0.26339  1.0000
  H   H2488     1.0  0.70631  0.00086  0.08232  1.0000
  C   C1393     1.0  0.70345  0.16339  0.47821  1.0000
  H   H2489     1.0  0.51063  0.29200  0.34047  1.0000
  C   C1394     1.0  0.53906  0.07965  0.47155  1.0000
  Fe  Fe144     1.0  0.55259  0.32491  0.39318  1.0000
  C   C1395     1.0  0.49792  0.11106  0.39064  1.0000
  H   H2490     1.0  0.71947  0.01977  0.01085  1.0000
  H   H2491     1.0  0.73626  0.15000  0.41536  1.0000
  H   H2492     1.0  0.66311  0.14341  0.47488  1.0000
  C   C1396     1.0  0.48906  0.26819  0.33727  1.0000
  H   H2493     1.0  0.56317  0.00415  0.23556  1.0000
  H   H2494     1.0  0.49385  0.11754  0.40472  1.0000
  H   H2495     1.0  0.50243  0.32342  0.45124  1.0000
  C   C1397     1.0  0.59360  0.12408  0.47565  1.0000
  H   H2496     1.0  0.57511  0.14110  0.48107  1.0000
  N   N76       1.0  0.69275  0.99978  0.11568  1.0000
  H   H2497     1.0  0.68194  0.00660  0.16045  1.0000
  H   H2498     1.0  0.65056  0.00364  0.17716  1.0000
  C   C1398     1.0  0.67109  0.00088  0.15118  1.0000
  C   C1399     1.0  0.72182  0.02430  0.99278  1.0000
  H   H2499     1.0  0.73068  0.11081  0.13909  1.0000
  C   C1400     1.0  0.48925  0.23167  0.31118  1.0000
  N   N77       1.0  0.48897  0.25119  0.30338  1.0000
  C   C1401     1.0  0.73687  0.18614  0.40537  1.0000
  Fe  Fe145     1.0  0.49139  0.06909  0.21797  1.0000
  C   C1402     1.0  0.73699  0.20580  0.40959  1.0000
  H   H2500     1.0  0.73680  0.99752  0.98430  1.0000
  Fe  Fe146     1.0  0.57921  0.32491  0.35233  1.0000
  H   H2501     1.0  0.54820  0.32491  0.22584  1.0000
  H   H2502     1.0  0.56551  0.32556  0.18875  1.0000
  H   H2503     1.0  0.57092  0.32360  0.28941  1.0000
  C   C1403     1.0  0.70409  0.14511  0.48236  1.0000
  H   H2504     1.0  0.49205  0.27494  0.65629  1.0000
  S   S295      1.0  0.56296  0.25342  0.59761  1.0000
  Fe  Fe147     1.0  0.66252  0.05292  0.75681  1.0000
  S   S296      1.0  0.67408  0.05290  0.72161  1.0000
  S   S297      1.0  0.67536  0.05398  0.78771  1.0000
  Fe  Fe148     1.0  0.62265  0.04375  0.74829  1.0000
  S   S298      1.0  0.63089  0.04254  0.71289  1.0000
  S   S299      1.0  0.59388  0.03967  0.76630  1.0000
  Fe  Fe149     1.0  0.65059  0.02763  0.72450  1.0000
  H   H2505     1.0  0.62243  0.00655  0.69823  1.0000
  Fe  Fe150     1.0  0.65345  0.06796  0.71267  1.0000
  S   S300      1.0  0.65569  0.09249  0.68648  1.0000
  S   S301      1.0  0.64044  0.02661  0.75999  1.0000
  S   S302      1.0  0.64380  0.07016  0.74766  1.0000
  S   S303      1.0  0.52301  0.01535  0.72377  1.0000
  Fe  Fe151     1.0  0.70539  0.14749  0.57697  1.0000
  S   S304      1.0  0.69320  0.16587  0.59574  1.0000
  S   S305      1.0  0.71177  0.12352  0.59707  1.0000
  Fe  Fe152     1.0  0.70396  0.16912  0.53270  1.0000
  S   S306      1.0  0.69081  0.18833  0.54878  1.0000
  S   S307      1.0  0.71075  0.17873  0.49588  1.0000
  Fe  Fe153     1.0  0.71172  0.18910  0.57063  1.0000
  S   S308      1.0  0.72427  0.21702  0.57847  1.0000
  Fe  Fe154     1.0  0.67368  0.16336  0.57211  1.0000
  S   S309      1.0  0.64391  0.15794  0.58617  1.0000
  S   S310      1.0  0.72595  0.17115  0.55354  1.0000
  S   S311      1.0  0.68475  0.14370  0.55433  1.0000
  Fe  Fe155     1.0  0.53074  0.16369  0.55021  1.0000
  Fe  Fe156     1.0  0.56335  0.15164  0.53030  1.0000
  S   S312      1.0  0.54643  0.12321  0.53033  1.0000
  S   S313      1.0  0.59326  0.16012  0.51487  1.0000
  Fe  Fe157     1.0  0.52591  0.13670  0.51832  1.0000
  H   H2506     1.0  0.69854  0.00024  0.77949  1.0000
  S   S314      1.0  0.54392  0.16520  0.51544  1.0000
  S   S315      1.0  0.55183  0.15259  0.56516  1.0000
  C   C1404     1.0  0.64110  0.00032  0.63867  1.0000
  H   H2507     1.0  0.55419  0.03780  0.65689  1.0000
  C   C1405     1.0  0.55846  0.27226  0.64534  1.0000
  C   C1406     1.0  0.63017  0.15747  0.56594  1.0000
  C   C1407     1.0  0.61131  0.14936  0.57182  1.0000
  C   C1408     1.0  0.60001  0.14949  0.55596  1.0000
  C   C1409     1.0  0.60748  0.15820  0.53433  1.0000
  C   C1410     1.0  0.62638  0.16622  0.52839  1.0000
  C   C1411     1.0  0.63776  0.16565  0.54414  1.0000
  H   H2508     1.0  0.60546  0.14291  0.58865  1.0000
  H   H2509     1.0  0.58552  0.14290  0.56056  1.0000
  H   H2510     1.0  0.63220  0.17322  0.51175  1.0000
  H   H2511     1.0  0.65232  0.17201  0.53959  1.0000
  C   C1412     1.0  0.65692  0.01116  0.64893  1.0000
  C   C1413     1.0  0.67047  0.09862  0.66082  1.0000
  C   C1414     1.0  0.66626  0.11017  0.64402  1.0000
  C   C1415     1.0  0.67851  0.11714  0.62409  1.0000
  C   C1416     1.0  0.69532  0.11295  0.62095  1.0000
  C   C1417     1.0  0.69935  0.10091  0.63749  1.0000
  C   C1418     1.0  0.68691  0.09368  0.65738  1.0000
  H   H2512     1.0  0.65356  0.11403  0.64655  1.0000
  H   H2513     1.0  0.67508  0.12611  0.61135  1.0000
  C   C1419     1.0  0.54290  0.23133  0.50013  1.0000
  H   H2514     1.0  0.68519  0.05639  0.57716  1.0000
  C   C1420     1.0  0.57470  0.03389  0.75331  1.0000
  C   C1421     1.0  0.57531  0.02557  0.73468  1.0000
  C   C1422     1.0  0.55939  0.02013  0.72559  1.0000
  C   C1423     1.0  0.54293  0.02329  0.73480  1.0000
  C   C1424     1.0  0.54247  0.03209  0.75300  1.0000
  C   C1425     1.0  0.55826  0.03716  0.76238  1.0000
  H   H2515     1.0  0.58789  0.02293  0.72764  1.0000
  H   H2516     1.0  0.55980  0.01337  0.71145  1.0000
  H   H2517     1.0  0.52982  0.03451  0.76026  1.0000
  H   H2518     1.0  0.55771  0.04356  0.77682  1.0000
  H   H2519     1.0  0.62307  0.12492  0.49629  1.0000
  C   C1426     1.0  0.71947  0.06713  0.81769  1.0000
  C   C1427     1.0  0.70162  0.06085  0.81338  1.0000
  C   C1428     1.0  0.69819  0.06236  0.79175  1.0000
  C   C1429     1.0  0.71283  0.07027  0.77435  1.0000
  H   H2520     1.0  0.66187  0.03243  0.60888  1.0000
  H   H2521     1.0  0.61416  0.01948  0.80071  1.0000
  H   H2522     1.0  0.69036  0.05489  0.82694  1.0000
  H   H2523     1.0  0.71035  0.07151  0.75763  1.0000
  C   C1430     1.0  0.55068  0.23486  0.58689  1.0000
  C   C1431     1.0  0.55534  0.21811  0.58908  1.0000
  C   C1432     1.0  0.54597  0.20348  0.57980  1.0000
  C   C1433     1.0  0.49254  0.01286  0.64942  1.0000
  C   C1434     1.0  0.53616  0.23664  0.57622  1.0000
  H   H2524     1.0  0.56624  0.21648  0.59781  1.0000
  H   H2525     1.0  0.54962  0.19062  0.58132  1.0000
  S   S316      1.0  0.52941  0.09849  0.58852  1.0000
  H   H2526     1.0  0.68546  0.06631  0.62321  1.0000
  H   H2527     1.0  0.49865  0.20095  0.64041  1.0000
  H   H2528     1.0  0.62776  0.00212  0.64602  1.0000
  C   C1435     1.0  0.50781  0.22788  0.64929  1.0000
  H   H2529     1.0  0.69635  0.03230  0.87422  1.0000
  C   C1436     1.0  0.50183  0.09010  0.66028  1.0000
  C   C1437     1.0  0.69491  0.01737  0.87897  1.0000
  H   H2530     1.0  0.54583  0.26163  0.67924  1.0000
  C   C1438     1.0  0.73689  0.19022  0.69547  1.0000
  H   H2531     1.0  0.68275  0.03176  0.61727  1.0000
  H   H2532     1.0  0.71389  0.10270  0.71138  1.0000
  H   H2533     1.0  0.72384  0.17512  0.62034  1.0000
  H   H2534     1.0  0.52440  0.28508  0.64139  1.0000
  H   H2535     1.0  0.49275  0.07436  0.57922  1.0000
  C   C1439     1.0  0.55108  0.24825  0.51038  1.0000
  C   C1440     1.0  0.50417  0.10685  0.64630  1.0000
  H   H2536     1.0  0.52237  0.21249  0.62980  1.0000
  H   H2537     1.0  0.56965  0.25614  0.53292  1.0000
  C   C1441     1.0  0.51127  0.20983  0.64428  1.0000
  C   C1442     1.0  0.73345  0.17058  0.63010  1.0000
  C   C1443     1.0  0.67472  0.15772  0.66609  1.0000
  H   H2538     1.0  0.53559  0.21993  0.51401  1.0000
  H   H2539     1.0  0.49953  0.11775  0.65261  1.0000
  C   C1444     1.0  0.72366  0.15334  0.64788  1.0000
  H   H2540     1.0  0.72184  0.06607  0.83445  1.0000
  Fe  Fe158     1.0  0.58078  0.31894  0.55696  1.0000
  C   C1445     1.0  0.70266  0.04220  0.67540  1.0000
  H   H2541     1.0  0.73132  0.21929  0.48577  1.0000
  S   S317      1.0  0.65482  0.00146  0.71465  1.0000
  H   H2542     1.0  0.63412  0.02802  0.66164  1.0000
  H   H2543     1.0  0.49186  0.22095  0.50771  1.0000
  C   C1446     1.0  0.70984  0.01584  0.84063  1.0000
  C   C1447     1.0  0.51809  0.27016  0.64223  1.0000
  C   C1448     1.0  0.49198  0.24413  0.52368  1.0000
  H   H2544     1.0  0.67632  0.16864  0.67630  1.0000
  H   H2545     1.0  0.69621  0.07824  0.58392  1.0000
  Fe  Fe159     1.0  0.53329  0.12471  0.56428  1.0000
  C   C1449     1.0  0.58515  0.20583  0.49807  1.0000
  N   N78       1.0  0.70951  0.00781  0.81978  1.0000
  H   H2546     1.0  0.71781  0.11970  0.67395  1.0000
  H   H2547     1.0  0.51426  0.12255  0.61346  1.0000
  H   H2548     1.0  0.51159  0.32289  0.56622  1.0000
  H   H2549     1.0  0.64326  0.00487  0.62066  1.0000
  C   C1450     1.0  0.50219  0.23201  0.51260  1.0000
  C   C1451     1.0  0.73133  0.23214  0.51465  1.0000
  N   N79       1.0  0.52363  0.25876  0.66057  1.0000
  H   H2550     1.0  0.49644  0.26939  0.60829  1.0000
  H   H2551     1.0  0.54195  0.28276  0.66815  1.0000
  C   C1452     1.0  0.63306  0.13652  0.48469  1.0000
  H   H2552     1.0  0.69182  0.10194  0.70402  1.0000
  S   S318      1.0  0.52848  0.29019  0.51909  1.0000
  H   H2553     1.0  0.65915  0.15328  0.50999  1.0000
  C   C1453     1.0  0.54222  0.26898  0.66449  1.0000
  H   H2554     1.0  0.64534  0.13054  0.52349  1.0000
  H   H2555     1.0  0.70337  0.21929  0.51088  1.0000
  S   S319      1.0  0.51990  0.18795  0.55619  1.0000
  C   C1454     1.0  0.53927  0.31900  0.67211  1.0000
  H   H2556     1.0  0.54017  0.25167  0.52132  1.0000
  H   H2557     1.0  0.71640  0.03970  0.67307  1.0000
  H   H2558     1.0  0.58094  0.16538  0.59707  1.0000
  C   C1455     1.0  0.69220  0.03489  0.65785  1.0000
  H   H2559     1.0  0.73423  0.00371  0.88140  1.0000
  H   H2560     1.0  0.51511  0.20233  0.65863  1.0000
  C   C1456     1.0  0.69139  0.00936  0.78713  1.0000
  H   H2561     1.0  0.55457  0.22672  0.49250  1.0000
  C   C1457     1.0  0.67826  0.05889  0.61152  1.0000
  H   H2562     1.0  0.67647  0.05450  0.65769  1.0000
  C   C1458     1.0  0.67343  0.03935  0.65957  1.0000
  H   H2563     1.0  0.67346  0.23631  0.52623  1.0000
  H   H2564     1.0  0.49630  0.22447  0.66333  1.0000
  C   C1459     1.0  0.64464  0.05695  0.65208  1.0000
  H   H2565     1.0  0.53040  0.23289  0.66733  1.0000
  H   H2566     1.0  0.70406  0.05842  0.59221  1.0000
  H   H2567     1.0  0.49643  0.24792  0.68043  1.0000
  H   H2568     1.0  0.71162  0.03091  0.83681  1.0000
  H   H2569     1.0  0.67192  0.00639  0.76472  1.0000
  H   H2570     1.0  0.56395  0.11702  0.48364  1.0000
  H   H2571     1.0  0.65317  0.00629  0.66701  1.0000
  H   H2572     1.0  0.66668  0.06452  0.60815  1.0000
  S   S320      1.0  0.50063  0.05581  0.73928  1.0000
  C   C1460     1.0  0.69163  0.00806  0.81216  1.0000
  S   S321      1.0  0.57195  0.30781  0.59312  1.0000
  H   H2573     1.0  0.70687  0.01355  0.93596  1.0000
  H   H2574     1.0  0.50650  0.06331  0.66281  1.0000
  C   C1461     1.0  0.49723  0.26807  0.64321  1.0000
  C   C1462     1.0  0.49291  0.31666  0.84076  1.0000
  C   C1463     1.0  0.71113  0.23166  0.51649  1.0000
  H   H2575     1.0  0.66911  0.00635  0.64363  1.0000
  H   H2576     1.0  0.63669  0.03554  0.63278  1.0000
  S   S322      1.0  0.57157  0.29165  0.54647  1.0000
  H   H2577     1.0  0.72558  0.19319  0.70624  1.0000
  H   H2578     1.0  0.70082  0.04137  0.64159  1.0000
  C   C1464     1.0  0.71418  0.17159  0.67561  1.0000
  H   H2579     1.0  0.70264  0.17252  0.68789  1.0000
  C   C1465     1.0  0.56524  0.24456  0.52413  1.0000
  H   H2580     1.0  0.63131  0.14898  0.49110  1.0000
  H   H2581     1.0  0.55823  0.26032  0.49763  1.0000
  H   H2582     1.0  0.50461  0.30186  0.55575  1.0000
  C   C1466     1.0  0.73071  0.07673  0.77869  1.0000
  H   H2583     1.0  0.70531  0.23120  0.53392  1.0000
  H   H2584     1.0  0.57066  0.20149  0.49594  1.0000
  H   H2585     1.0  0.69787  0.17209  0.64115  1.0000
  C   C1467     1.0  0.67109  0.03793  0.62012  1.0000
  H   H2586     1.0  0.52119  0.06808  0.62373  1.0000
  C   C1468     1.0  0.50794  0.07611  0.65208  1.0000
  H   H2587     1.0  0.70782  0.13978  0.49754  1.0000
  H   H2588     1.0  0.55485  0.27746  0.62957  1.0000
  C   C1469     1.0  0.70440  0.11112  0.70758  1.0000
  H   H2589     1.0  0.62125  0.26708  0.55850  1.0000
  H   H2590     1.0  0.56224  0.25925  0.64405  1.0000
  H   H2591     1.0  0.52368  0.26729  0.62606  1.0000
  H   H2592     1.0  0.69056  0.01987  0.66027  1.0000
  H   H2593     1.0  0.52283  0.25677  0.49595  1.0000
  H   H2594     1.0  0.65511  0.06780  0.64033  1.0000
  C   C1470     1.0  0.51861  0.09561  0.61598  1.0000
  H   H2595     1.0  0.69523  0.03493  0.69201  1.0000
  C   C1471     1.0  0.57554  0.28609  0.64901  1.0000
  H   H2596     1.0  0.68721  0.02026  0.81633  1.0000
  H   H2597     1.0  0.60583  0.32067  0.67618  1.0000
  H   H2598     1.0  0.72619  0.13490  0.69206  1.0000
  H   H2599     1.0  0.50355  0.02597  0.64474  1.0000
  H   H2600     1.0  0.62743  0.07537  0.65569  1.0000
  H   H2601     1.0  0.50151  0.25429  0.53082  1.0000
  C   C1472     1.0  0.51250  0.10960  0.62416  1.0000
  S   S323      1.0  0.49180  0.08735  0.68804  1.0000
  C   C1473     1.0  0.65661  0.13833  0.50983  1.0000
  S   S324      1.0  0.51113  0.13584  0.55222  1.0000
  C   C1474     1.0  0.69174  0.06313  0.58986  1.0000
  H   H2602     1.0  0.58699  0.28763  0.63529  1.0000
  H   H2603     1.0  0.60614  0.01187  0.82972  1.0000
  H   H2604     1.0  0.66594  0.03414  0.67679  1.0000
  H   H2605     1.0  0.53553  0.24313  0.63904  1.0000
  C   C1475     1.0  0.55184  0.31803  0.48780  1.0000
  H   H2606     1.0  0.60433  0.99808  0.77455  1.0000
  C   C1476     1.0  0.62628  0.06138  0.65182  1.0000
  H   H2607     1.0  0.50883  0.22552  0.52491  1.0000
  H   H2608     1.0  0.70444  0.05722  0.67432  1.0000
  S   S325      1.0  0.51071  0.12816  0.49116  1.0000
  H   H2609     1.0  0.64808  0.05793  0.66863  1.0000
  H   H2610     1.0  0.57305  0.29976  0.64944  1.0000
  C   C1477     1.0  0.50993  0.27224  0.69267  1.0000
  H   H2611     1.0  0.68262  0.01140  0.89198  1.0000
  S   S326      1.0  0.53287  0.28607  0.58033  1.0000
  H   H2612     1.0  0.69037  0.08496  0.67037  1.0000
  N   N80       1.0  0.60918  0.21240  0.54906  1.0000
  C   C1478     1.0  0.62860  0.21230  0.55091  1.0000
  C   C1479     1.0  0.59585  0.19687  0.56552  1.0000
  C   C1480     1.0  0.60632  0.20911  0.52626  1.0000
  C   C1481     1.0  0.60565  0.23070  0.55158  1.0000
  C   C1482     1.0  0.60955  0.23806  0.57284  1.0000
  C   C1483     1.0  0.64386  0.22708  0.53446  1.0000
  C   C1484     1.0  0.58614  0.20395  0.52254  1.0000
  C   C1485     1.0  0.60116  0.19204  0.58828  1.0000
  C   C1486     1.0  0.58521  0.17813  0.60401  1.0000
  C   C1487     1.0  0.60941  0.25823  0.57079  1.0000
  C   C1488     1.0  0.66278  0.22545  0.53800  1.0000
  H   H2613     1.0  0.66400  0.01326  0.79001  1.0000
  H   H2614     1.0  0.63054  0.19860  0.54884  1.0000
  H   H2615     1.0  0.63152  0.21393  0.56755  1.0000
  H   H2616     1.0  0.58215  0.19949  0.56815  1.0000
  H   H2617     1.0  0.59380  0.18381  0.55888  1.0000
  H   H2618     1.0  0.61215  0.19782  0.52181  1.0000
  H   H2619     1.0  0.61387  0.22144  0.51376  1.0000
  H   H2620     1.0  0.61355  0.24146  0.53735  1.0000
  H   H2621     1.0  0.59109  0.23015  0.55102  1.0000
  H   H2622     1.0  0.62304  0.23726  0.57672  1.0000
  H   H2623     1.0  0.59866  0.23023  0.58682  1.0000
  H   H2624     1.0  0.64280  0.22549  0.51725  1.0000
  H   H2625     1.0  0.64312  0.24110  0.53662  1.0000
  H   H2626     1.0  0.57823  0.21261  0.52979  1.0000
  H   H2627     1.0  0.57909  0.18951  0.53035  1.0000
  H   H2628     1.0  0.61273  0.18566  0.58651  1.0000
  H   H2629     1.0  0.60540  0.20423  0.59604  1.0000
  H   H2630     1.0  0.59259  0.19692  0.49021  1.0000
  H   H2631     1.0  0.58953  0.17452  0.61992  1.0000
  H   H2632     1.0  0.57337  0.18396  0.60705  1.0000
  C   C1489     1.0  0.51634  0.07888  0.62999  1.0000
  H   H2633     1.0  0.58116  0.99364  0.78650  1.0000
  H   H2634     1.0  0.61031  0.26275  0.58689  1.0000
  H   H2635     1.0  0.48832  0.28711  0.84372  1.0000
  H   H2636     1.0  0.61541  0.05137  0.66434  1.0000
  H   H2637     1.0  0.66443  0.21183  0.53518  1.0000
  H   H2638     1.0  0.57746  0.24321  0.51341  1.0000
  H   H2639     1.0  0.55933  0.23188  0.53654  1.0000
  C   C1490     1.0  0.67179  0.00439  0.78271  1.0000
  Fe  Fe160     1.0  0.54534  0.31374  0.58839  1.0000
  N   N81       1.0  0.66143  0.03193  0.64373  1.0000
  H   H2640     1.0  0.72182  0.01417  0.84806  1.0000
  Fe  Fe161     1.0  0.54499  0.29854  0.54517  1.0000
  H   H2641     1.0  0.48770  0.05377  0.61471  1.0000
  C   C1491     1.0  0.71051  0.00026  0.93764  1.0000
  H   H2642     1.0  0.49314  0.28117  0.71746  1.0000
  C   C1492     1.0  0.60254  0.01065  0.81325  1.0000
  C   C1493     1.0  0.64368  0.03735  0.64719  1.0000
  C   C1494     1.0  0.66094  0.16064  0.65130  1.0000
  H   H2643     1.0  0.68055  0.99582  0.82113  1.0000
  Fe  Fe162     1.0  0.49967  0.02828  0.72975  1.0000
  H   H2644     1.0  0.66925  0.13440  0.51257  1.0000
  C   C1495     1.0  0.69336  0.15844  0.65208  1.0000
  H   H2645     1.0  0.69045  0.14806  0.64120  1.0000
  C   C1496     1.0  0.53644  0.30288  0.49235  1.0000
  H   H2646     1.0  0.66487  0.22717  0.55495  1.0000
  Fe  Fe163     1.0  0.56022  0.28096  0.58217  1.0000
  H   H2647     1.0  0.48995  0.00851  0.66753  1.0000
  H   H2648     1.0  0.72351  0.03391  0.79908  1.0000
  H   H2649     1.0  0.54826  0.31290  0.68068  1.0000
  C   C1497     1.0  0.73029  0.17175  0.68812  1.0000
  H   H2650     1.0  0.70070  0.11705  0.72228  1.0000
  H   H2651     1.0  0.64769  0.15998  0.66154  1.0000
  N   N82       1.0  0.70826  0.15529  0.66450  1.0000
  H   H2652     1.0  0.53248  0.04255  0.65421  1.0000
  H   H2653     1.0  0.69304  0.14063  0.69650  1.0000
  H   H2654     1.0  0.65852  0.14979  0.64097  1.0000
  C   C1498     1.0  0.70037  0.13776  0.68125  1.0000
  H   H2655     1.0  0.66600  0.17429  0.64038  1.0000
  N   N83       1.0  0.55946  0.08773  0.68024  1.0000
  C   C1499     1.0  0.54240  0.09018  0.69322  1.0000
  C   C1500     1.0  0.55408  0.07243  0.66744  1.0000
  C   C1501     1.0  0.57168  0.08340  0.69607  1.0000
  C   C1502     1.0  0.56971  0.10498  0.66403  1.0000
  C   C1503     1.0  0.55801  0.11365  0.64945  1.0000
  C   C1504     1.0  0.54547  0.10623  0.70640  1.0000
  C   C1505     1.0  0.58881  0.07791  0.68613  1.0000
  C   C1506     1.0  0.54473  0.05303  0.68111  1.0000
  C   C1507     1.0  0.54110  0.03879  0.66605  1.0000
  C   C1508     1.0  0.56999  0.12995  0.63241  1.0000
  C   C1509     1.0  0.52736  0.10977  0.71548  1.0000
  C   C1510     1.0  0.60090  0.07560  0.70331  1.0000
  H   H2656     1.0  0.53529  0.07761  0.70553  1.0000
  H   H2657     1.0  0.53232  0.09179  0.68238  1.0000
  H   H2658     1.0  0.54433  0.07540  0.65677  1.0000
  H   H2659     1.0  0.56616  0.07156  0.65593  1.0000
  H   H2660     1.0  0.56380  0.07227  0.70999  1.0000
  H   H2661     1.0  0.57679  0.09552  0.70387  1.0000
  H   H2662     1.0  0.57702  0.11575  0.67251  1.0000
  H   H2663     1.0  0.58075  0.10219  0.65258  1.0000
  H   H2664     1.0  0.54786  0.11872  0.65950  1.0000
  H   H2665     1.0  0.55052  0.10362  0.64035  1.0000
  H   H2666     1.0  0.55209  0.10281  0.72058  1.0000
  H   H2667     1.0  0.55421  0.11927  0.69621  1.0000
  H   H2668     1.0  0.59728  0.08858  0.67225  1.0000
  H   H2669     1.0  0.58483  0.06468  0.68016  1.0000
  H   H2670     1.0  0.55338  0.04872  0.69251  1.0000
  H   H2671     1.0  0.53135  0.05264  0.69082  1.0000
  H   H2672     1.0  0.53376  0.02508  0.67597  1.0000
  H   H2673     1.0  0.57754  0.14077  0.64057  1.0000
  H   H2674     1.0  0.57991  0.12547  0.62119  1.0000
  H   H2675     1.0  0.56119  0.13584  0.62240  1.0000
  H   H2676     1.0  0.51779  0.09707  0.72562  1.0000
  H   H2677     1.0  0.52985  0.12051  0.72592  1.0000
  H   H2678     1.0  0.52088  0.11468  0.70182  1.0000
  H   H2679     1.0  0.59324  0.06476  0.71750  1.0000
  H   H2680     1.0  0.61300  0.07157  0.69595  1.0000
  H   H2681     1.0  0.60590  0.08870  0.70929  1.0000
  H   H2682     1.0  0.50378  0.23441  0.63443  1.0000
  C   C1511     1.0  0.52644  0.22187  0.56768  1.0000
  H   H2683     1.0  0.62240  0.06113  0.63532  1.0000
  C   C1512     1.0  0.53160  0.20543  0.56889  1.0000
  H   H2684     1.0  0.54994  0.31390  0.64026  1.0000
  H   H2685     1.0  0.71233  0.09758  0.63513  1.0000
  H   H2686     1.0  0.57969  0.28125  0.66464  1.0000
  C   C1513     1.0  0.52528  0.24072  0.65430  1.0000
  H   H2687     1.0  0.51502  0.22331  0.55984  1.0000
  H   H2688     1.0  0.59657  0.26016  0.56570  1.0000
  H   H2689     1.0  0.53230  0.24936  0.57461  1.0000
  H   H2690     1.0  0.72575  0.16104  0.70315  1.0000
  H   H2691     1.0  0.66859  0.14423  0.67707  1.0000
  H   H2692     1.0  0.68977  0.12796  0.67498  1.0000
  H   H2693     1.0  0.71846  0.14170  0.63930  1.0000
  H   H2694     1.0  0.73459  0.14960  0.65589  1.0000
  H   H2695     1.0  0.49060  0.31540  0.85889  1.0000
  C   C1514     1.0  0.51054  0.25502  0.68209  1.0000
  C   C1515     1.0  0.71364  0.12637  0.68784  1.0000
  H   H2696     1.0  0.73224  0.22014  0.52623  1.0000
  C   C1516     1.0  0.50312  0.31603  0.55503  1.0000
  H   H2697     1.0  0.52191  0.27609  0.70102  1.0000
  H   H2698     1.0  0.68013  0.00957  0.85351  1.0000
  H   H2699     1.0  0.70711  0.01557  0.88583  1.0000
  H   H2700     1.0  0.51423  0.24519  0.69444  1.0000
  H   H2701     1.0  0.70952  0.24416  0.50647  1.0000
  H   H2702     1.0  0.49731  0.00215  0.64181  1.0000
  H   H2703     1.0  0.51050  0.28428  0.68020  1.0000
  H   H2704     1.0  0.59113  0.22032  0.48970  1.0000
  H   H2705     1.0  0.48904  0.25354  0.64676  1.0000
  H   H2706     1.0  0.71917  0.99989  0.92201  1.0000
  C   C1517     1.0  0.65209  0.13415  0.48765  1.0000
  H   H2707     1.0  0.59029  0.01578  0.81195  1.0000
  H   H2708     1.0  0.71765  0.18463  0.66352  1.0000
  C   C1518     1.0  0.54021  0.31950  0.64931  1.0000
  H   H2709     1.0  0.59455  0.12171  0.49333  1.0000
  C   C1519     1.0  0.72546  0.01988  0.80286  1.0000
  C   C1520     1.0  0.73410  0.07510  0.80038  1.0000
  H   H2710     1.0  0.72605  0.01485  0.78702  1.0000
  S   S327      1.0  0.48725  0.03362  0.69972  1.0000
  C   C1521     1.0  0.49322  0.27694  0.62165  1.0000
  H   H2711     1.0  0.65222  0.11969  0.48717  1.0000
  H   H2712     1.0  0.69823  0.02369  0.77857  1.0000
  C   C1522     1.0  0.49270  0.26871  0.70989  1.0000
  H   H2713     1.0  0.51285  0.20630  0.49556  1.0000
  H   H2714     1.0  0.73558  0.06705  0.96532  1.0000
  S   S328      1.0  0.52614  0.32595  0.71244  1.0000
  H   H2715     1.0  0.50775  0.31901  0.83472  1.0000
  C   C1523     1.0  0.69279  0.00775  0.85913  1.0000
  H   H2716     1.0  0.53648  0.08566  0.48655  1.0000
  H   H2717     1.0  0.58190  0.31982  0.67911  1.0000
  H   H2718     1.0  0.50133  0.29156  0.61707  1.0000
  H   H2719     1.0  0.55935  0.32174  0.50072  1.0000
  H   H2720     1.0  0.50102  0.31858  0.52104  1.0000
  C   C1524     1.0  0.51634  0.24313  0.49208  1.0000
  H   H2721     1.0  0.48851  0.31510  0.56084  1.0000
  H   H2722     1.0  0.71846  0.99961  0.95119  1.0000
  H   H2723     1.0  0.49186  0.25701  0.72304  1.0000
  N   N84       1.0  0.53061  0.23399  0.48367  1.0000
  H   H2724     1.0  0.53113  0.39504  0.27191  1.0000
  H   H2725     1.0  0.72387  0.64252  0.03550  1.0000
  C   C1525     1.0  0.65768  0.45115  0.47416  1.0000
  Fe  Fe164     1.0  0.69258  0.44643  0.39789  1.0000
  S   S329      1.0  0.69564  0.41834  0.39552  1.0000
  S   S330      1.0  0.70231  0.45718  0.42744  1.0000
  Fe  Fe165     1.0  0.67884  0.45012  0.35376  1.0000
  S   S331      1.0  0.68119  0.42229  0.34813  1.0000
  S   S332      1.0  0.66556  0.46745  0.33208  1.0000
  Fe  Fe166     1.0  0.66880  0.41321  0.38384  1.0000
  S   S333      1.0  0.64535  0.38865  0.39940  1.0000
  Fe  Fe167     1.0  0.70799  0.43026  0.36036  1.0000
  H   H2726     1.0  0.68232  0.39754  0.47521  1.0000
  S   S334      1.0  0.66465  0.44048  0.38899  1.0000
  S   S335      1.0  0.70672  0.45896  0.36315  1.0000
  H   H2727     1.0  0.63603  0.40926  0.27699  1.0000
  H   H2728     1.0  0.73354  0.43805  0.45993  1.0000
  S   S336      1.0  0.56225  0.34382  0.36059  1.0000
  Fe  Fe168     1.0  0.49877  0.56589  0.18518  1.0000
  C   C1526     1.0  0.72963  0.65647  0.99583  1.0000
  C   C1527     1.0  0.65768  0.39049  0.46061  1.0000
  H   H2729     1.0  0.65492  0.54254  0.15689  1.0000
  H   H2730     1.0  0.60570  0.40899  0.23652  1.0000
  C   C1528     1.0  0.55292  0.33033  0.19077  1.0000
  H   H2731     1.0  0.64476  0.60456  0.15858  1.0000
  C   C1529     1.0  0.63731  0.60297  0.14458  1.0000
  Fe  Fe169     1.0  0.52104  0.36493  0.17692  1.0000
  S   S337      1.0  0.55069  0.38084  0.16343  1.0000
  S   S338      1.0  0.51022  0.36450  0.21207  1.0000
  C   C1530     1.0  0.71838  0.49816  0.26714  1.0000
  H   H2732     1.0  0.64413  0.56820  0.17372  1.0000
  C   C1531     1.0  0.60970  0.33967  0.47846  1.0000
  Fe  Fe170     1.0  0.62995  0.51016  0.20455  1.0000
  S   S339      1.0  0.61918  0.50050  0.17545  1.0000
  S   S340      1.0  0.62388  0.53594  0.21339  1.0000
  Fe  Fe171     1.0  0.64920  0.47991  0.21098  1.0000
  S   S341      1.0  0.64029  0.46834  0.18156  1.0000
  S   S342      1.0  0.66652  0.46601  0.23044  1.0000
  Fe  Fe172     1.0  0.64763  0.49812  0.16490  1.0000
  S   S343      1.0  0.66053  0.51162  0.12963  1.0000
  Fe  Fe173     1.0  0.61287  0.47196  0.19487  1.0000
  S   S344      1.0  0.58423  0.45234  0.20234  1.0000
  S   S345      1.0  0.65867  0.50925  0.19319  1.0000
  S   S346      1.0  0.62149  0.48202  0.22512  1.0000
  Fe  Fe174     1.0  0.52477  0.58770  0.21148  1.0000
  S   S347      1.0  0.51125  0.59632  0.18354  1.0000
  S   S348      1.0  0.52962  0.60341  0.23960  1.0000
  Fe  Fe175     1.0  0.53435  0.55678  0.19046  1.0000
  S   S349      1.0  0.52186  0.56309  0.16088  1.0000
  S   S350      1.0  0.54394  0.53109  0.19512  1.0000
  Fe  Fe176     1.0  0.53568  0.59283  0.16157  1.0000
  S   S351      1.0  0.54930  0.61219  0.12910  1.0000
  H   H2733     1.0  0.57813  0.62486  0.15461  1.0000
  S   S352      1.0  0.54998  0.58605  0.18939  1.0000
  S   S353      1.0  0.51044  0.55779  0.21488  1.0000
  C   C1532     1.0  0.60157  0.53506  0.20917  1.0000
  C   C1533     1.0  0.59659  0.55123  0.20285  1.0000
  C   C1534     1.0  0.57902  0.55025  0.19796  1.0000
  C   C1535     1.0  0.56624  0.53314  0.20032  1.0000
  C   C1536     1.0  0.57120  0.51711  0.20710  1.0000
  C   C1537     1.0  0.58887  0.51803  0.21119  1.0000
  H   H2734     1.0  0.60642  0.56443  0.20133  1.0000
  H   H2735     1.0  0.57540  0.56265  0.19224  1.0000
  H   H2736     1.0  0.56136  0.50392  0.20931  1.0000
  H   H2737     1.0  0.59258  0.50549  0.21616  1.0000
  C   C1538     1.0  0.57618  0.64004  0.10146  1.0000
  C   C1539     1.0  0.57064  0.62945  0.12275  1.0000
  H   H2738     1.0  0.51159  0.53769  0.26008  1.0000
  C   C1540     1.0  0.71864  0.55121  0.11079  1.0000
  C   C1541     1.0  0.71270  0.54032  0.13186  1.0000
  C   C1542     1.0  0.69490  0.52835  0.13792  1.0000
  C   C1543     1.0  0.68291  0.52690  0.12283  1.0000
  C   C1544     1.0  0.68886  0.53769  0.10173  1.0000
  C   C1545     1.0  0.70654  0.55000  0.09581  1.0000
  H   H2739     1.0  0.72202  0.54102  0.14347  1.0000
  H   H2740     1.0  0.69061  0.51995  0.15407  1.0000
  H   H2741     1.0  0.67985  0.53632  0.08980  1.0000
  H   H2742     1.0  0.71103  0.55807  0.07945  1.0000
  C   C1546     1.0  0.49055  0.63108  0.47330  1.0000
  C   C1547     1.0  0.62499  0.61597  0.14495  1.0000
  C   C1548     1.0  0.49802  0.58469  0.26933  1.0000
  H   H2743     1.0  0.58881  0.38925  0.20136  1.0000
  C   C1549     1.0  0.56008  0.40094  0.17383  1.0000
  C   C1550     1.0  0.57846  0.41098  0.16623  1.0000
  C   C1551     1.0  0.58628  0.42671  0.17487  1.0000
  C   C1552     1.0  0.57575  0.43235  0.19132  1.0000
  C   C1553     1.0  0.55741  0.42233  0.19877  1.0000
  C   C1554     1.0  0.54956  0.40689  0.18993  1.0000
  H   H2744     1.0  0.58669  0.40655  0.15366  1.0000
  H   H2745     1.0  0.60037  0.43443  0.16879  1.0000
  H   H2746     1.0  0.54913  0.42659  0.21138  1.0000
  H   H2747     1.0  0.53533  0.39961  0.19560  1.0000
  H   H2748     1.0  0.62409  0.42844  0.45704  1.0000
  C   C1555     1.0  0.53241  0.38816  0.25742  1.0000
  C   C1556     1.0  0.67537  0.55848  0.17191  1.0000
  C   C1557     1.0  0.52131  0.52910  0.25834  1.0000
  C   C1558     1.0  0.61581  0.36001  0.46799  1.0000
  H   H2749     1.0  0.52295  0.64301  0.19509  1.0000
  H   H2750     1.0  0.53503  0.39861  0.24230  1.0000
  H   H2751     1.0  0.60566  0.39497  0.45755  1.0000
  C   C1559     1.0  0.51568  0.65225  0.20255  1.0000
  H   H2752     1.0  0.53715  0.34109  0.21401  1.0000
  H   H2753     1.0  0.50352  0.64505  0.30720  1.0000
  C   C1560     1.0  0.55732  0.32857  0.46654  1.0000
  C   C1561     1.0  0.51901  0.60938  0.28096  1.0000
  C   C1562     1.0  0.51444  0.59866  0.26490  1.0000
  H   H2754     1.0  0.49427  0.34357  0.45089  1.0000
  H   H2755     1.0  0.71727  0.62129  0.02635  1.0000
  C   C1563     1.0  0.51808  0.33142  0.30234  1.0000
  H   H2756     1.0  0.53197  0.61979  0.27787  1.0000
  H   H2757     1.0  0.49307  0.62557  0.26653  1.0000
  H   H2758     1.0  0.70061  0.60302  0.06260  1.0000
  H   H2759     1.0  0.72638  0.41657  0.43323  1.0000
  N   N85       1.0  0.56558  0.36031  0.23561  1.0000
  H   H2760     1.0  0.64346  0.42337  0.44177  1.0000
  H   H2761     1.0  0.67228  0.56073  0.13822  1.0000
  H   H2762     1.0  0.61572  0.58293  0.13562  1.0000
  C   C1564     1.0  0.68694  0.45235  0.45254  1.0000
  C   C1565     1.0  0.66898  0.45367  0.45359  1.0000
  H   H2763     1.0  0.57751  0.60866  0.29932  1.0000
  C   C1566     1.0  0.71134  0.51230  0.19860  1.0000
  N   N86       1.0  0.62588  0.39299  0.47803  1.0000
  C   C1567     1.0  0.59902  0.64656  0.13230  1.0000
  H   H2764     1.0  0.66401  0.45717  0.43861  1.0000
  H   H2765     1.0  0.67680  0.50447  0.23610  1.0000
  H   H2766     1.0  0.68597  0.52684  0.22015  1.0000
  S   S354      1.0  0.50873  0.33463  0.17813  1.0000
  C   C1568     1.0  0.66549  0.46618  0.30407  1.0000
  C   C1569     1.0  0.67680  0.45747  0.29255  1.0000
  C   C1570     1.0  0.67696  0.45750  0.26997  1.0000
  C   C1571     1.0  0.66553  0.46585  0.25888  1.0000
  C   C1572     1.0  0.65399  0.47426  0.27048  1.0000
  C   C1573     1.0  0.65410  0.47456  0.29294  1.0000
  H   H2767     1.0  0.68566  0.45102  0.30096  1.0000
  H   H2768     1.0  0.68597  0.45101  0.26106  1.0000
  H   H2769     1.0  0.64515  0.48074  0.26211  1.0000
  H   H2770     1.0  0.64534  0.48135  0.30176  1.0000
  H   H2771     1.0  0.64368  0.38833  0.30974  1.0000
  H   H2772     1.0  0.71481  0.62159  0.98990  1.0000
  C   C1574     1.0  0.61926  0.35157  0.35412  1.0000
  C   C1575     1.0  0.63748  0.36219  0.34776  1.0000
  C   C1576     1.0  0.64558  0.37401  0.36129  1.0000
  C   C1577     1.0  0.63558  0.37477  0.38150  1.0000
  C   C1578     1.0  0.61749  0.36398  0.38793  1.0000
  C   C1579     1.0  0.60930  0.35258  0.37421  1.0000
  H   H2773     1.0  0.64536  0.36116  0.33247  1.0000
  H   H2774     1.0  0.65967  0.38207  0.35641  1.0000
  H   H2775     1.0  0.60970  0.36446  0.40356  1.0000
  H   H2776     1.0  0.60780  0.64909  0.14437  1.0000
  N   N87       1.0  0.56584  0.56633  0.26216  1.0000
  C   C1580     1.0  0.54622  0.55476  0.26679  1.0000
  C   C1581     1.0  0.56909  0.57670  0.28082  1.0000
  C   C1582     1.0  0.56902  0.57929  0.24063  1.0000
  C   C1583     1.0  0.57905  0.55464  0.26030  1.0000
  C   C1584     1.0  0.57626  0.53862  0.27969  1.0000
  C   C1585     1.0  0.54096  0.54118  0.25084  1.0000
  C   C1586     1.0  0.58779  0.59402  0.23441  1.0000
  C   C1587     1.0  0.55800  0.59100  0.28362  1.0000
  C   C1588     1.0  0.56278  0.60101  0.30255  1.0000
  C   C1589     1.0  0.58966  0.52715  0.27492  1.0000
  C   C1590     1.0  0.70528  0.63043  0.99145  1.0000
  C   C1591     1.0  0.58943  0.60607  0.21217  1.0000
  H   H2777     1.0  0.53676  0.56372  0.26592  1.0000
  H   H2778     1.0  0.54255  0.54692  0.28389  1.0000
  H   H2779     1.0  0.56555  0.56696  0.29671  1.0000
  H   H2780     1.0  0.58389  0.58379  0.27930  1.0000
  H   H2781     1.0  0.55807  0.58644  0.24018  1.0000
  H   H2782     1.0  0.56786  0.57143  0.22695  1.0000
  H   H2783     1.0  0.57881  0.54881  0.24493  1.0000
  H   H2784     1.0  0.59336  0.56319  0.25877  1.0000
  H   H2785     1.0  0.56226  0.52922  0.28267  1.0000
  H   H2786     1.0  0.57871  0.54399  0.29499  1.0000
  H   H2787     1.0  0.54191  0.54891  0.23417  1.0000
  H   H2788     1.0  0.54994  0.53186  0.24968  1.0000
  H   H2789     1.0  0.59924  0.58753  0.23313  1.0000
  H   H2790     1.0  0.58958  0.60323  0.24671  1.0000
  H   H2791     1.0  0.56082  0.60157  0.26860  1.0000
  H   H2792     1.0  0.54309  0.58418  0.28741  1.0000
  H   H2793     1.0  0.55453  0.61100  0.30429  1.0000
  H   H2794     1.0  0.63342  0.63029  0.14395  1.0000
  C   C1592     1.0  0.66622  0.40050  0.28301  1.0000
  H   H2795     1.0  0.60404  0.53581  0.27198  1.0000
  H   H2796     1.0  0.58777  0.51600  0.28914  1.0000
  H   H2797     1.0  0.58720  0.52079  0.26021  1.0000
  H   H2798     1.0  0.59532  0.34441  0.37944  1.0000
  C   C1593     1.0  0.55005  0.33689  0.21271  1.0000
  S   S355      1.0  0.52408  0.33848  0.32676  1.0000
  H   H2799     1.0  0.58891  0.59769  0.19892  1.0000
  H   H2800     1.0  0.57822  0.61295  0.21240  1.0000
  H   H2801     1.0  0.60271  0.61684  0.20839  1.0000
  C   C1594     1.0  0.49686  0.33207  0.46179  1.0000
  H   H2802     1.0  0.70702  0.44682  0.47116  1.0000
  C   C1595     1.0  0.71284  0.63389  0.02848  1.0000
  C   C1596     1.0  0.61360  0.42724  0.29913  1.0000
  H   H2803     1.0  0.51123  0.63297  0.44535  1.0000
  H   H2804     1.0  0.52422  0.52438  0.12513  1.0000
  H   H2805     1.0  0.71581  0.54363  0.21712  1.0000
  H   H2806     1.0  0.72970  0.49643  0.18707  1.0000
  H   H2807     1.0  0.62013  0.42678  0.26365  1.0000
  H   H2808     1.0  0.49450  0.57617  0.25721  1.0000
  C   C1597     1.0  0.60854  0.39393  0.31347  1.0000
  C   C1598     1.0  0.50688  0.60684  0.30088  1.0000
  H   H2809     1.0  0.60861  0.39018  0.27857  1.0000
  H   H2810     1.0  0.65444  0.39300  0.44390  1.0000
  H   H2811     1.0  0.63152  0.43401  0.36642  1.0000
  N   N88       1.0  0.62219  0.41272  0.30834  1.0000
  C   C1599     1.0  0.65180  0.40227  0.30142  1.0000
  S   S356      1.0  0.73378  0.42319  0.34697  1.0000
  H   H2812     1.0  0.64964  0.53356  0.26116  1.0000
  C   C1600     1.0  0.61275  0.42018  0.34689  1.0000
  H   H2813     1.0  0.58764  0.35874  0.31638  1.0000
  H   H2814     1.0  0.61120  0.45559  0.26777  1.0000
  H   H2815     1.0  0.55399  0.34158  0.17692  1.0000
  H   H2816     1.0  0.51290  0.51337  0.15261  1.0000
  H   H2817     1.0  0.67533  0.62417  0.00261  1.0000
  H   H2818     1.0  0.50539  0.35326  0.29523  1.0000
  H   H2819     1.0  0.71143  0.65817  0.09373  1.0000
  H   H2820     1.0  0.68338  0.54053  0.25520  1.0000
  H   H2821     1.0  0.72195  0.52560  0.19284  1.0000
  C   C1601     1.0  0.49682  0.63120  0.45105  1.0000
  C   C1602     1.0  0.62084  0.39883  0.45611  1.0000
  C   C1603     1.0  0.68568  0.51841  0.23626  1.0000
  C   C1604     1.0  0.67540  0.52659  0.25390  1.0000
  H   H2822     1.0  0.70484  0.51947  0.27328  1.0000
  C   C1605     1.0  0.60079  0.44236  0.26853  1.0000
  H   H2823     1.0  0.57928  0.34913  0.21017  1.0000
  C   C1606     1.0  0.71619  0.49854  0.18480  1.0000
  H   H2824     1.0  0.68576  0.60668  0.01297  1.0000
  C   C1607     1.0  0.64631  0.39848  0.47720  1.0000
  H   H2825     1.0  0.54521  0.36943  0.27357  1.0000
  H   H2826     1.0  0.69330  0.64091  0.05274  1.0000
  H   H2827     1.0  0.56073  0.39011  0.25737  1.0000
  H   H2828     1.0  0.61786  0.57840  0.16368  1.0000
  H   H2829     1.0  0.71072  0.62321  0.07361  1.0000
  C   C1608     1.0  0.69862  0.61609  0.06705  1.0000
  C   C1609     1.0  0.56245  0.34503  0.25491  1.0000
  H   H2830     1.0  0.53662  0.35802  0.24024  1.0000
  H   H2831     1.0  0.61130  0.38518  0.32777  1.0000
  H   H2832     1.0  0.51418  0.42892  0.14178  1.0000
  H   H2833     1.0  0.69805  0.51405  0.19508  1.0000
  C   C1610     1.0  0.60608  0.40530  0.21991  1.0000
  H   H2834     1.0  0.55017  0.37833  0.22274  1.0000
  H   H2835     1.0  0.51925  0.37774  0.25807  1.0000
  C   C1611     1.0  0.65088  0.57038  0.15619  1.0000
  H   H2836     1.0  0.61471  0.61214  0.16035  1.0000
  C   C1612     1.0  0.63926  0.41357  0.29256  1.0000
  H   H2837     1.0  0.59061  0.35717  0.28776  1.0000
  H   H2838     1.0  0.72818  0.48546  0.29473  1.0000
  S   S357      1.0  0.49716  0.37194  0.16448  1.0000
  H   H2839     1.0  0.60875  0.41814  0.20777  1.0000
  H   H2840     1.0  0.49624  0.34392  0.26089  1.0000
  H   H2841     1.0  0.68170  0.41406  0.45176  1.0000
  C   C1613     1.0  0.50361  0.33620  0.27030  1.0000
  H   H2842     1.0  0.70502  0.48691  0.30120  1.0000
  H   H2843     1.0  0.68601  0.39255  0.44774  1.0000
  H   H2844     1.0  0.62287  0.40935  0.37534  1.0000
  H   H2845     1.0  0.67474  0.41432  0.27443  1.0000
  C   C1614     1.0  0.70409  0.50886  0.26253  1.0000
  H   H2846     1.0  0.72400  0.50338  0.22507  1.0000
  C   C1615     1.0  0.64548  0.57424  0.11754  1.0000
  C   C1616     1.0  0.62353  0.55008  0.14738  1.0000
  H   H2847     1.0  0.65918  0.40917  0.31343  1.0000
  H   H2848     1.0  0.63715  0.58109  0.10770  1.0000
  C   C1617     1.0  0.71040  0.50542  0.22342  1.0000
  C   C1618     1.0  0.64865  0.55845  0.10555  1.0000
  C   C1619     1.0  0.60554  0.54761  0.13790  1.0000
  C   C1620     1.0  0.69814  0.65579  0.00968  1.0000
  H   H2849     1.0  0.63940  0.43052  0.32607  1.0000
  C   C1621     1.0  0.66048  0.56607  0.08283  1.0000
  C   C1622     1.0  0.59513  0.52735  0.14081  1.0000
  H   H2850     1.0  0.67252  0.51774  0.27032  1.0000
  H   H2851     1.0  0.65543  0.54952  0.11483  1.0000
  H   H2852     1.0  0.63020  0.53954  0.14247  1.0000
  H   H2853     1.0  0.67530  0.39285  0.29007  1.0000
  H   H2854     1.0  0.68642  0.61279  0.08022  1.0000
  H   H2855     1.0  0.66693  0.55440  0.18864  1.0000
  H   H2856     1.0  0.65962  0.39286  0.27099  1.0000
  C   C1623     1.0  0.69580  0.62839  0.04710  1.0000
  H   H2857     1.0  0.63541  0.54963  0.10320  1.0000
  H   H2858     1.0  0.69069  0.49850  0.26897  1.0000
  H   H2859     1.0  0.59630  0.55445  0.14678  1.0000
  H   H2860     1.0  0.60831  0.55370  0.12019  1.0000
  C   C1624     1.0  0.60765  0.38214  0.29499  1.0000
  H   H2861     1.0  0.61918  0.37570  0.29410  1.0000
  H   H2862     1.0  0.61750  0.39897  0.21633  1.0000
  H   H2863     1.0  0.60830  0.42409  0.38072  1.0000
  H   H2864     1.0  0.57799  0.37238  0.29786  1.0000
  H   H2865     1.0  0.65449  0.57556  0.07299  1.0000
  H   H2866     1.0  0.67458  0.57345  0.08442  1.0000
  H   H2867     1.0  0.60352  0.51970  0.13197  1.0000
  H   H2868     1.0  0.59153  0.52114  0.15853  1.0000
  H   H2869     1.0  0.58227  0.52611  0.13408  1.0000
  C   C1625     1.0  0.65699  0.52810  0.24816  1.0000
  S   S358      1.0  0.55391  0.33794  0.42370  1.0000
  H   H2870     1.0  0.59453  0.39520  0.31898  1.0000
  H   H2871     1.0  0.54841  0.33580  0.25718  1.0000
  H   H2872     1.0  0.73437  0.46895  0.45006  1.0000
  H   H2873     1.0  0.56697  0.36430  0.20035  1.0000
  C   C1626     1.0  0.62797  0.41761  0.32949  1.0000
  H   H2874     1.0  0.60512  0.36265  0.45857  1.0000
  C   C1627     1.0  0.54979  0.36882  0.23807  1.0000
  N   N89       1.0  0.49694  0.65493  0.26346  1.0000
  H   H2875     1.0  0.59743  0.44160  0.25184  1.0000
  H   H2876     1.0  0.57717  0.39950  0.22113  1.0000
  C   C1628     1.0  0.60459  0.65712  0.11099  1.0000
  H   H2877     1.0  0.66698  0.59631  0.98597  1.0000
  C   C1629     1.0  0.67818  0.39921  0.45884  1.0000
  C   C1630     1.0  0.62830  0.41952  0.44593  1.0000
  H   H2878     1.0  0.52003  0.52006  0.27432  1.0000
  C   C1631     1.0  0.68592  0.61699  0.99853  1.0000
  H   H2879     1.0  0.66133  0.55458  0.07392  1.0000
  H   H2880     1.0  0.64827  0.51442  0.24686  1.0000
  H   H2881     1.0  0.56292  0.35063  0.27042  1.0000
  H   H2882     1.0  0.58443  0.37781  0.25183  1.0000
  H   H2883     1.0  0.55962  0.59111  0.31825  1.0000
  H   H2884     1.0  0.73351  0.59358  0.99748  1.0000
  H   H2885     1.0  0.68330  0.62099  0.04165  1.0000
  C   C1632     1.0  0.56640  0.35318  0.21418  1.0000
  C   C1633     1.0  0.61933  0.42202  0.36866  1.0000
  H   H2886     1.0  0.65892  0.58470  0.11550  1.0000
  H   H2887     1.0  0.61776  0.61564  0.13066  1.0000
  C   C1634     1.0  0.58354  0.37414  0.23528  1.0000
  H   H2888     1.0  0.71463  0.48473  0.26148  1.0000
  H   H2889     1.0  0.62572  0.39142  0.44346  1.0000
  H   H2890     1.0  0.52108  0.64607  0.26843  1.0000
  H   H2891     1.0  0.66060  0.58433  0.15264  1.0000
  H   H2892     1.0  0.64739  0.60751  0.12904  1.0000
  S   S359      1.0  0.60883  0.33720  0.33698  1.0000
  H   H2893     1.0  0.63347  0.40676  0.33771  1.0000
  C   C1635     1.0  0.51062  0.33940  0.47622  1.0000
  N   N90       1.0  0.63662  0.56912  0.14154  1.0000
  N   N91       1.0  0.70477  0.51740  0.23895  1.0000
  H   H2894     1.0  0.65904  0.53759  0.23232  1.0000
  H   H2895     1.0  0.56737  0.63759  0.08940  1.0000
  H   H2896     1.0  0.60895  0.43298  0.34145  1.0000
  H   H2897     1.0  0.53659  0.64551  0.30074  1.0000
  C   C1636     1.0  0.60821  0.42621  0.27623  1.0000
  H   H2898     1.0  0.68427  0.57271  0.16997  1.0000
  H   H2899     1.0  0.72391  0.50726  0.29783  1.0000
  C   C1637     1.0  0.62109  0.42373  0.42475  1.0000
  H   H2900     1.0  0.64773  0.42805  0.28757  1.0000
  C   C1638     1.0  0.58784  0.39217  0.21834  1.0000
  H   H2901     1.0  0.61948  0.54604  0.16552  1.0000
  H   H2902     1.0  0.68429  0.54913  0.17012  1.0000
  C   C1639     1.0  0.62592  0.58271  0.14670  1.0000
  H   H2903     1.0  0.56895  0.34058  0.46317  1.0000
  H   H2904     1.0  0.62302  0.44117  0.29826  1.0000
  C   C1640     1.0  0.50876  0.34144  0.28978  1.0000
  C   C1641     1.0  0.66311  0.55706  0.15446  1.0000
  H   H2905     1.0  0.59714  0.41353  0.27697  1.0000
  H   H2906     1.0  0.51055  0.61511  0.31319  1.0000
  H   H2907     1.0  0.70084  0.49136  0.22789  1.0000
  C   C1642     1.0  0.59302  0.65380  0.09560  1.0000
  H   H2908     1.0  0.62683  0.43852  0.41748  1.0000
  H   H2909     1.0  0.62533  0.41547  0.41274  1.0000
  H   H2910     1.0  0.60592  0.42057  0.42799  1.0000
  C   C1643     1.0  0.54810  0.37911  0.25775  1.0000
  C   C1644     1.0  0.58985  0.36670  0.29955  1.0000
  H   H2911     1.0  0.50979  0.41359  0.16768  1.0000
  H   H2912     1.0  0.50372  0.36450  0.47797  1.0000
  C   C1645     1.0  0.58219  0.63281  0.13817  1.0000
  H   H2913     1.0  0.59511  0.36804  0.23146  1.0000
  H   H2914     1.0  0.58815  0.44202  0.27984  1.0000
  H   H2915     1.0  0.60038  0.40833  0.34994  1.0000
  N   N92       1.0  0.54374  0.47601  0.16250  1.0000
  C   C1646     1.0  0.54829  0.47126  0.18500  1.0000
  C   C1647     1.0  0.56078  0.47935  0.14549  1.0000
  C   C1648     1.0  0.53858  0.49396  0.16158  1.0000
  C   C1649     1.0  0.52807  0.46146  0.15768  1.0000
  C   C1650     1.0  0.52599  0.44115  0.16803  1.0000
  C   C1651     1.0  0.53344  0.47102  0.20472  1.0000
  C   C1652     1.0  0.53503  0.50247  0.13909  1.0000
  C   C1653     1.0  0.56870  0.46280  0.14322  1.0000
  C   C1654     1.0  0.58776  0.46885  0.12900  1.0000
  C   C1655     1.0  0.51093  0.42790  0.15987  1.0000
  C   C1656     1.0  0.53744  0.46231  0.22639  1.0000
  C   C1657     1.0  0.52637  0.51830  0.14143  1.0000
  H   H2916     1.0  0.56123  0.48112  0.18678  1.0000
  H   H2917     1.0  0.55129  0.45776  0.18723  1.0000
  H   H2918     1.0  0.55827  0.48390  0.12879  1.0000
  H   H2919     1.0  0.57179  0.49070  0.14888  1.0000
  H   H2920     1.0  0.54942  0.50453  0.16662  1.0000
  H   H2921     1.0  0.52585  0.49223  0.17351  1.0000
  H   H2922     1.0  0.51476  0.46418  0.16335  1.0000
  H   H2923     1.0  0.52899  0.46218  0.13960  1.0000
  H   H2924     1.0  0.52220  0.43892  0.18617  1.0000
  H   H2925     1.0  0.53876  0.43707  0.16418  1.0000
  H   H2926     1.0  0.53304  0.48524  0.20628  1.0000
  H   H2927     1.0  0.51966  0.46336  0.20259  1.0000
  H   H2928     1.0  0.52571  0.49210  0.13201  1.0000
  H   H2929     1.0  0.54809  0.50826  0.12729  1.0000
  H   H2930     1.0  0.57007  0.45582  0.15926  1.0000
  H   H2931     1.0  0.55975  0.45281  0.13525  1.0000
  H   H2932     1.0  0.59750  0.47826  0.13680  1.0000
  H   H2933     1.0  0.59287  0.45660  0.12733  1.0000
  H   H2934     1.0  0.58735  0.47585  0.11235  1.0000
  N   N93       1.0  0.71105  0.64387  0.00648  1.0000
  H   H2935     1.0  0.60076  0.42673  0.31020  1.0000
  H   H2936     1.0  0.68435  0.64759  0.01837  1.0000
  H   H2937     1.0  0.55156  0.46904  0.22858  1.0000
  H   H2938     1.0  0.52761  0.46388  0.24030  1.0000
  H   H2939     1.0  0.53592  0.44742  0.22678  1.0000
  H   H2940     1.0  0.53550  0.52922  0.14803  1.0000
  H   H2941     1.0  0.52507  0.64728  0.23289  1.0000
  H   H2942     1.0  0.73240  0.50559  0.25860  1.0000
  C   C1658     1.0  0.51478  0.65719  0.27205  1.0000
  H   H2943     1.0  0.51758  0.52033  0.24593  1.0000
  C   C1659     1.0  0.51173  0.64655  0.22753  1.0000
  H   H2944     1.0  0.49750  0.43076  0.16441  1.0000
  C   C1660     1.0  0.71713  0.53676  0.23351  1.0000
  H   H2945     1.0  0.71275  0.54523  0.24521  1.0000
  H   H2946     1.0  0.71687  0.50382  0.16713  1.0000
  H   H2947     1.0  0.48952  0.62929  0.41898  1.0000
  C   C1661     1.0  0.71886  0.49424  0.29172  1.0000
  H   H2948     1.0  0.65176  0.41368  0.47380  1.0000
  H   H2949     1.0  0.49230  0.47357  0.19106  1.0000
  H   H2950     1.0  0.50337  0.63202  0.23126  1.0000
  H   H2951     1.0  0.62870  0.36246  0.45620  1.0000
  H   H2952     1.0  0.50274  0.65112  0.19599  1.0000
  C   C1662     1.0  0.50153  0.65913  0.23867  1.0000
  H   H2953     1.0  0.59023  0.34149  0.25385  1.0000
  H   H2954     1.0  0.70554  0.48514  0.18943  1.0000
  H   H2955     1.0  0.60775  0.33111  0.46547  1.0000
  C   C1663     1.0  0.49028  0.59317  0.30516  1.0000
  C   C1664     1.0  0.69333  0.44813  0.47204  1.0000
  H   H2956     1.0  0.73269  0.49050  0.41716  1.0000
  H   H2957     1.0  0.52373  0.34692  0.46510  1.0000
  Fe  Fe177     1.0  0.49652  0.33481  0.21306  1.0000
  C   C1665     1.0  0.57614  0.33308  0.25399  1.0000
  H   H2958     1.0  0.65508  0.37549  0.46619  1.0000
  H   H2959     1.0  0.64394  0.45260  0.47496  1.0000
  H   H2960     1.0  0.57619  0.32650  0.23920  1.0000
  C   C1666     1.0  0.53220  0.65785  0.30404  1.0000
  C   C1667     1.0  0.51371  0.65731  0.29714  1.0000
  H   H2961     1.0  0.48906  0.65833  0.23127  1.0000
  H   H2962     1.0  0.53102  0.65807  0.32194  1.0000
  H   H2963     1.0  0.58561  0.35362  0.57578  1.0000
  H   H2964     1.0  0.65649  0.52381  0.66537  1.0000
  C   C1668     1.0  0.67469  0.63812  0.91338  1.0000
  H   H2965     1.0  0.49458  0.37918  0.81841  1.0000
  H   H2966     1.0  0.66741  0.47610  0.85068  1.0000
  C   C1669     1.0  0.50380  0.35247  0.49028  1.0000
  H   H2967     1.0  0.52343  0.37999  0.79874  1.0000
  Fe  Fe178     1.0  0.66479  0.41032  0.58664  1.0000
  S   S360      1.0  0.64189  0.42246  0.58041  1.0000
  S   S361      1.0  0.65714  0.38014  0.60034  1.0000
  Fe  Fe179     1.0  0.69290  0.44723  0.57534  1.0000
  S   S362      1.0  0.67202  0.46256  0.56856  1.0000
  H   H2968     1.0  0.72703  0.44089  0.49432  1.0000
  Fe  Fe180     1.0  0.65458  0.44400  0.59903  1.0000
  S   S363      1.0  0.63508  0.44949  0.62631  1.0000
  Fe  Fe181     1.0  0.66132  0.43965  0.55051  1.0000
  H   H2969     1.0  0.61333  0.64772  0.72574  1.0000
  S   S364      1.0  0.67636  0.43066  0.60723  1.0000
  S   S365      1.0  0.68339  0.42554  0.55516  1.0000
  H   H2970     1.0  0.53971  0.36997  0.48429  1.0000
  S   S366      1.0  0.72252  0.46320  0.57121  1.0000
  C   C1670     1.0  0.50695  0.34611  0.52964  1.0000
  C   C1671     1.0  0.61798  0.37245  0.48577  1.0000
  H   H2971     1.0  0.71036  0.65936  0.90071  1.0000
  C   C1672     1.0  0.73103  0.43740  0.60034  1.0000
  H   H2972     1.0  0.62420  0.41787  0.49060  1.0000
  C   C1673     1.0  0.70787  0.64520  0.90989  1.0000
  H   H2973     1.0  0.68723  0.44226  0.50747  1.0000
  H   H2974     1.0  0.66468  0.62325  0.87696  1.0000
  Fe  Fe182     1.0  0.50906  0.34278  0.72821  1.0000
  H   H2975     1.0  0.72984  0.49169  0.64062  1.0000
  H   H2976     1.0  0.63423  0.62681  0.82725  1.0000
  C   C1674     1.0  0.68895  0.46904  0.72606  1.0000
  H   H2977     1.0  0.57949  0.65623  0.60661  1.0000
  Fe  Fe183     1.0  0.51070  0.37746  0.74812  1.0000
  S   S367      1.0  0.52424  0.40456  0.75795  1.0000
  Fe  Fe184     1.0  0.49754  0.63914  0.52554  1.0000
  S   S368      1.0  0.51462  0.37250  0.71340  1.0000
  Fe  Fe185     1.0  0.64140  0.50278  0.77495  1.0000
  S   S369      1.0  0.63992  0.51726  0.74149  1.0000
  S   S370      1.0  0.65128  0.51906  0.80161  1.0000
  Fe  Fe186     1.0  0.61942  0.46510  0.76625  1.0000
  S   S371      1.0  0.61689  0.47722  0.73276  1.0000
  S   S372      1.0  0.60596  0.43432  0.77420  1.0000
  Fe  Fe187     1.0  0.64622  0.49268  0.72913  1.0000
  S   S373      1.0  0.66537  0.49589  0.69689  1.0000
  Fe  Fe188     1.0  0.61066  0.50030  0.74790  1.0000
  S   S374      1.0  0.58515  0.50757  0.74023  1.0000
  S   S375      1.0  0.64973  0.47911  0.76206  1.0000
  S   S376      1.0  0.61127  0.48728  0.78205  1.0000
  Fe  Fe189     1.0  0.56425  0.59824  0.72358  1.0000
  S   S377      1.0  0.54933  0.58768  0.75820  1.0000
  S   S378      1.0  0.58909  0.59071  0.70849  1.0000
  Fe  Fe190     1.0  0.54153  0.62454  0.71385  1.0000
  S   S379      1.0  0.52544  0.61696  0.74833  1.0000
  S   S380      1.0  0.53776  0.64553  0.68650  1.0000
  Fe  Fe191     1.0  0.55234  0.61765  0.75988  1.0000
  S   S381      1.0  0.56137  0.62663  0.79133  1.0000
  Fe  Fe192     1.0  0.52384  0.58773  0.74393  1.0000
  H   H2978     1.0  0.52353  0.42723  0.66578  1.0000
  S   S382      1.0  0.56846  0.62798  0.72583  1.0000
  S   S383      1.0  0.53875  0.59551  0.70911  1.0000
  C   C1675     1.0  0.58665  0.53087  0.73220  1.0000
  C   C1676     1.0  0.57056  0.53656  0.73382  1.0000
  C   C1677     1.0  0.57129  0.55503  0.72693  1.0000
  C   C1678     1.0  0.58807  0.56773  0.71777  1.0000
  C   C1679     1.0  0.60414  0.56201  0.71576  1.0000
  C   C1680     1.0  0.60348  0.54364  0.72334  1.0000
  H   H2979     1.0  0.55752  0.52668  0.74060  1.0000
  H   H2980     1.0  0.55882  0.55935  0.72834  1.0000
  H   H2981     1.0  0.61714  0.57184  0.70867  1.0000
  H   H2982     1.0  0.61593  0.53933  0.72211  1.0000
  H   H2983     1.0  0.64459  0.65274  0.91086  1.0000
  C   C1681     1.0  0.70648  0.54235  0.79594  1.0000
  C   C1682     1.0  0.68947  0.53214  0.79203  1.0000
  C   C1683     1.0  0.67313  0.53260  0.80473  1.0000
  C   C1684     1.0  0.67409  0.54356  0.82123  1.0000
  H   H2984     1.0  0.71900  0.54169  0.78616  1.0000
  H   H2985     1.0  0.68902  0.52374  0.77936  1.0000
  H   H2986     1.0  0.51845  0.47398  0.70811  1.0000
  H   H2987     1.0  0.52991  0.41401  0.68837  1.0000
  C   C1685     1.0  0.54745  0.41276  0.76077  1.0000
  C   C1686     1.0  0.55961  0.40178  0.75977  1.0000
  C   C1687     1.0  0.57759  0.40855  0.76367  1.0000
  C   C1688     1.0  0.58371  0.42649  0.76797  1.0000
  C   C1689     1.0  0.57170  0.43763  0.76823  1.0000
  C   C1690     1.0  0.55362  0.43071  0.76493  1.0000
  H   H2988     1.0  0.55504  0.38794  0.75659  1.0000
  H   H2989     1.0  0.58678  0.39984  0.76347  1.0000
  H   H2990     1.0  0.57620  0.45143  0.77160  1.0000
  H   H2991     1.0  0.54435  0.43930  0.76585  1.0000
  H   H2992     1.0  0.57841  0.38498  0.59871  1.0000
  C   C1691     1.0  0.52003  0.62790  0.62338  1.0000
  C   C1692     1.0  0.51858  0.61463  0.64192  1.0000
  C   C1693     1.0  0.52298  0.61990  0.66169  1.0000
  C   C1694     1.0  0.52953  0.63849  0.66292  1.0000
  S   S384      1.0  0.49528  0.56775  0.75244  1.0000
  H   H2993     1.0  0.49581  0.36091  0.89827  1.0000
  C   C1695     1.0  0.61744  0.40285  0.49436  1.0000
  H   H2994     1.0  0.52167  0.60952  0.67582  1.0000
  H   H2995     1.0  0.56354  0.35731  0.58462  1.0000
  C   C1696     1.0  0.61768  0.63489  0.72868  1.0000
  H   H2996     1.0  0.56769  0.61427  0.61016  1.0000
  C   C1697     1.0  0.60016  0.34350  0.65623  1.0000
  C   C1698     1.0  0.64433  0.46180  0.64592  1.0000
  C   C1699     1.0  0.63532  0.45713  0.66783  1.0000
  C   C1700     1.0  0.64185  0.46729  0.68362  1.0000
  C   C1701     1.0  0.65709  0.48260  0.67750  1.0000
  C   C1702     1.0  0.66607  0.48732  0.65554  1.0000
  C   C1703     1.0  0.65980  0.47686  0.63981  1.0000
  H   H2997     1.0  0.62335  0.44547  0.67267  1.0000
  H   H2998     1.0  0.63521  0.46308  0.70056  1.0000
  H   H2999     1.0  0.67770  0.49929  0.65061  1.0000
  H   H3000     1.0  0.66654  0.48077  0.62283  1.0000
  H   H3001     1.0  0.66315  0.60287  0.93587  1.0000
  H   H3002     1.0  0.69350  0.39895  0.65090  1.0000
  H   H3003     1.0  0.62612  0.36714  0.49732  1.0000
  H   H3004     1.0  0.70355  0.40184  0.67514  1.0000
  S   S385      1.0  0.64975  0.44375  0.51920  1.0000
  H   H3005     1.0  0.57061  0.65581  0.85755  1.0000
  H   H3006     1.0  0.61980  0.52816  0.68738  1.0000
  C   C1704     1.0  0.62179  0.34954  0.55673  1.0000
  H   H3007     1.0  0.69156  0.56221  0.83778  1.0000
  C   C1705     1.0  0.63045  0.35166  0.59251  1.0000
  C   C1706     1.0  0.64397  0.36804  0.58348  1.0000
  C   C1707     1.0  0.64673  0.37487  0.56102  1.0000
  C   C1708     1.0  0.63601  0.36534  0.54760  1.0000
  C   C1709     1.0  0.56059  0.56931  0.80916  1.0000
  H   H3008     1.0  0.62851  0.34621  0.60984  1.0000
  H   H3009     1.0  0.65732  0.38738  0.55391  1.0000
  H   H3010     1.0  0.63865  0.37037  0.53015  1.0000
  H   H3011     1.0  0.51278  0.35241  0.54310  1.0000
  H   H3012     1.0  0.69578  0.64880  0.87181  1.0000
  H   H3013     1.0  0.57347  0.60380  0.66861  1.0000
  C   C1710     1.0  0.61917  0.34256  0.57919  1.0000
  H   H3014     1.0  0.54619  0.56053  0.65697  1.0000
  H   H3015     1.0  0.60539  0.61113  0.66172  1.0000
  C   C1711     1.0  0.67434  0.65808  0.90466  1.0000
  H   H3016     1.0  0.57079  0.63067  0.57314  1.0000
  H   H3017     1.0  0.67019  0.49410  0.82738  1.0000
  C   C1712     1.0  0.71516  0.48729  0.63932  1.0000
  C   C1713     1.0  0.49194  0.37150  0.88727  1.0000
  C   C1714     1.0  0.69018  0.61300  0.91464  1.0000
  H   H3018     1.0  0.69002  0.49167  0.90027  1.0000
  C   C1715     1.0  0.69376  0.63431  0.87950  1.0000
  C   C1716     1.0  0.67836  0.62197  0.87023  1.0000
  S   S386      1.0  0.50748  0.34803  0.76331  1.0000
  H   H3019     1.0  0.57607  0.37245  0.51994  1.0000
  C   C1717     1.0  0.67089  0.59919  0.92156  1.0000
  H   H3020     1.0  0.67944  0.57517  0.91431  1.0000
  C   C1718     1.0  0.68100  0.62703  0.84525  1.0000
  C   C1719     1.0  0.55913  0.58962  0.64549  1.0000
  H   H3021     1.0  0.69606  0.61293  0.93004  1.0000
  C   C1720     1.0  0.59093  0.65794  0.77738  1.0000
  H   H3022     1.0  0.68639  0.43524  0.68325  1.0000
  H   H3023     1.0  0.69884  0.60695  0.90359  1.0000
  H   H3024     1.0  0.49280  0.42262  0.68820  1.0000
  H   H3025     1.0  0.56769  0.35309  0.50712  1.0000
  H   H3026     1.0  0.72832  0.38709  0.59811  1.0000
  H   H3027     1.0  0.71440  0.42999  0.64627  1.0000
  H   H3028     1.0  0.70652  0.63098  0.87287  1.0000
  H   H3029     1.0  0.50152  0.47243  0.73095  1.0000
  H   H3030     1.0  0.67866  0.60742  0.87408  1.0000
  H   H3031     1.0  0.70398  0.49837  0.82150  1.0000
  N   N94       1.0  0.57984  0.62305  0.63773  1.0000
  H   H3032     1.0  0.69196  0.46307  0.64684  1.0000
  C   C1721     1.0  0.64758  0.53168  0.67276  1.0000
  C   C1722     1.0  0.51542  0.33463  0.67269  1.0000
  H   H3033     1.0  0.66274  0.59903  0.90822  1.0000
  H   H3034     1.0  0.49369  0.53980  0.79342  1.0000
  H   H3035     1.0  0.51336  0.53842  0.74869  1.0000
  H   H3036     1.0  0.68574  0.46555  0.68449  1.0000
  H   H3037     1.0  0.67925  0.64096  0.84048  1.0000
  H   H3038     1.0  0.69484  0.62668  0.83750  1.0000
  N   N95       1.0  0.69131  0.63244  0.90416  1.0000
  H   H3039     1.0  0.72622  0.52722  0.82816  1.0000
  H   H3040     1.0  0.55977  0.57138  0.67547  1.0000
  C   C1723     1.0  0.66423  0.44706  0.49370  1.0000
  C   C1724     1.0  0.69979  0.48478  0.89282  1.0000
  H   H3041     1.0  0.59945  0.33608  0.64214  1.0000
  C   C1725     1.0  0.51623  0.33494  0.64998  1.0000
  C   C1726     1.0  0.72631  0.64017  0.90511  1.0000
  C   C1727     1.0  0.61849  0.39695  0.51886  1.0000
  H   H3042     1.0  0.59546  0.62254  0.75551  1.0000
  H   H3043     1.0  0.59708  0.33584  0.69178  1.0000
  C   C1728     1.0  0.60761  0.40633  0.53376  1.0000
  H   H3044     1.0  0.50723  0.34116  0.64152  1.0000
  H   H3045     1.0  0.50587  0.34061  0.68153  1.0000
  H   H3046     1.0  0.55128  0.36933  0.80009  1.0000
  H   H3047     1.0  0.63290  0.40095  0.52146  1.0000
  H   H3048     1.0  0.61275  0.38195  0.52449  1.0000
  H   H3049     1.0  0.51167  0.40329  0.67499  1.0000
  C   C1729     1.0  0.70109  0.43816  0.67558  1.0000
  H   H3050     1.0  0.60861  0.33010  0.58626  1.0000
  H   H3051     1.0  0.64758  0.54354  0.66030  1.0000
  H   H3052     1.0  0.60967  0.40287  0.55094  1.0000
  N   N96       1.0  0.60010  0.50041  0.66743  1.0000
  C   C1730     1.0  0.59461  0.49323  0.64728  1.0000
  C   C1731     1.0  0.58888  0.51337  0.67328  1.0000
  C   C1732     1.0  0.62031  0.50998  0.66251  1.0000
  C   C1733     1.0  0.59648  0.48507  0.68677  1.0000
  C   C1734     1.0  0.57708  0.47141  0.69176  1.0000
  C   C1735     1.0  0.60366  0.47844  0.63983  1.0000
  C   C1736     1.0  0.62811  0.51943  0.68100  1.0000
  C   C1737     1.0  0.59355  0.53207  0.65748  1.0000
  C   C1738     1.0  0.58093  0.54363  0.66483  1.0000
  C   C1739     1.0  0.57472  0.45743  0.71265  1.0000
  C   C1740     1.0  0.59531  0.47061  0.62109  1.0000
  H   H3053     1.0  0.59816  0.50463  0.63297  1.0000
  H   H3054     1.0  0.57948  0.48764  0.64957  1.0000
  H   H3055     1.0  0.57408  0.50675  0.67407  1.0000
  H   H3056     1.0  0.58986  0.51631  0.69015  1.0000
  H   H3057     1.0  0.62382  0.52021  0.64700  1.0000
  H   H3058     1.0  0.62838  0.50000  0.65940  1.0000
  H   H3059     1.0  0.60671  0.47701  0.68496  1.0000
  H   H3060     1.0  0.59838  0.49096  0.70190  1.0000
  H   H3061     1.0  0.57469  0.46361  0.67819  1.0000
  H   H3062     1.0  0.56633  0.47872  0.69424  1.0000
  H   H3063     1.0  0.61854  0.48452  0.63372  1.0000
  H   H3064     1.0  0.60192  0.46679  0.65335  1.0000
  H   H3065     1.0  0.62852  0.50887  0.69487  1.0000
  H   H3066     1.0  0.60779  0.54022  0.65714  1.0000
  H   H3067     1.0  0.59194  0.53007  0.64052  1.0000
  H   H3068     1.0  0.56641  0.53641  0.66493  1.0000
  H   H3069     1.0  0.57530  0.46442  0.72715  1.0000
  H   H3070     1.0  0.56127  0.44704  0.71519  1.0000
  H   H3071     1.0  0.58560  0.45011  0.71149  1.0000
  H   H3072     1.0  0.59730  0.48167  0.60672  1.0000
  H   H3073     1.0  0.60213  0.46026  0.61584  1.0000
  H   H3074     1.0  0.58047  0.46376  0.62651  1.0000
  H   H3075     1.0  0.65339  0.53698  0.68674  1.0000
  H   H3076     1.0  0.54840  0.59154  0.63577  1.0000
  C   C1741     1.0  0.59760  0.61892  0.62936  1.0000
  H   H3077     1.0  0.55095  0.37278  0.82832  1.0000
  H   H3078     1.0  0.68416  0.50200  0.86614  1.0000
  N   N97       1.0  0.58931  0.37040  0.63731  1.0000
  C   C1742     1.0  0.60883  0.38222  0.63217  1.0000
  C   C1743     1.0  0.58504  0.36149  0.61778  1.0000
  C   C1744     1.0  0.57687  0.38239  0.64254  1.0000
  C   C1745     1.0  0.58639  0.35539  0.65693  1.0000
  C   C1746     1.0  0.61595  0.39118  0.65137  1.0000
  C   C1747     1.0  0.55608  0.37330  0.64459  1.0000
  C   C1748     1.0  0.63632  0.40105  0.64529  1.0000
  C   C1749     1.0  0.54477  0.38619  0.65144  1.0000
  H   H3079     1.0  0.61051  0.39378  0.61841  1.0000
  H   H3080     1.0  0.59471  0.35325  0.61370  1.0000
  H   H3081     1.0  0.57128  0.35136  0.62176  1.0000
  H   H3082     1.0  0.58063  0.39528  0.63018  1.0000
  H   H3083     1.0  0.57880  0.38707  0.65840  1.0000
  H   H3084     1.0  0.58632  0.36111  0.67243  1.0000
  H   H3085     1.0  0.57259  0.34569  0.65897  1.0000
  H   H3086     1.0  0.60867  0.40156  0.65532  1.0000
  H   H3087     1.0  0.61408  0.38090  0.66642  1.0000
  H   H3088     1.0  0.55162  0.36068  0.65723  1.0000
  H   H3089     1.0  0.55265  0.36966  0.62875  1.0000
  N   N98       1.0  0.71375  0.51325  0.86135  1.0000
  H   H3090     1.0  0.64447  0.39108  0.64285  1.0000
  H   H3091     1.0  0.64082  0.40842  0.65861  1.0000
  H   H3092     1.0  0.54711  0.38967  0.66773  1.0000
  H   H3093     1.0  0.54835  0.39900  0.63907  1.0000
  H   H3094     1.0  0.52998  0.37926  0.65279  1.0000
  N   N99       1.0  0.61047  0.59724  0.78090  1.0000
  C   C1750     1.0  0.61650  0.60752  0.75756  1.0000
  C   C1751     1.0  0.61991  0.58213  0.78384  1.0000
  C   C1752     1.0  0.58993  0.58957  0.78496  1.0000
  C   C1753     1.0  0.61544  0.60976  0.79720  1.0000
  C   C1754     1.0  0.63593  0.62058  0.79399  1.0000
  C   C1755     1.0  0.61058  0.62548  0.75258  1.0000
  C   C1756     1.0  0.58136  0.57625  0.80704  1.0000
  C   C1757     1.0  0.61480  0.56677  0.77001  1.0000
  C   C1758     1.0  0.62383  0.55142  0.77580  1.0000
  H   H3095     1.0  0.61442  0.35199  0.65490  1.0000
  H   H3096     1.0  0.54619  0.48222  0.75200  1.0000
  H   H3097     1.0  0.61095  0.59862  0.74594  1.0000
  H   H3098     1.0  0.63164  0.61088  0.75266  1.0000
  H   H3099     1.0  0.63501  0.58791  0.77929  1.0000
  H   H3100     1.0  0.61750  0.57565  0.80145  1.0000
  H   H3101     1.0  0.58544  0.58251  0.77135  1.0000
  H   H3102     1.0  0.58321  0.60093  0.78474  1.0000
  H   H3103     1.0  0.60698  0.61972  0.79744  1.0000
  H   H3104     1.0  0.61201  0.60173  0.81417  1.0000
  H   H3105     1.0  0.64102  0.62865  0.77717  1.0000
  H   H3106     1.0  0.64450  0.61104  0.79706  1.0000
  H   H3107     1.0  0.53700  0.34731  0.49756  1.0000
  H   H3108     1.0  0.61602  0.63553  0.76294  1.0000
  H   H3109     1.0  0.58412  0.58325  0.82117  1.0000
  H   H3110     1.0  0.58677  0.56402  0.80841  1.0000
  H   H3111     1.0  0.59983  0.56038  0.77272  1.0000
  H   H3112     1.0  0.61958  0.57246  0.75227  1.0000
  H   H3113     1.0  0.63899  0.55673  0.77211  1.0000
  H   H3114     1.0  0.61949  0.54512  0.79346  1.0000
  H   H3115     1.0  0.61965  0.54049  0.76598  1.0000
  H   H3116     1.0  0.57795  0.65544  0.56771  1.0000
  H   H3117     1.0  0.62020  0.33602  0.48751  1.0000
  S   S387      1.0  0.50632  0.63377  0.49154  1.0000
  C   C1759     1.0  0.71698  0.49859  0.87804  1.0000
  H   H3118     1.0  0.70765  0.43172  0.68822  1.0000
  H   H3119     1.0  0.50030  0.40456  0.52928  1.0000
  H   H3120     1.0  0.58456  0.55696  0.65337  1.0000
  C   C1760     1.0  0.70907  0.39290  0.57822  1.0000
  S   S388      1.0  0.72941  0.56459  0.81773  1.0000
  C   C1761     1.0  0.57836  0.36416  0.57897  1.0000
  H   H3121     1.0  0.71060  0.40721  0.58104  1.0000
  H   H3122     1.0  0.70579  0.39191  0.56155  1.0000
  C   C1762     1.0  0.49266  0.51552  0.74244  1.0000
  C   C1763     1.0  0.51317  0.43903  0.70508  1.0000
  C   C1764     1.0  0.53468  0.36062  0.50051  1.0000
  H   H3123     1.0  0.51736  0.34789  0.80986  1.0000
  S   S389      1.0  0.72281  0.58776  0.92224  1.0000
  H   H3124     1.0  0.60275  0.40121  0.49323  1.0000
  C   C1765     1.0  0.50429  0.42121  0.69671  1.0000
  H   H3125     1.0  0.52712  0.49121  0.74749  1.0000
  C   C1766     1.0  0.52529  0.46405  0.73898  1.0000
  H   H3126     1.0  0.60856  0.63199  0.62314  1.0000
  S   S390      1.0  0.60725  0.33923  0.53975  1.0000
  H   H3127     1.0  0.71186  0.48191  0.92238  1.0000
  H   H3128     1.0  0.52373  0.43561  0.71425  1.0000
  H   H3129     1.0  0.52097  0.44963  0.69066  1.0000
  H   H3130     1.0  0.69616  0.55687  0.88261  1.0000
  H   H3131     1.0  0.49853  0.34322  0.86612  1.0000
  H   H3132     1.0  0.48802  0.36235  0.80218  1.0000
  H   H3133     1.0  0.68441  0.52301  0.88651  1.0000
  C   C1767     1.0  0.58002  0.64332  0.60052  1.0000
  H   H3134     1.0  0.70654  0.63781  0.97443  1.0000
  H   H3135     1.0  0.49905  0.40945  0.71057  1.0000
  C   C1768     1.0  0.54760  0.36784  0.51639  1.0000
  C   C1769     1.0  0.59374  0.65771  0.67747  1.0000
  C   C1770     1.0  0.72991  0.46318  0.67155  1.0000
  H   H3136     1.0  0.69350  0.48431  0.72244  1.0000
  H   H3137     1.0  0.51857  0.45689  0.75585  1.0000
  H   H3138     1.0  0.53515  0.45675  0.73266  1.0000
  H   H3139     1.0  0.73056  0.64081  0.88728  1.0000
  H   H3140     1.0  0.68005  0.57900  0.94219  1.0000
  H   H3141     1.0  0.54816  0.38234  0.51759  1.0000
  H   H3142     1.0  0.51442  0.37495  0.86131  1.0000
  H   H3143     1.0  0.58758  0.65791  0.76109  1.0000
  H   H3144     1.0  0.48874  0.55613  0.80993  1.0000
  C   C1771     1.0  0.51528  0.35518  0.82395  1.0000
  C   C1772     1.0  0.71385  0.49280  0.61525  1.0000
  H   H3145     1.0  0.69955  0.48802  0.61252  1.0000
  H   H3146     1.0  0.51981  0.38783  0.49538  1.0000
  H   H3147     1.0  0.55433  0.58102  0.80829  1.0000
  H   H3148     1.0  0.70771  0.49514  0.64906  1.0000
  H   H3149     1.0  0.72413  0.37276  0.57768  1.0000
  H   H3150     1.0  0.70013  0.52003  0.90512  1.0000
  C   C1773     1.0  0.59314  0.64027  0.66773  1.0000
  C   C1774     1.0  0.70510  0.47310  0.91143  1.0000
  C   C1775     1.0  0.58618  0.37476  0.59618  1.0000
  H   H3151     1.0  0.61830  0.37437  0.62593  1.0000
  C   C1776     1.0  0.49245  0.43299  0.74030  1.0000
  S   S391      1.0  0.52903  0.32808  0.60968  1.0000
  H   H3152     1.0  0.49728  0.45380  0.67317  1.0000
  H   H3153     1.0  0.58246  0.54648  0.68156  1.0000
  H   H3154     1.0  0.69072  0.59915  0.97509  1.0000
  H   H3155     1.0  0.71854  0.50799  0.61041  1.0000
  H   H3156     1.0  0.69740  0.38371  0.59045  1.0000
  H   H3157     1.0  0.71457  0.58304  0.96969  1.0000
  H   H3158     1.0  0.66157  0.54398  0.83123  1.0000
  C   C1777     1.0  0.70744  0.55330  0.81243  1.0000
  C   C1778     1.0  0.51829  0.41621  0.68047  1.0000
  H   H3159     1.0  0.68989  0.46443  0.74341  1.0000
  H   H3160     1.0  0.71653  0.43066  0.60434  1.0000
  H   H3161     1.0  0.63899  0.41128  0.63000  1.0000
  H   H3162     1.0  0.59629  0.61193  0.61486  1.0000
  H   H3163     1.0  0.59279  0.40163  0.53319  1.0000
  H   H3164     1.0  0.66191  0.62903  0.91027  1.0000
  C   C1779     1.0  0.49189  0.35249  0.85692  1.0000
  C   C1780     1.0  0.57066  0.64318  0.58037  1.0000
  Fe  Fe193     1.0  0.50549  0.63608  0.57263  1.0000
  H   H3165     1.0  0.60069  0.38221  0.58929  1.0000
  C   C1781     1.0  0.57013  0.62636  0.61863  1.0000
  H   H3166     1.0  0.64966  0.39416  0.49353  1.0000
  C   C1782     1.0  0.69110  0.55395  0.82498  1.0000
  C   C1783     1.0  0.70037  0.46765  0.68627  1.0000
  S   S392      1.0  0.72168  0.60025  0.85895  1.0000
  H   H3167     1.0  0.49954  0.47469  0.68427  1.0000
  H   H3168     1.0  0.55626  0.64361  0.58491  1.0000
  H   H3169     1.0  0.50360  0.42934  0.74805  1.0000
  N   N100      1.0  0.50032  0.44662  0.71931  1.0000
  H   H3170     1.0  0.65841  0.57007  0.93376  1.0000
  H   H3171     1.0  0.52344  0.38501  0.82588  1.0000
  C   C1784     1.0  0.58064  0.64409  0.79473  1.0000
  H   H3172     1.0  0.57753  0.63371  0.82931  1.0000
  H   H3173     1.0  0.57008  0.64367  0.65249  1.0000
  H   H3174     1.0  0.49787  0.38515  0.89153  1.0000
  H   H3175     1.0  0.68009  0.40268  0.67503  1.0000
  H   H3176     1.0  0.58619  0.62834  0.68088  1.0000
  H   H3177     1.0  0.62458  0.60078  0.62066  1.0000
  C   C1785     1.0  0.70692  0.46629  0.64729  1.0000
  H   H3178     1.0  0.68782  0.54601  0.91094  1.0000
  H   H3179     1.0  0.73177  0.45620  0.68759  1.0000
  H   H3180     1.0  0.56996  0.58608  0.63463  1.0000
  H   H3181     1.0  0.71451  0.46540  0.90472  1.0000
  H   H3182     1.0  0.59452  0.64364  0.59518  1.0000
  H   H3183     1.0  0.60754  0.64015  0.66261  1.0000
  H   H3184     1.0  0.59621  0.59216  0.64909  1.0000
  S   S393      1.0  0.51958  0.65546  0.54106  1.0000
  H   H3185     1.0  0.63399  0.61997  0.63375  1.0000
  C   C1786     1.0  0.58527  0.64443  0.81578  1.0000
  H   H3186     1.0  0.54309  0.35939  0.53305  1.0000
  C   C1787     1.0  0.60500  0.60651  0.64573  1.0000
  C   C1788     1.0  0.62434  0.60602  0.63643  1.0000
  H   H3187     1.0  0.51431  0.60020  0.64090  1.0000
  H   H3188     1.0  0.53762  0.57526  0.67323  1.0000
  N   N101      1.0  0.49505  0.35160  0.83276  1.0000
  H   H3189     1.0  0.55636  0.62796  0.62467  1.0000
  H   H3190     1.0  0.62904  0.59675  0.64829  1.0000
  H   H3191     1.0  0.55511  0.61187  0.66183  1.0000
  H   H3192     1.0  0.61232  0.42149  0.52870  1.0000
  C   C1789     1.0  0.55020  0.57325  0.66400  1.0000
  C   C1790     1.0  0.52654  0.37542  0.81511  1.0000
  C   C1791     1.0  0.70091  0.46095  0.71078  1.0000
  C   C1792     1.0  0.56698  0.60745  0.65444  1.0000
  H   H3193     1.0  0.52395  0.32674  0.52656  1.0000
  H   H3194     1.0  0.54414  0.49090  0.72446  1.0000
  C   C1793     1.0  0.72648  0.38706  0.58076  1.0000
  C   C1794     1.0  0.48860  0.54594  0.74453  1.0000
  H   H3195     1.0  0.69589  0.44579  0.71541  1.0000
  H   H3196     1.0  0.55471  0.39210  0.80669  1.0000
  C   C1795     1.0  0.70078  0.42705  0.65655  1.0000
  H   H3197     1.0  0.69120  0.43063  0.64602  1.0000
  C   C1796     1.0  0.67621  0.48340  0.83477  1.0000
  H   H3198     1.0  0.67063  0.61707  0.83890  1.0000
  N   N102      1.0  0.70988  0.45872  0.66977  1.0000
  H   H3199     1.0  0.61201  0.62580  0.71737  1.0000
  H   H3200     1.0  0.55702  0.56144  0.79590  1.0000
  C   C1797     1.0  0.49968  0.53386  0.74514  1.0000
  C   C1798     1.0  0.69569  0.49207  0.83803  1.0000
  C   C1799     1.0  0.67232  0.57967  0.92839  1.0000
  H   H3201     1.0  0.55475  0.56007  0.82523  1.0000
  C   C1800     1.0  0.56715  0.36735  0.50822  1.0000
  C   C1801     1.0  0.51094  0.46487  0.72378  1.0000
  C   C1802     1.0  0.68207  0.44544  0.49256  1.0000
  H   H3202     1.0  0.69239  0.47526  0.88303  1.0000
  H   H3203     1.0  0.65375  0.64125  0.80784  1.0000
  H   H3204     1.0  0.69341  0.51888  0.84261  1.0000
  H   H3205     1.0  0.58073  0.64591  0.89162  1.0000
  H   H3206     1.0  0.51948  0.38249  0.52415  1.0000
  H   H3207     1.0  0.72649  0.53556  0.87720  1.0000
  H   H3208     1.0  0.67639  0.47336  0.82347  1.0000
  H   H3209     1.0  0.70536  0.64613  0.92766  1.0000
  H   H3210     1.0  0.63146  0.64465  0.80673  1.0000
  H   H3211     1.0  0.57257  0.37614  0.49179  1.0000
  H   H3212     1.0  0.49196  0.34421  0.53393  1.0000
  H   H3213     1.0  0.71258  0.45950  0.63442  1.0000
  H   H3214     1.0  0.58002  0.37371  0.56331  1.0000
  C   C1803     1.0  0.54710  0.37742  0.81242  1.0000
  H   H3215     1.0  0.50110  0.50612  0.74375  1.0000
  H   H3216     1.0  0.67327  0.63648  0.93160  1.0000
  H   H3217     1.0  0.71301  0.54157  0.85786  1.0000
  C   C1804     1.0  0.49029  0.46091  0.68453  1.0000
  C   C1805     1.0  0.53629  0.48331  0.74075  1.0000
  H   H3218     1.0  0.72545  0.62622  0.91359  1.0000
  C   C1806     1.0  0.71361  0.53039  0.87093  1.0000
  H   H3219     1.0  0.57966  0.65855  0.68332  1.0000
  H   H3220     1.0  0.67439  0.46436  0.72415  1.0000
  H   H3221     1.0  0.70137  0.48104  0.84521  1.0000
  H   H3222     1.0  0.52211  0.34927  0.83668  1.0000
  C   C1807     1.0  0.68049  0.60655  0.98016  1.0000
  H   H3223     1.0  0.60311  0.65866  0.83580  1.0000
  C   C1808     1.0  0.69617  0.50701  0.85269  1.0000
  S   S394      1.0  0.51739  0.62068  0.59800  1.0000
  N   N103      1.0  0.51459  0.35878  0.50780  1.0000
  H   H3224     1.0  0.60396  0.36936  0.49543  1.0000
  C   C1809     1.0  0.58329  0.64030  0.64769  1.0000
  C   C1810     1.0  0.49927  0.37154  0.86323  1.0000
  C   C1811     1.0  0.69815  0.52872  0.89040  1.0000
  C   C1812     1.0  0.63894  0.63410  0.80999  1.0000
  C   C1813     1.0  0.69406  0.40637  0.66505  1.0000
  C   C1814     1.0  0.52549  0.64654  0.62493  1.0000
  H   H3225     1.0  0.63286  0.63850  0.72503  1.0000
  C   C1815     1.0  0.69861  0.54756  0.89650  1.0000
  H   H3226     1.0  0.72869  0.46519  0.48950  1.0000
  C   C1816     1.0  0.59592  0.32909  0.67714  1.0000
  H   H3227     1.0  0.48916  0.34580  0.49767  1.0000
  H   H3228     1.0  0.67940  0.61622  0.96575  1.0000
  H   H3229     1.0  0.70642  0.48279  0.68320  1.0000
  H   H3230     1.0  0.59652  0.33647  0.49006  1.0000
  C   C1817     1.0  0.73535  0.45467  0.49579  1.0000
  H   H3231     1.0  0.49904  0.40807  0.50028  1.0000
  C   C1818     1.0  0.59970  0.65862  0.81957  1.0000
  H   H3232     1.0  0.59207  0.65226  0.63550  1.0000
  C   C1819     1.0  0.49271  0.39923  0.51650  1.0000
  C   C1820     1.0  0.49280  0.37930  0.51583  1.0000
  H   H3233     1.0  0.49538  0.38255  0.85308  1.0000
  H   H3234     1.0  0.71207  0.55393  0.90085  1.0000
  C   C1821     1.0  0.72871  0.59088  0.96445  1.0000
  C   C1822     1.0  0.51270  0.37765  0.51053  1.0000
  H   H3235     1.0  0.60103  0.65753  0.69167  1.0000
  H   H3236     1.0  0.71509  0.46536  0.71406  1.0000
  S   S395      1.0  0.48728  0.65351  0.58222  1.0000
  H   H3237     1.0  0.72042  0.45190  0.52854  1.0000
  H   H3238     1.0  0.69263  0.46303  0.92137  1.0000
  H   H3239     1.0  0.72609  0.50511  0.88892  1.0000
  C   C1823     1.0  0.53035  0.65180  0.64459  1.0000
  H   H3240     1.0  0.72274  0.48681  0.60456  1.0000
  H   H3241     1.0  0.52677  0.65689  0.61069  1.0000
  C   C1824     1.0  0.72935  0.51838  0.84198  1.0000
  H   H3242     1.0  0.72464  0.48997  0.86983  1.0000
  H   H3243     1.0  0.73096  0.50592  0.83539  1.0000
  C   C1825     1.0  0.73486  0.45479  0.52027  1.0000
  C   C1826     1.0  0.73637  0.59485  0.94196  1.0000
  C   C1827     1.0  0.52854  0.32731  0.63821  1.0000
  S   S396      1.0  0.55495  0.32678  0.55281  1.0000
  H   H3244     1.0  0.51296  0.32753  0.48647  1.0000
  H   H3245     1.0  0.69062  0.65839  0.97665  1.0000
  H   H3246     1.0  0.73533  0.47810  0.67176  1.0000
  C   C1828     1.0  0.50945  0.32651  0.53142  1.0000
  C   C1829     1.0  0.52690  0.32659  0.68388  1.0000
  C   C1830     1.0  0.49016  0.67767  0.44025  1.0000
  C   C1831     1.0  0.52713  0.92192  0.35839  1.0000
  S   S397      1.0  0.52042  0.78674  0.38267  1.0000
  H   H3247     1.0  0.49631  0.83445  0.29673  1.0000
  Fe  Fe194     1.0  0.50859  0.79275  0.41504  1.0000
  S   S398      1.0  0.52561  0.80342  0.43966  1.0000
  H   H3248     1.0  0.50210  0.95861  0.14661  1.0000
  H   H3249     1.0  0.66718  0.66726  0.00132  1.0000
  H   H3250     1.0  0.54412  0.71017  0.46996  1.0000
  C   C1832     1.0  0.52887  0.84885  0.36989  1.0000
  C   C1833     1.0  0.70426  0.79521  0.09874  1.0000
  Fe  Fe195     1.0  0.55388  0.87980  0.23631  1.0000
  S   S399      1.0  0.53317  0.86890  0.21583  1.0000
  S   S400      1.0  0.56101  0.86164  0.26379  1.0000
  Fe  Fe196     1.0  0.56618  0.91835  0.20722  1.0000
  S   S401      1.0  0.54608  0.91005  0.18494  1.0000
  S   S402      1.0  0.58828  0.94499  0.19522  1.0000
  Fe  Fe197     1.0  0.52632  0.89593  0.21603  1.0000
  H   H3251     1.0  0.54705  0.97524  0.16706  1.0000
  Fe  Fe198     1.0  0.55518  0.88417  0.18685  1.0000
  S   S403      1.0  0.56371  0.87203  0.15718  1.0000
  S   S404      1.0  0.54596  0.90607  0.23842  1.0000
  S   S405      1.0  0.57615  0.89324  0.20745  1.0000
  Fe  Fe199     1.0  0.66166  0.89112  0.08498  1.0000
  S   S406      1.0  0.69182  0.89320  0.07622  1.0000
  S   S407      1.0  0.64901  0.89092  0.12015  1.0000
  Fe  Fe200     1.0  0.65759  0.89715  0.03678  1.0000
  S   S408      1.0  0.68704  0.89983  0.02487  1.0000
  H   H3252     1.0  0.63352  0.95847  0.08923  1.0000
  Fe  Fe201     1.0  0.68279  0.87502  0.05148  1.0000
  S   S409      1.0  0.69276  0.85089  0.04089  1.0000
  Fe  Fe202     1.0  0.69314  0.91774  0.05056  1.0000
  S   S410      1.0  0.65270  0.87168  0.06199  1.0000
  S   S411      1.0  0.66351  0.91620  0.06075  1.0000
  Fe  Fe203     1.0  0.64644  0.71740  0.02739  1.0000
  S   S412      1.0  0.67343  0.73581  0.03045  1.0000
  Fe  Fe204     1.0  0.64053  0.69594  0.07418  1.0000
  S   S413      1.0  0.66727  0.71355  0.08014  1.0000
  S   S414      1.0  0.62626  0.67387  0.10451  1.0000
  Fe  Fe205     1.0  0.65953  0.73798  0.06345  1.0000
  S   S415      1.0  0.66093  0.76445  0.07765  1.0000
  Fe  Fe206     1.0  0.67898  0.70997  0.04658  1.0000
  S   S416      1.0  0.70717  0.70634  0.03471  1.0000
  S   S417      1.0  0.63198  0.72070  0.05996  1.0000
  S   S418      1.0  0.65289  0.69124  0.04106  1.0000
  H   H3253     1.0  0.59896  0.91585  0.27412  1.0000
  H   H3254     1.0  0.50740  0.89994  0.31278  1.0000
  H   H3255     1.0  0.64644  0.94621  0.10454  1.0000
  H   H3256     1.0  0.55741  0.78288  0.41749  1.0000
  H   H3257     1.0  0.52301  0.83696  0.36215  1.0000
  S   S419      1.0  0.63733  0.90235  0.01539  1.0000
  H   H3258     1.0  0.56783  0.76724  0.43194  1.0000
  H   H3259     1.0  0.59389  0.92295  0.99879  1.0000
  C   C1834     1.0  0.71724  0.69017  0.04772  1.0000
  C   C1835     1.0  0.70890  0.67883  0.06789  1.0000
  H   H3260     1.0  0.50594  0.75431  0.46563  1.0000
  H   H3261     1.0  0.67558  0.95306  0.02705  1.0000
  C   C1836     1.0  0.60223  0.83885  0.00601  1.0000
  C   C1837     1.0  0.68288  0.82683  0.05048  1.0000
  C   C1838     1.0  0.68954  0.81413  0.03960  1.0000
  C   C1839     1.0  0.68241  0.79498  0.04699  1.0000
  C   C1840     1.0  0.66882  0.78827  0.06577  1.0000
  C   C1841     1.0  0.66215  0.80097  0.07656  1.0000
  C   C1842     1.0  0.66895  0.82008  0.06885  1.0000
  H   H3262     1.0  0.70046  0.81915  0.02554  1.0000
  H   H3263     1.0  0.68779  0.78543  0.03860  1.0000
  H   H3264     1.0  0.65176  0.79598  0.09119  1.0000
  H   H3265     1.0  0.66373  0.82960  0.07750  1.0000
  S   S420      1.0  0.71013  0.94809  0.03996  1.0000
  C   C1843     1.0  0.53829  0.76147  0.44203  1.0000
  C   C1844     1.0  0.73523  0.96118  0.06686  1.0000
  C   C1845     1.0  0.58745  0.87714  0.14708  1.0000
  C   C1846     1.0  0.59395  0.86702  0.13214  1.0000
  C   C1847     1.0  0.61277  0.87125  0.12345  1.0000
  C   C1848     1.0  0.62520  0.88563  0.12967  1.0000
  C   C1849     1.0  0.61870  0.89562  0.14469  1.0000
  C   C1850     1.0  0.59991  0.89156  0.15315  1.0000
  H   H3266     1.0  0.58441  0.85582  0.12736  1.0000
  H   H3267     1.0  0.61773  0.86319  0.11227  1.0000
  H   H3268     1.0  0.62823  0.90675  0.14960  1.0000
  H   H3269     1.0  0.59511  0.89988  0.16401  1.0000
  N   N104      1.0  0.64634  0.82256  0.99060  1.0000
  C   C1851     1.0  0.58430  0.97811  0.24049  1.0000
  C   C1852     1.0  0.58092  0.96283  0.22975  1.0000
  C   C1853     1.0  0.59259  0.96292  0.21043  1.0000
  C   C1854     1.0  0.60779  0.97806  0.20222  1.0000
  C   C1855     1.0  0.53464  0.74085  0.45193  1.0000
  H   H3270     1.0  0.57511  0.97819  0.25522  1.0000
  H   H3271     1.0  0.56919  0.95117  0.23619  1.0000
  H   H3272     1.0  0.61698  0.97808  0.18744  1.0000
  H   H3273     1.0  0.63488  0.75901  0.01939  1.0000
  C   C1856     1.0  0.65128  0.80695  0.00393  1.0000
  H   H3274     1.0  0.54278  0.67041  0.29509  1.0000
  H   H3275     1.0  0.50302  0.87519  0.31509  1.0000
  H   H3276     1.0  0.59206  0.89120  0.28212  1.0000
  H   H3277     1.0  0.70307  0.66559  0.02069  1.0000
  H   H3278     1.0  0.61715  0.81015  0.00102  1.0000
  H   H3279     1.0  0.62475  0.78691  0.01818  1.0000
  H   H3280     1.0  0.56022  0.96547  0.18446  1.0000
  H   H3281     1.0  0.53957  0.77021  0.45487  1.0000
  C   C1857     1.0  0.64525  0.77250  0.01700  1.0000
  C   C1858     1.0  0.51246  0.80140  0.46579  1.0000
  H   H3282     1.0  0.73032  0.72322  0.08779  1.0000
  H   H3283     1.0  0.71034  0.77092  0.11323  1.0000
  C   C1859     1.0  0.69316  0.96826  0.10337  1.0000
  C   C1860     1.0  0.68593  0.97896  0.12057  1.0000
  H   H3284     1.0  0.52317  0.68023  0.46848  1.0000
  H   H3285     1.0  0.51754  0.85331  0.37858  1.0000
  S   S421      1.0  0.48734  0.80436  0.40154  1.0000
  C   C1861     1.0  0.51046  0.88869  0.30479  1.0000
  H   H3286     1.0  0.57125  0.91828  0.29773  1.0000
  C   C1862     1.0  0.51400  0.82474  0.31670  1.0000
  C   C1863     1.0  0.53215  0.82518  0.31826  1.0000
  C   C1864     1.0  0.54650  0.83610  0.30158  1.0000
  C   C1865     1.0  0.54277  0.84655  0.28329  1.0000
  C   C1866     1.0  0.52460  0.84560  0.28145  1.0000
  C   C1867     1.0  0.51030  0.83480  0.29811  1.0000
  H   H3287     1.0  0.53515  0.81748  0.33252  1.0000
  H   H3288     1.0  0.56054  0.83675  0.30310  1.0000
  H   H3289     1.0  0.52156  0.85349  0.26737  1.0000
  S   S422      1.0  0.50645  0.73194  0.39603  1.0000
  C   C1868     1.0  0.55563  0.76825  0.42459  1.0000
  H   H3290     1.0  0.65534  0.94153  0.01756  1.0000
  H   H3291     1.0  0.69907  0.76794  0.07576  1.0000
  Fe  Fe207     1.0  0.49980  0.75916  0.39345  1.0000
  C   C1869     1.0  0.68044  0.94922  0.99313  1.0000
  C   C1870     1.0  0.59134  0.90432  0.28759  1.0000
  C   C1871     1.0  0.63751  0.78765  0.00686  1.0000
  H   H3292     1.0  0.69655  0.73849  0.09505  1.0000
  H   H3293     1.0  0.68465  0.68653  0.00586  1.0000
  H   H3294     1.0  0.55452  0.76008  0.41114  1.0000
  H   H3295     1.0  0.62770  0.82376  0.01926  1.0000
  H   H3296     1.0  0.69299  0.94042  0.09928  1.0000
  H   H3297     1.0  0.51232  0.89893  0.34592  1.0000
  H   H3298     1.0  0.51205  0.95161  0.18892  1.0000
  H   H3299     1.0  0.66519  0.96609  0.00893  1.0000
  H   H3300     1.0  0.49779  0.68116  0.27380  1.0000
  H   H3301     1.0  0.71535  0.71336  0.12742  1.0000
  C   C1872     1.0  0.50652  0.93168  0.14548  1.0000
  H   H3302     1.0  0.59167  0.82555  0.00777  1.0000
  S   S423      1.0  0.49828  0.89980  0.22676  1.0000
  H   H3303     1.0  0.52587  0.93242  0.34493  1.0000
  N   N105      1.0  0.59826  0.91148  0.07429  1.0000
  C   C1873     1.0  0.58767  0.91524  0.05628  1.0000
  C   C1874     1.0  0.58543  0.90673  0.09604  1.0000
  C   C1875     1.0  0.61378  0.92841  0.07330  1.0000
  C   C1876     1.0  0.60627  0.89560  0.07145  1.0000
  C   C1877     1.0  0.59242  0.87715  0.07042  1.0000
  C   C1878     1.0  0.59763  0.91662  0.03250  1.0000
  C   C1879     1.0  0.62419  0.92859  0.09301  1.0000
  C   C1880     1.0  0.57682  0.92207  0.10247  1.0000
  C   C1881     1.0  0.56518  0.91614  0.12543  1.0000
  C   C1882     1.0  0.60228  0.86311  0.06368  1.0000
  C   C1883     1.0  0.50108  0.70020  0.37927  1.0000
  C   C1884     1.0  0.63934  0.94649  0.09019  1.0000
  H   H3304     1.0  0.58399  0.92840  0.05695  1.0000
  H   H3305     1.0  0.57432  0.90460  0.05877  1.0000
  H   H3306     1.0  0.57376  0.89461  0.09623  1.0000
  H   H3307     1.0  0.59238  0.90230  0.10945  1.0000
  H   H3308     1.0  0.60889  0.94101  0.07152  1.0000
  H   H3309     1.0  0.62427  0.93035  0.05833  1.0000
  H   H3310     1.0  0.61712  0.89930  0.05665  1.0000
  H   H3311     1.0  0.61353  0.89266  0.08515  1.0000
  H   H3312     1.0  0.58331  0.87889  0.05842  1.0000
  H   H3313     1.0  0.58376  0.87115  0.08678  1.0000
  H   H3314     1.0  0.61118  0.92690  0.02905  1.0000
  H   H3315     1.0  0.59968  0.90315  0.02983  1.0000
  H   H3316     1.0  0.63066  0.91711  0.09448  1.0000
  H   H3317     1.0  0.61495  0.92741  0.10874  1.0000
  H   H3318     1.0  0.58742  0.93495  0.10248  1.0000
  H   H3319     1.0  0.56776  0.92508  0.09085  1.0000
  H   H3320     1.0  0.55816  0.92673  0.12912  1.0000
  H   H3321     1.0  0.55457  0.90296  0.12658  1.0000
  H   H3322     1.0  0.59208  0.85006  0.06313  1.0000
  H   H3323     1.0  0.61090  0.86829  0.04712  1.0000
  H   H3324     1.0  0.61104  0.86017  0.07571  1.0000
  H   H3325     1.0  0.53738  0.90504  0.28982  1.0000
  H   H3326     1.0  0.66705  0.98569  0.15573  1.0000
  H   H3327     1.0  0.51210  0.93552  0.12761  1.0000
  H   H3328     1.0  0.64956  0.94812  0.07511  1.0000
  H   H3329     1.0  0.60479  0.84154  0.02252  1.0000
  H   H3330     1.0  0.70814  0.80559  0.08337  1.0000
  H   H3331     1.0  0.69330  0.70600  0.11902  1.0000
  N   N106      1.0  0.72196  0.75620  0.07580  1.0000
  H   H3332     1.0  0.68883  0.97354  0.13683  1.0000
  H   H3333     1.0  0.49206  0.66972  0.42686  1.0000
  H   H3334     1.0  0.55529  0.75938  0.48027  1.0000
  H   H3335     1.0  0.64861  0.77486  0.03329  1.0000
  H   H3336     1.0  0.53017  0.73291  0.43893  1.0000
  H   H3337     1.0  0.69114  0.86743  0.99383  1.0000
  H   H3338     1.0  0.71401  0.74396  0.11047  1.0000
  H   H3339     1.0  0.58865  0.98505  0.16560  1.0000
  H   H3340     1.0  0.54885  0.94481  0.15930  1.0000
  C   C1885     1.0  0.50345  0.73908  0.46860  1.0000
  C   C1886     1.0  0.72737  0.75582  0.01261  1.0000
  C   C1887     1.0  0.71888  0.74981  0.05436  1.0000
  H   H3341     1.0  0.70817  0.97319  0.09803  1.0000
  H   H3342     1.0  0.65865  0.84307  0.00897  1.0000
  C   C1888     1.0  0.57143  0.90487  0.29281  1.0000
  H   H3343     1.0  0.48926  0.96619  0.22707  1.0000
  H   H3344     1.0  0.72040  0.78365  0.06315  1.0000
  H   H3345     1.0  0.68515  0.83317  0.99837  1.0000
  S   S424      1.0  0.48967  0.76469  0.42644  1.0000
  H   H3346     1.0  0.52320  0.95631  0.15288  1.0000
  H   H3347     1.0  0.72452  0.98582  0.12102  1.0000
  H   H3348     1.0  0.68676  0.96994  0.08852  1.0000
  C   C1889     1.0  0.72561  0.98387  0.04408  1.0000
  C   C1890     1.0  0.68061  0.67723  0.99408  1.0000
  C   C1891     1.0  0.71542  0.78118  0.09788  1.0000
  C   C1892     1.0  0.56078  0.95689  0.15303  1.0000
  H   H3349     1.0  0.59690  0.84998  0.99830  1.0000
  H   H3350     1.0  0.52678  0.76353  0.43385  1.0000
  H   H3351     1.0  0.65294  0.80992  0.02070  1.0000
  H   H3352     1.0  0.71089  0.69478  0.11213  1.0000
  C   C1893     1.0  0.72418  0.96526  0.05183  1.0000
  H   H3353     1.0  0.70401  0.74381  0.05469  1.0000
  H   H3354     1.0  0.50346  0.95062  0.22358  1.0000
  C   C1894     1.0  0.48918  0.69573  0.34575  1.0000
  H   H3355     1.0  0.58437  0.93594  0.01700  1.0000
  C   C1895     1.0  0.58645  0.92222  0.01559  1.0000
  C   C1896     1.0  0.71382  0.77222  0.07716  1.0000
  H   H3356     1.0  0.54795  0.73830  0.45420  1.0000
  C   C1897     1.0  0.66014  0.84020  0.99183  1.0000
  H   H3357     1.0  0.73446  0.94698  0.07291  1.0000
  H   H3358     1.0  0.59802  0.90573  0.30222  1.0000
  C   C1898     1.0  0.50428  0.98336  0.18228  1.0000
  C   C1899     1.0  0.68851  0.94768  0.11239  1.0000
  H   H3359     1.0  0.57348  0.95241  0.15358  1.0000
  H   H3360     1.0  0.56587  0.90407  0.27734  1.0000
  H   H3361     1.0  0.67354  0.94181  0.11805  1.0000
  H   H3362     1.0  0.67074  0.97441  0.12212  1.0000
  C   C1900     1.0  0.51610  0.71336  0.47803  1.0000
  H   H3363     1.0  0.49945  0.73442  0.45332  1.0000
  H   H3364     1.0  0.49555  0.67453  0.36726  1.0000
  C   C1901     1.0  0.56015  0.97158  0.16725  1.0000
  H   H3365     1.0  0.49437  0.89033  0.18329  1.0000
  H   H3366     1.0  0.52486  0.67028  0.26341  1.0000
  C   C1902     1.0  0.49346  0.79805  0.46829  1.0000
  H   H3367     1.0  0.71360  0.74752  0.01113  1.0000
  H   H3368     1.0  0.65766  0.77180  0.00610  1.0000
  N   N107      1.0  0.52071  0.73409  0.47287  1.0000
  N   N108      1.0  0.54082  0.88908  0.31974  1.0000
  C   C1903     1.0  0.53123  0.87087  0.33444  1.0000
  C   C1904     1.0  0.53139  0.89118  0.30013  1.0000
  C   C1905     1.0  0.56011  0.88863  0.31113  1.0000
  C   C1906     1.0  0.54185  0.90526  0.33159  1.0000
  C   C1907     1.0  0.52588  0.90356  0.35063  1.0000
  C   C1908     1.0  0.54149  0.86464  0.35258  1.0000
  H   H3369     1.0  0.50526  0.87854  0.27449  1.0000
  H   H3370     1.0  0.51015  0.97961  0.19691  1.0000
  C   C1909     1.0  0.50843  0.94905  0.15572  1.0000
  C   C1910     1.0  0.71158  0.74061  0.09422  1.0000
  H   H3371     1.0  0.50992  0.66964  0.30156  1.0000
  C   C1911     1.0  0.49423  0.72553  0.35742  1.0000
  H   H3372     1.0  0.52883  0.85986  0.32438  1.0000
  H   H3373     1.0  0.49914  0.92981  0.18707  1.0000
  H   H3374     1.0  0.53675  0.84427  0.38221  1.0000
  H   H3375     1.0  0.53388  0.88123  0.28934  1.0000
  H   H3376     1.0  0.55991  0.87572  0.30459  1.0000
  H   H3377     1.0  0.56817  0.88835  0.32467  1.0000
  H   H3378     1.0  0.55448  0.90822  0.33901  1.0000
  H   H3379     1.0  0.54328  0.91801  0.31965  1.0000
  H   H3380     1.0  0.51733  0.87064  0.34244  1.0000
  C   C1912     1.0  0.70829  0.70821  0.11418  1.0000
  H   H3381     1.0  0.55294  0.85960  0.34518  1.0000
  H   H3382     1.0  0.54730  0.87615  0.36091  1.0000
  H   H3383     1.0  0.49375  0.73969  0.35473  1.0000
  H   H3384     1.0  0.59706  0.66177  0.07917  1.0000
  H   H3385     1.0  0.68942  0.78818  0.10115  1.0000
  H   H3386     1.0  0.68826  0.76671  0.99388  1.0000
  H   H3387     1.0  0.72990  0.78867  0.09746  1.0000
  H   H3388     1.0  0.49361  0.67061  0.45521  1.0000
  C   C1913     1.0  0.73459  0.66498  0.06737  1.0000
  C   C1914     1.0  0.50089  0.94468  0.18088  1.0000
  H   H3389     1.0  0.54037  0.92688  0.36400  1.0000
  H   H3390     1.0  0.70841  0.71555  0.07990  1.0000
  H   H3391     1.0  0.71713  0.98724  0.03252  1.0000
  H   H3392     1.0  0.57294  0.91192  0.01789  1.0000
  H   H3393     1.0  0.51585  0.92020  0.37237  1.0000
  C   C1915     1.0  0.62764  0.82302  0.00152  1.0000
  H   H3394     1.0  0.69573  0.94517  0.12630  1.0000
  Fe  Fe208     1.0  0.49726  0.79577  0.36997  1.0000
  C   C1916     1.0  0.48896  0.71422  0.34208  1.0000
  H   H3395     1.0  0.72539  0.73850  0.05212  1.0000
  H   H3396     1.0  0.57391  0.91441  0.13797  1.0000
  C   C1917     1.0  0.61995  0.83863  0.99160  1.0000
  N   N109      1.0  0.59929  0.84211  0.21836  1.0000
  C   C1918     1.0  0.60241  0.86270  0.21381  1.0000
  C   C1919     1.0  0.57941  0.83240  0.21864  1.0000
  C   C1920     1.0  0.60337  0.83714  0.24110  1.0000
  C   C1921     1.0  0.61188  0.83578  0.20224  1.0000
  C   C1922     1.0  0.61125  0.84121  0.17758  1.0000
  C   C1923     1.0  0.62238  0.87448  0.21227  1.0000
  C   C1924     1.0  0.59889  0.81627  0.25044  1.0000
  C   C1925     1.0  0.56925  0.84130  0.20225  1.0000
  C   C1926     1.0  0.55056  0.82844  0.20180  1.0000
  C   C1927     1.0  0.62728  0.83769  0.16299  1.0000
  C   C1928     1.0  0.62364  0.89500  0.20797  1.0000
  C   C1929     1.0  0.60246  0.81316  0.27398  1.0000
  H   H3397     1.0  0.59353  0.86681  0.22678  1.0000
  H   H3398     1.0  0.59822  0.86728  0.19815  1.0000
  H   H3399     1.0  0.57802  0.81798  0.21610  1.0000
  H   H3400     1.0  0.57103  0.83141  0.23510  1.0000
  H   H3401     1.0  0.59570  0.84340  0.25308  1.0000
  H   H3402     1.0  0.61811  0.84288  0.24155  1.0000
  H   H3403     1.0  0.62630  0.84072  0.20469  1.0000
  H   H3404     1.0  0.60880  0.82054  0.20542  1.0000
  H   H3405     1.0  0.61196  0.85593  0.17296  1.0000
  H   H3406     1.0  0.59850  0.83271  0.17357  1.0000
  H   H3407     1.0  0.62759  0.87173  0.22774  1.0000
  H   H3408     1.0  0.63161  0.87176  0.19857  1.0000
  H   H3409     1.0  0.60757  0.80961  0.24045  1.0000
  H   H3410     1.0  0.58431  0.80913  0.25083  1.0000
  H   H3411     1.0  0.56681  0.85394  0.20745  1.0000
  H   H3412     1.0  0.57708  0.84508  0.18534  1.0000
  H   H3413     1.0  0.54348  0.83542  0.19033  1.0000
  H   H3414     1.0  0.55214  0.81570  0.19598  1.0000
  H   H3415     1.0  0.54191  0.82484  0.21840  1.0000
  H   H3416     1.0  0.62733  0.82304  0.16667  1.0000
  H   H3417     1.0  0.62608  0.84099  0.14545  1.0000
  H   H3418     1.0  0.64048  0.84661  0.16538  1.0000
  H   H3419     1.0  0.61513  0.89866  0.22163  1.0000
  H   H3420     1.0  0.63806  0.90312  0.20665  1.0000
  H   H3421     1.0  0.61898  0.89882  0.19234  1.0000
  H   H3422     1.0  0.61704  0.81957  0.27461  1.0000
  H   H3423     1.0  0.59359  0.81905  0.28489  1.0000
  H   H3424     1.0  0.59930  0.79818  0.28027  1.0000
  H   H3425     1.0  0.51407  0.98318  0.16755  1.0000
  H   H3426     1.0  0.66275  0.89055  0.98444  1.0000
  C   C1930     1.0  0.68049  0.84070  0.98477  1.0000
  H   H3427     1.0  0.52642  0.89346  0.36494  1.0000
  H   H3428     1.0  0.49969  0.69168  0.43541  1.0000
  S   S425      1.0  0.63812  0.72746  0.99546  1.0000
  H   H3429     1.0  0.70674  0.80247  0.11277  1.0000
  H   H3430     1.0  0.51432  0.92279  0.15313  1.0000
  C   C1931     1.0  0.66833  0.95268  0.01281  1.0000
  S   S426      1.0  0.49555  0.81302  0.33807  1.0000
  H   H3431     1.0  0.73358  0.66770  0.00535  1.0000
  H   H3432     1.0  0.52454  0.66658  0.19763  1.0000
  C   C1932     1.0  0.50028  0.71849  0.37607  1.0000
  H   H3433     1.0  0.63692  0.68917  0.99231  1.0000
  H   H3434     1.0  0.62959  0.85231  0.99023  1.0000
  H   H3435     1.0  0.66477  0.80560  0.99632  1.0000
  H   H3436     1.0  0.56021  0.96217  0.13573  1.0000
  H   H3437     1.0  0.69585  0.67977  0.07606  1.0000
  H   H3438     1.0  0.68348  0.93596  0.99825  1.0000
  C   C1933     1.0  0.72632  0.76458  0.03322  1.0000
  H   H3439     1.0  0.50603  0.69478  0.39345  1.0000
  C   C1934     1.0  0.71547  0.72176  0.09256  1.0000
  C   C1935     1.0  0.49524  0.68874  0.36438  1.0000
  H   H3440     1.0  0.50922  0.90313  0.27257  1.0000
  H   H3441     1.0  0.51033  0.70744  0.46431  1.0000
  H   H3442     1.0  0.71706  0.77363  0.03156  1.0000
  C   C1936     1.0  0.73419  0.68877  0.03739  1.0000
  C   C1937     1.0  0.50279  0.88959  0.28341  1.0000
  C   C1938     1.0  0.63548  0.89380  0.99076  1.0000
  H   H3443     1.0  0.73270  0.76670  0.99782  1.0000
  C   C1939     1.0  0.57681  0.98867  0.15931  1.0000
  H   H3444     1.0  0.63397  0.78446  0.99090  1.0000
  H   H3445     1.0  0.60767  0.89537  0.99245  1.0000
  C   C1940     1.0  0.71770  0.66652  0.07782  1.0000
  H   H3446     1.0  0.73671  0.74677  0.01319  1.0000
  H   H3447     1.0  0.69292  0.79131  0.98716  1.0000
  H   H3448     1.0  0.49197  0.92369  0.14771  1.0000
  H   H3449     1.0  0.49113  0.94837  0.26234  1.0000
  H   H3450     1.0  0.69328  0.96047  0.98969  1.0000
  H   H3451     1.0  0.51007  0.67361  0.23321  1.0000
  C   C1941     1.0  0.61898  0.89214  0.98298  1.0000
  H   H3452     1.0  0.58048  0.99038  0.14123  1.0000
  C   C1942     1.0  0.69522  0.66725  0.98862  1.0000
  H   H3453     1.0  0.55515  0.99192  0.19592  1.0000
  H   H3454     1.0  0.48779  0.88778  0.28704  1.0000
  C   C1943     1.0  0.48925  0.95156  0.22772  1.0000
  H   H3455     1.0  0.53572  0.80614  0.48230  1.0000
  C   C1944     1.0  0.48750  0.66842  0.27216  1.0000
  C   C1945     1.0  0.73273  0.67320  0.85585  1.0000
  H   H3456     1.0  0.55814  0.75715  0.56989  1.0000
  Fe  Fe209     1.0  0.50907  0.81715  0.59900  1.0000
  C   C1946     1.0  0.71104  0.98841  0.82507  1.0000
  S   S427      1.0  0.53153  0.84081  0.60467  1.0000
  H   H3457     1.0  0.52144  0.67655  0.89557  1.0000
  C   C1947     1.0  0.52690  0.74263  0.49201  1.0000
  C   C1948     1.0  0.57019  0.78763  0.66252  1.0000
  S   S428      1.0  0.51368  0.79743  0.57620  1.0000
  C   C1949     1.0  0.55112  0.75206  0.51535  1.0000
  H   H3458     1.0  0.67481  0.66042  0.88663  1.0000
  Fe  Fe210     1.0  0.64894  0.88392  0.89559  1.0000
  S   S429      1.0  0.62736  0.87373  0.92606  1.0000
  Fe  Fe211     1.0  0.65569  0.89844  0.84611  1.0000
  S   S430      1.0  0.68580  0.90059  0.84354  1.0000
  S   S431      1.0  0.64740  0.90875  0.81404  1.0000
  Fe  Fe212     1.0  0.67640  0.87246  0.86534  1.0000
  H   H3459     1.0  0.64089  0.95765  0.78698  1.0000
  S   S432      1.0  0.64661  0.86996  0.86617  1.0000
  S   S433      1.0  0.65485  0.91209  0.87566  1.0000
  Fe  Fe213     1.0  0.55280  0.87915  0.71266  1.0000
  S   S434      1.0  0.53580  0.87891  0.74508  1.0000
  S   S435      1.0  0.54569  0.85205  0.70031  1.0000
  Fe  Fe214     1.0  0.57269  0.91981  0.70837  1.0000
  S   S436      1.0  0.55696  0.92238  0.74014  1.0000
  S   S437      1.0  0.58982  0.94599  0.68618  1.0000
  Fe  Fe215     1.0  0.56214  0.89549  0.75309  1.0000
  S   S438      1.0  0.56832  0.88883  0.78750  1.0000
  Fe  Fe216     1.0  0.53240  0.90567  0.72917  1.0000
  S   S439      1.0  0.50702  0.91562  0.72770  1.0000
  S   S440      1.0  0.57954  0.89380  0.72174  1.0000
  S   S441      1.0  0.54780  0.90492  0.69638  1.0000
  H   H3460     1.0  0.51527  0.77000  0.64780  1.0000
  Fe  Fe217     1.0  0.67152  0.70937  0.85869  1.0000
  S   S442      1.0  0.64767  0.68459  0.86201  1.0000
  S   S443      1.0  0.69928  0.70642  0.86512  1.0000
  Fe  Fe218     1.0  0.64750  0.73670  0.85850  1.0000
  S   S444      1.0  0.62189  0.71336  0.86211  1.0000
  S   S445      1.0  0.64138  0.76457  0.86094  1.0000
  Fe  Fe219     1.0  0.63395  0.69798  0.88671  1.0000
  S   S446      1.0  0.62016  0.68139  0.92007  1.0000
  Fe  Fe220     1.0  0.63756  0.70183  0.83686  1.0000
  S   S447      1.0  0.62652  0.69224  0.80659  1.0000
  S   S448      1.0  0.65819  0.72171  0.88499  1.0000
  S   S449      1.0  0.66271  0.72624  0.83156  1.0000
  C   C1950     1.0  0.71818  0.95890  0.87508  1.0000
  C   C1951     1.0  0.64615  0.81900  0.96732  1.0000
  H   H3461     1.0  0.67055  0.84919  0.79897  1.0000
  H   H3462     1.0  0.67091  0.78690  0.92818  1.0000
  C   C1952     1.0  0.53891  0.79397  0.64407  1.0000
  C   C1953     1.0  0.52101  0.80354  0.48417  1.0000
  C   C1954     1.0  0.49165  0.79990  0.50718  1.0000
  H   H3463     1.0  0.56846  0.96366  0.72322  1.0000
  H   H3464     1.0  0.61272  0.68316  0.76779  1.0000
  H   H3465     1.0  0.54430  0.80305  0.65548  1.0000
  C   C1955     1.0  0.66949  0.94937  0.93415  1.0000
  C   C1956     1.0  0.68140  0.70437  0.93224  1.0000
  C   C1957     1.0  0.70953  0.69017  0.85470  1.0000
  C   C1958     1.0  0.70372  0.68166  0.83744  1.0000
  H   H3466     1.0  0.50146  0.85823  0.62964  1.0000
  H   H3467     1.0  0.51967  0.98710  0.76361  1.0000
  H   H3468     1.0  0.67399  0.77696  0.96235  1.0000
  H   H3469     1.0  0.65222  0.97204  0.76089  1.0000
  C   C1959     1.0  0.62788  0.72197  0.95626  1.0000
  C   C1960     1.0  0.62454  0.71219  0.93909  1.0000
  C   C1961     1.0  0.62508  0.69388  0.94130  1.0000
  C   C1962     1.0  0.62932  0.68550  0.96067  1.0000
  C   C1963     1.0  0.55325  0.68891  0.80834  1.0000
  H   H3470     1.0  0.62690  0.73596  0.95467  1.0000
  H   H3471     1.0  0.62112  0.71869  0.92432  1.0000
  H   H3472     1.0  0.49332  0.87816  0.75254  1.0000
  S   S450      1.0  0.49220  0.79535  0.62688  1.0000
  C   C1964     1.0  0.58225  0.84253  0.60801  1.0000
  C   C1965     1.0  0.63263  0.71385  0.97536  1.0000
  H   H3473     1.0  0.63336  0.87248  0.75710  1.0000
  C   C1966     1.0  0.63422  0.96703  0.71254  1.0000
  C   C1967     1.0  0.61944  0.95447  0.70703  1.0000
  C   C1968     1.0  0.60622  0.96082  0.69735  1.0000
  H   H3474     1.0  0.54851  0.92683  0.82618  1.0000
  H   H3475     1.0  0.53702  0.76311  0.57683  1.0000
  H   H3476     1.0  0.64490  0.96215  0.71902  1.0000
  H   H3477     1.0  0.61881  0.94000  0.70913  1.0000
  H   H3478     1.0  0.62960  0.79346  0.79882  1.0000
  C   C1969     1.0  0.67413  0.82489  0.85893  1.0000
  C   C1970     1.0  0.68314  0.81206  0.85209  1.0000
  C   C1971     1.0  0.67347  0.79354  0.85287  1.0000
  C   C1972     1.0  0.65455  0.78759  0.86031  1.0000
  C   C1973     1.0  0.64549  0.80048  0.86688  1.0000
  C   C1974     1.0  0.65519  0.81895  0.86635  1.0000
  H   H3479     1.0  0.69772  0.81654  0.84600  1.0000
  H   H3480     1.0  0.68062  0.78394  0.84738  1.0000
  H   H3481     1.0  0.63085  0.79612  0.87254  1.0000
  H   H3482     1.0  0.64801  0.82856  0.87169  1.0000
  C   C1975     1.0  0.62517  0.90358  0.80733  1.0000
  C   C1976     1.0  0.62305  0.90970  0.78580  1.0000
  C   C1977     1.0  0.60572  0.90545  0.77949  1.0000
  C   C1978     1.0  0.59034  0.89495  0.79471  1.0000
  C   C1979     1.0  0.59243  0.88897  0.81630  1.0000
  C   C1980     1.0  0.60976  0.89326  0.82262  1.0000
  H   H3483     1.0  0.63492  0.91764  0.77385  1.0000
  H   H3484     1.0  0.60429  0.91016  0.76284  1.0000
  H   H3485     1.0  0.58057  0.88091  0.82819  1.0000
  H   H3486     1.0  0.61119  0.88853  0.83927  1.0000
  H   H3487     1.0  0.71003  0.75968  0.88440  1.0000
  C   C1981     1.0  0.72418  0.68601  0.86371  1.0000
  C   C1982     1.0  0.58558  0.66063  0.88384  1.0000
  C   C1983     1.0  0.63139  0.88225  0.95029  1.0000
  C   C1984     1.0  0.61683  0.88604  0.96312  1.0000
  H   H3488     1.0  0.50420  0.76758  0.68723  1.0000
  H   H3489     1.0  0.68773  0.87922  0.77663  1.0000
  H   H3490     1.0  0.53050  0.95141  0.65175  1.0000
  H   H3491     1.0  0.60384  0.88443  0.95754  1.0000
  C   C1985     1.0  0.67043  0.94804  0.97321  1.0000
  C   C1986     1.0  0.49795  0.86979  0.69400  1.0000
  C   C1987     1.0  0.50289  0.71781  0.59967  1.0000
  C   C1988     1.0  0.51060  0.80266  0.50491  1.0000
  Fe  Fe221     1.0  0.49481  0.77602  0.60336  1.0000
  H   H3492     1.0  0.70751  0.96585  0.95643  1.0000
  H   H3493     1.0  0.70506  0.95092  0.82773  1.0000
  H   H3494     1.0  0.72347  0.98824  0.83231  1.0000
  H   H3495     1.0  0.69717  0.97434  0.80127  1.0000
  H   H3496     1.0  0.65711  0.67635  0.90890  1.0000
  C   C1989     1.0  0.65682  0.66193  0.91516  1.0000
  C   C1990     1.0  0.53382  0.84499  0.63150  1.0000
  C   C1991     1.0  0.54656  0.86090  0.63432  1.0000
  C   C1992     1.0  0.54965  0.86381  0.65548  1.0000
  C   C1993     1.0  0.54045  0.85047  0.67386  1.0000
  C   C1994     1.0  0.52751  0.83475  0.67102  1.0000
  C   C1995     1.0  0.52377  0.83235  0.65005  1.0000
  H   H3497     1.0  0.55434  0.87084  0.62008  1.0000
  H   H3498     1.0  0.55977  0.87591  0.65749  1.0000
  H   H3499     1.0  0.52034  0.82438  0.68516  1.0000
  H   H3500     1.0  0.51350  0.82042  0.64826  1.0000
  H   H3501     1.0  0.56913  0.68456  0.77878  1.0000
  C   C1996     1.0  0.61789  0.85572  0.78853  1.0000
  C   C1997     1.0  0.60644  0.83863  0.83471  1.0000
  C   C1998     1.0  0.62236  0.85947  0.76306  1.0000
  C   C1999     1.0  0.60362  0.83509  0.85979  1.0000
  C   C2000     1.0  0.60566  0.86166  0.75313  1.0000
  H   H3502     1.0  0.61558  0.86851  0.79361  1.0000
  H   H3503     1.0  0.60439  0.84525  0.79328  1.0000
  H   H3504     1.0  0.61934  0.82297  0.79262  1.0000
  H   H3505     1.0  0.59686  0.84662  0.82981  1.0000
  H   H3506     1.0  0.60264  0.82523  0.82908  1.0000
  H   H3507     1.0  0.62686  0.84809  0.75676  1.0000
  H   H3508     1.0  0.61266  0.82682  0.86569  1.0000
  H   H3509     1.0  0.60659  0.84830  0.86601  1.0000
  H   H3510     1.0  0.58918  0.82737  0.86660  1.0000
  H   H3511     1.0  0.60067  0.87295  0.75900  1.0000
  H   H3512     1.0  0.60940  0.86505  0.73494  1.0000
  H   H3513     1.0  0.59439  0.84873  0.75761  1.0000
  C   C2001     1.0  0.73375  0.95740  0.86172  1.0000
  H   H3514     1.0  0.55077  0.66471  0.79263  1.0000
  H   H3515     1.0  0.65923  0.93505  0.97789  1.0000
  H   H3516     1.0  0.53211  0.76589  0.66364  1.0000
  C   C2002     1.0  0.54765  0.74729  0.49299  1.0000
  H   H3517     1.0  0.68940  0.86825  0.96506  1.0000
  H   H3518     1.0  0.52351  0.87631  0.59506  1.0000
  C   C2003     1.0  0.49989  0.87137  0.62118  1.0000
  H   H3519     1.0  0.69867  0.90278  0.97409  1.0000
  H   H3520     1.0  0.70595  0.96504  0.92876  1.0000
  H   H3521     1.0  0.51326  0.67776  0.49710  1.0000
  H   H3522     1.0  0.58733  0.98265  0.82358  1.0000
  H   H3523     1.0  0.66394  0.74913  0.91333  1.0000
  H   H3524     1.0  0.54573  0.68389  0.77693  1.0000
  H   H3525     1.0  0.70543  0.73920  0.92523  1.0000
  H   H3526     1.0  0.53861  0.68459  0.81624  1.0000
  C   C2004     1.0  0.69312  0.98429  0.94260  1.0000
  H   H3527     1.0  0.67779  0.95316  0.91729  1.0000
  C   C2005     1.0  0.54853  0.75934  0.58361  1.0000
  H   H3528     1.0  0.50313  0.95659  0.69517  1.0000
  S   S451      1.0  0.50513  0.70201  0.54014  1.0000
  H   H3529     1.0  0.63114  0.92135  0.91896  1.0000
  C   C2006     1.0  0.63950  0.97972  0.64299  1.0000
  H   H3530     1.0  0.58778  0.78476  0.68650  1.0000
  C   C2007     1.0  0.52583  0.68396  0.48455  1.0000
  C   C2008     1.0  0.52857  0.93733  0.66085  1.0000
  S   S452      1.0  0.69836  0.94008  0.88482  1.0000
  H   H3531     1.0  0.70734  0.86027  0.97570  1.0000
  H   H3532     1.0  0.58661  0.66904  0.89707  1.0000
  C   C2009     1.0  0.56630  0.97563  0.73049  1.0000
  H   H3533     1.0  0.69054  0.92885  0.93359  1.0000
  H   H3534     1.0  0.49736  0.94653  0.77580  1.0000
  H   H3535     1.0  0.50528  0.70785  0.49285  1.0000
  H   H3536     1.0  0.66521  0.84394  0.94647  1.0000
  H   H3537     1.0  0.50354  0.92703  0.64937  1.0000
  C   C2010     1.0  0.71270  0.66933  0.82909  1.0000
  H   H3538     1.0  0.66060  0.92076  0.92875  1.0000
  H   H3539     1.0  0.54576  0.76387  0.51868  1.0000
  C   C2011     1.0  0.52513  0.77629  0.65793  1.0000
  C   C2012     1.0  0.56425  0.80901  0.61350  1.0000
  C   C2013     1.0  0.60736  0.97965  0.69425  1.0000
  N   N110      1.0  0.58968  0.96913  0.78212  1.0000
  C   C2014     1.0  0.60578  0.96132  0.78401  1.0000
  C   C2015     1.0  0.57335  0.95690  0.79824  1.0000
  C   C2016     1.0  0.58622  0.97000  0.75874  1.0000
  H   H3540     1.0  0.59689  0.98140  0.74757  1.0000
  C   C2017     1.0  0.65440  0.93136  0.93455  1.0000
  C   C2018     1.0  0.51306  0.90349  0.66285  1.0000
  H   H3541     1.0  0.68482  0.98552  0.95804  1.0000
  C   C2019     1.0  0.56746  0.93661  0.79500  1.0000
  C   C2020     1.0  0.54855  0.92658  0.80843  1.0000
  H   H3542     1.0  0.57534  0.80719  0.60129  1.0000
  C   C2021     1.0  0.64100  0.93466  0.91944  1.0000
  H   H3543     1.0  0.56605  0.75584  0.51553  1.0000
  H   H3544     1.0  0.60345  0.94800  0.77790  1.0000
  H   H3545     1.0  0.60712  0.95781  0.80151  1.0000
  H   H3546     1.0  0.57620  0.95611  0.81527  1.0000
  H   H3547     1.0  0.56146  0.96285  0.79838  1.0000
  H   H3548     1.0  0.58759  0.95740  0.75227  1.0000
  H   H3549     1.0  0.53540  0.70758  0.49901  1.0000
  C   C2022     1.0  0.57382  0.82477  0.62469  1.0000
  H   H3550     1.0  0.64230  0.78820  0.91480  1.0000
  H   H3551     1.0  0.61104  0.98597  0.81228  1.0000
  C   C2023     1.0  0.70961  0.91243  0.96135  1.0000
  H   H3552     1.0  0.53681  0.67796  0.48944  1.0000
  H   H3553     1.0  0.57286  0.80253  0.66263  1.0000
  C   C2024     1.0  0.55844  0.77469  0.59461  1.0000
  H   H3554     1.0  0.55615  0.96065  0.76311  1.0000
  H   H3555     1.0  0.56698  0.93553  0.77765  1.0000
  H   H3556     1.0  0.57735  0.92923  0.80044  1.0000
  H   H3557     1.0  0.58525  0.82122  0.63182  1.0000
  C   C2025     1.0  0.50004  0.74283  0.57328  1.0000
  N   N111      1.0  0.68174  0.94867  0.95117  1.0000
  N   N112      1.0  0.55416  0.79094  0.62829  1.0000
  H   H3558     1.0  0.67764  0.91943  0.96026  1.0000
  H   H3559     1.0  0.63481  0.95118  0.76155  1.0000
  H   H3560     1.0  0.65082  0.84282  0.91372  1.0000
  H   H3561     1.0  0.55361  0.73584  0.49019  1.0000
  H   H3562     1.0  0.71830  0.94085  0.94631  1.0000
  N   N113      1.0  0.56669  0.69273  0.84392  1.0000
  C   C2026     1.0  0.57463  0.71322  0.83656  1.0000
  C   C2027     1.0  0.54784  0.68924  0.85723  1.0000
  C   C2028     1.0  0.57927  0.68565  0.85736  1.0000
  H   H3563     1.0  0.62732  0.97210  0.63696  1.0000
  C   C2029     1.0  0.65003  0.88949  0.97836  1.0000
  C   C2030     1.0  0.59231  0.71936  0.81889  1.0000
  H   H3564     1.0  0.68251  0.83409  0.97020  1.0000
  C   C2031     1.0  0.54707  0.69650  0.87932  1.0000
  H   H3565     1.0  0.65557  0.66012  0.93331  1.0000
  H   H3566     1.0  0.70745  0.93649  0.97452  1.0000
  C   C2032     1.0  0.60065  0.74016  0.81525  1.0000
  C   C2033     1.0  0.69280  0.86040  0.97951  1.0000
  H   H3567     1.0  0.57800  0.71987  0.85086  1.0000
  H   H3568     1.0  0.56439  0.71965  0.83015  1.0000
  H   H3569     1.0  0.53923  0.69586  0.84764  1.0000
  S   S453      1.0  0.49953  0.74877  0.61558  1.0000
  H   H3570     1.0  0.58292  0.69441  0.86983  1.0000
  H   H3571     1.0  0.59250  0.68667  0.84673  1.0000
  C   C2034     1.0  0.63540  0.98586  0.70935  1.0000
  C   C2035     1.0  0.49117  0.85038  0.70740  1.0000
  H   H3572     1.0  0.55735  0.70400  0.80275  1.0000
  C   C2036     1.0  0.60519  0.67227  0.78125  1.0000
  H   H3573     1.0  0.60283  0.71283  0.82384  1.0000
  H   H3574     1.0  0.58941  0.71565  0.80289  1.0000
  H   H3575     1.0  0.50264  0.86170  0.59006  1.0000
  C   C2037     1.0  0.50083  0.96016  0.76501  1.0000
  H   H3576     1.0  0.55509  0.69049  0.89031  1.0000
  H   H3577     1.0  0.55253  0.71168  0.87641  1.0000
  H   H3578     1.0  0.69542  0.70339  0.93371  1.0000
  H   H3579     1.0  0.50581  0.69360  0.58678  1.0000
  H   H3580     1.0  0.69656  0.78972  0.94761  1.0000
  H   H3581     1.0  0.62370  0.97912  0.75432  1.0000
  H   H3582     1.0  0.57902  0.68440  0.81513  1.0000
  C   C2038     1.0  0.63338  0.69556  0.97757  1.0000
  H   H3583     1.0  0.60476  0.74446  0.83057  1.0000
  H   H3584     1.0  0.61311  0.74409  0.80234  1.0000
  H   H3585     1.0  0.59077  0.74754  0.80984  1.0000
  H   H3586     1.0  0.50746  0.95891  0.74857  1.0000
  C   C2039     1.0  0.56521  0.68292  0.82456  1.0000
  H   H3587     1.0  0.52326  0.78641  0.68902  1.0000
  H   H3588     1.0  0.50555  0.88611  0.58741  1.0000
  H   H3589     1.0  0.70042  0.78620  0.91396  1.0000
  H   H3590     1.0  0.48935  0.66599  0.62986  1.0000
  C   C2040     1.0  0.71497  0.78844  0.87297  1.0000
  C   C2041     1.0  0.60951  0.67289  0.80241  1.0000
  N   N114      1.0  0.63198  0.84965  0.80030  1.0000
  C   C2042     1.0  0.63288  0.83098  0.79539  1.0000
  H   H3591     1.0  0.64547  0.79208  0.81733  1.0000
  H   H3592     1.0  0.54061  0.67430  0.86053  1.0000
  C   C2043     1.0  0.51656  0.92325  0.64994  1.0000
  H   H3593     1.0  0.50361  0.71221  0.61631  1.0000
  H   H3594     1.0  0.59287  0.84064  0.59523  1.0000
  C   C2044     1.0  0.56743  0.97287  0.75491  1.0000
  H   H3595     1.0  0.52659  0.90051  0.66273  1.0000
  H   H3596     1.0  0.51210  0.87574  0.69674  1.0000
  H   H3597     1.0  0.53522  0.66622  0.64543  1.0000
  H   H3598     1.0  0.52373  0.88717  0.63167  1.0000
  H   H3599     1.0  0.52380  0.92462  0.63291  1.0000
  H   H3600     1.0  0.52708  0.96799  0.77560  1.0000
  H   H3601     1.0  0.55471  0.81413  0.60385  1.0000
  H   H3602     1.0  0.58871  0.85366  0.61653  1.0000
  H   H3603     1.0  0.63786  0.77036  0.93853  1.0000
  H   H3604     1.0  0.50083  0.73814  0.54003  1.0000
  Fe  Fe222     1.0  0.49923  0.67129  0.54931  1.0000
  C   C2045     1.0  0.69101  0.73928  0.92435  1.0000
  H   H3605     1.0  0.69464  0.87610  0.80309  1.0000
  H   H3606     1.0  0.65099  0.82505  0.81889  1.0000
  C   C2046     1.0  0.66502  0.77648  0.91858  1.0000
  H   H3607     1.0  0.51004  0.90044  0.62032  1.0000
  N   N115      1.0  0.68792  0.75748  0.92844  1.0000
  H   H3608     1.0  0.50921  0.97501  0.79113  1.0000
  H   H3609     1.0  0.64843  0.94078  0.90247  1.0000
  H   H3610     1.0  0.65938  0.88099  0.94804  1.0000
  H   H3611     1.0  0.66340  0.86038  0.82107  1.0000
  H   H3612     1.0  0.54436  0.74006  0.52863  1.0000
  C   C2047     1.0  0.66861  0.75755  0.92576  1.0000
  H   H3613     1.0  0.53803  0.93300  0.80289  1.0000
  H   H3614     1.0  0.65903  0.75070  0.94135  1.0000
  H   H3615     1.0  0.54491  0.91202  0.80610  1.0000
  C   C2048     1.0  0.54539  0.77801  0.61400  1.0000
  Fe  Fe223     1.0  0.68453  0.91284  0.87452  1.0000
  H   H3616     1.0  0.51727  0.80458  0.51896  1.0000
  S   S454      1.0  0.68718  0.84801  0.85801  1.0000
  C   C2049     1.0  0.70670  0.93166  0.95869  1.0000
  S   S455      1.0  0.67823  0.88490  0.89622  1.0000
  C   C2050     1.0  0.62643  0.84960  0.82445  1.0000
  H   H3617     1.0  0.62806  0.86397  0.82738  1.0000
  C   C2051     1.0  0.59339  0.98834  0.78731  1.0000
  C   C2052     1.0  0.49372  0.96542  0.69306  1.0000
  C   C2053     1.0  0.62163  0.99208  0.70079  1.0000
  C   C2054     1.0  0.64813  0.88413  0.95779  1.0000
  H   H3618     1.0  0.72300  0.91288  0.96654  1.0000
  H   H3619     1.0  0.53827  0.76422  0.62403  1.0000
  C   C2055     1.0  0.64451  0.77473  0.92101  1.0000
  H   H3620     1.0  0.58076  0.78611  0.62883  1.0000
  H   H3621     1.0  0.70958  0.90723  0.94555  1.0000
  H   H3622     1.0  0.52209  0.93661  0.67811  1.0000
  H   H3623     1.0  0.59921  0.78876  0.65839  1.0000
  H   H3624     1.0  0.49958  0.84155  0.70136  1.0000
  H   H3625     1.0  0.70456  0.75773  0.95379  1.0000
  H   H3626     1.0  0.65624  0.82150  0.92178  1.0000
  C   C2056     1.0  0.68834  0.93160  0.95073  1.0000
  H   H3627     1.0  0.70649  0.97723  0.89203  1.0000
  H   H3628     1.0  0.68004  0.89086  0.79797  1.0000
  H   H3629     1.0  0.63563  0.84427  0.83426  1.0000
  H   H3630     1.0  0.64237  0.83259  0.77963  1.0000
  C   C2057     1.0  0.59866  0.99059  0.81015  1.0000
  H   H3631     1.0  0.49915  0.97760  0.72111  1.0000
  H   H3632     1.0  0.63282  0.82294  0.92755  1.0000
  C   C2058     1.0  0.58627  0.78147  0.66993  1.0000
  H   H3633     1.0  0.69948  0.97999  0.83803  1.0000
  H   H3634     1.0  0.57158  0.84691  0.59997  1.0000
  C   C2059     1.0  0.68322  0.87796  0.79458  1.0000
  H   H3635     1.0  0.56237  0.76728  0.64254  1.0000
  C   C2060     1.0  0.70340  0.77064  0.88790  1.0000
  H   H3636     1.0  0.62950  0.98551  0.77954  1.0000
  H   H3637     1.0  0.55789  0.78066  0.67517  1.0000
  H   H3638     1.0  0.49004  0.73303  0.50358  1.0000
  H   H3639     1.0  0.66374  0.72136  0.93962  1.0000
  H   H3640     1.0  0.64853  0.87780  0.79318  1.0000
  C   C2061     1.0  0.70230  0.77246  0.91251  1.0000
  H   H3641     1.0  0.51878  0.69793  0.88167  1.0000
  C   C2062     1.0  0.69079  0.75932  0.95161  1.0000
  C   C2063     1.0  0.64741  0.83036  0.92666  1.0000
  H   H3642     1.0  0.63320  0.94398  0.92557  1.0000
  C   C2064     1.0  0.71094  0.97746  0.80597  1.0000
  C   C2065     1.0  0.65013  0.86384  0.79188  1.0000
  H   H3643     1.0  0.62743  0.81298  0.82767  1.0000
  H   H3644     1.0  0.63782  0.97455  0.66086  1.0000
  H   H3645     1.0  0.67113  0.78196  0.90106  1.0000
  H   H3646     1.0  0.68901  0.73720  0.90746  1.0000
  H   H3647     1.0  0.71613  0.77298  0.91657  1.0000
  C   C2066     1.0  0.71490  0.95903  0.81285  1.0000
  H   H3648     1.0  0.66478  0.98980  0.78990  1.0000
  H   H3649     1.0  0.69267  0.68499  0.83010  1.0000
  H   H3650     1.0  0.66326  0.95907  0.97216  1.0000
  H   H3651     1.0  0.58392  0.76640  0.67082  1.0000
  C   C2067     1.0  0.63851  0.81809  0.81309  1.0000
  C   C2068     1.0  0.64199  0.80132  0.80423  1.0000
  H   H3652     1.0  0.65366  0.80558  0.79026  1.0000
  H   H3653     1.0  0.50626  0.79028  0.67277  1.0000
  H   H3654     1.0  0.71516  0.78687  0.85551  1.0000
  H   H3655     1.0  0.68069  0.74812  0.96373  1.0000
  C   C2069     1.0  0.66650  0.86149  0.80301  1.0000
  H   H3656     1.0  0.65616  0.81118  0.96270  1.0000
  H   H3657     1.0  0.68960  0.76706  0.88335  1.0000
  H   H3658     1.0  0.65470  0.86414  0.77412  1.0000
  H   H3659     1.0  0.63797  0.76455  0.91131  1.0000
  C   C2070     1.0  0.65065  0.83604  0.94868  1.0000
  H   H3660     1.0  0.64633  0.92564  0.95123  1.0000
  C   C2071     1.0  0.50341  0.71460  0.56146  1.0000
  C   C2072     1.0  0.71850  0.97578  0.88199  1.0000
  H   H3661     1.0  0.57031  0.77084  0.60031  1.0000
  H   H3662     1.0  0.68079  0.72119  0.95687  1.0000
  C   C2073     1.0  0.50405  0.70725  0.58302  1.0000
  C   C2074     1.0  0.57217  0.66539  0.86945  1.0000
  C   C2075     1.0  0.51501  0.97341  0.77444  1.0000
  H   H3663     1.0  0.64231  0.84554  0.95217  1.0000
  H   H3664     1.0  0.53081  0.80152  0.63478  1.0000
  H   H3665     1.0  0.56419  0.82782  0.63764  1.0000
  H   H3666     1.0  0.63259  0.80991  0.96616  1.0000
  H   H3667     1.0  0.67129  0.69214  0.94260  1.0000
  C   C2076     1.0  0.56715  0.78259  0.63972  1.0000
  H   H3668     1.0  0.53452  0.78301  0.60699  1.0000
  C   C2077     1.0  0.51408  0.78047  0.67796  1.0000
  H   H3669     1.0  0.54309  0.74623  0.59554  1.0000
  H   H3670     1.0  0.56352  0.78720  0.58173  1.0000
  H   H3671     1.0  0.68593  0.66840  0.90855  1.0000
  H   H3672     1.0  0.66241  0.96034  0.93578  1.0000
  H   H3673     1.0  0.49846  0.75655  0.56941  1.0000
  C   C2078     1.0  0.62457  0.97366  0.77134  1.0000
  C   C2079     1.0  0.50142  0.73240  0.55663  1.0000
  H   H3674     1.0  0.72902  0.69282  0.87674  1.0000
  H   H3675     1.0  0.50814  0.90406  0.68023  1.0000
  H   H3676     1.0  0.62964  0.67129  0.96249  1.0000
  H   H3677     1.0  0.54226  0.93481  0.66078  1.0000
  C   C2080     1.0  0.69781  0.96556  0.94475  1.0000
  C   C2081     1.0  0.67826  0.72179  0.93973  1.0000
  C   C2082     1.0  0.68870  0.77723  0.95949  1.0000
  H   H3678     1.0  0.72927  0.79168  0.87605  1.0000
  C   C2083     1.0  0.50088  0.73560  0.59478  1.0000
  C   C2084     1.0  0.63897  0.96293  0.77022  1.0000
  H   H3679     1.0  0.73381  0.94449  0.85639  1.0000
  H   H3680     1.0  0.52719  0.69712  0.90729  1.0000
  H   H3681     1.0  0.67955  0.70427  0.91491  1.0000
  H   H3682     1.0  0.59730  0.98463  0.68650  1.0000
  C   C2085     1.0  0.52738  0.69170  0.89163  1.0000
  H   H3683     1.0  0.50129  0.97825  0.68143  1.0000
  N   N116      1.0  0.50032  0.88833  0.65469  1.0000
  C   C2086     1.0  0.55485  0.67994  0.78797  1.0000
  H   H3684     1.0  0.51947  0.73354  0.50768  1.0000
  H   H3685     1.0  0.72140  0.98504  0.79148  1.0000
  H   H3686     1.0  0.65187  0.97683  0.63438  1.0000
  H   H3687     1.0  0.60109  0.67014  0.66507  1.0000
  C   C2087     1.0  0.73418  0.99088  0.87587  1.0000
  C   C2088     1.0  0.50928  0.88768  0.63180  1.0000
  C   C2089     1.0  0.50845  0.87410  0.59696  1.0000
  C   C2090     1.0  0.72696  0.66471  0.83855  1.0000
  H   H3688     1.0  0.49238  0.85092  0.72486  1.0000
  H   H3689     1.0  0.50952  0.86407  0.66369  1.0000
  H   H3690     1.0  0.56500  0.98508  0.76131  1.0000
  H   H3691     1.0  0.48923  0.87793  0.70083  1.0000
  H   H3692     1.0  0.52306  0.75577  0.49255  1.0000
  H   H3693     1.0  0.55257  0.97715  0.72832  1.0000
  H   H3694     1.0  0.68548  0.98598  0.92891  1.0000
  H   H3695     1.0  0.55930  0.66787  0.83018  1.0000
  H   H3696     1.0  0.70854  0.66327  0.81525  1.0000
  C   C2091     1.0  0.49805  0.86994  0.66905  1.0000
  H   H3697     1.0  0.61662  0.83652  0.97522  1.0000
  H   H3698     1.0  0.71359  0.95092  0.79938  1.0000
  H   H3699     1.0  0.70916  0.80006  0.87582  1.0000
  H   H3700     1.0  0.57678  0.98824  0.72154  1.0000
  Fe  Fe224     1.0  0.48777  0.80063  0.56486  1.0000
  H   H3701     1.0  0.59945  0.66317  0.87395  1.0000
  H   H3702     1.0  0.55879  0.66275  0.88037  1.0000
  H   H3703     1.0  0.72906  0.96126  0.81629  1.0000
  H   H3704     1.0  0.67899  0.68568  0.97896  1.0000
  H   H3705     1.0  0.48775  0.98142  0.75468  1.0000
  H   H3706     1.0  0.70800  0.67793  0.98069  1.0000
  H   H3707     1.0  0.72929  0.66333  0.97906  1.0000
  C   C2092     1.0  0.53179  0.70483  0.48291  1.0000
  C   C2093     1.0  0.69552  0.77895  0.98122  1.0000
  H   H3708     1.0  0.71046  0.78038  0.97902  1.0000
  H   H3709     1.0  0.69082  0.99289  0.86489  1.0000
  H   H3710     1.0  0.65761  0.85215  0.98182  1.0000
  Fe  Fe225     1.0  0.78165  0.07587  0.02634  1.0000
  S   S456      1.0  0.79919  0.06397  0.04704  1.0000
  H   H3711     1.0  0.88275  0.23136  0.46773  1.0000
  Fe  Fe226     1.0  0.75213  0.07236  0.06622  1.0000
  S   S457      1.0  0.76803  0.06061  0.08914  1.0000
  H   H3712     1.0  0.87876  0.19883  0.03672  1.0000
  Fe  Fe227     1.0  0.79304  0.08287  0.07026  1.0000
  S   S458      1.0  0.81044  0.10480  0.08692  1.0000
  Fe  Fe228     1.0  0.77234  0.04314  0.06336  1.0000
  S   S459      1.0  0.76735  0.01175  0.07182  1.0000
  S   S460      1.0  0.77646  0.09533  0.04866  1.0000
  S   S461      1.0  0.75544  0.05419  0.04117  1.0000
  H   H3713     1.0  0.77595  0.17966  0.44617  1.0000
  S   S462      1.0  0.91486  0.30860  0.15552  1.0000
  H   H3714     1.0  0.75362  0.08151  0.12822  1.0000
  Fe  Fe229     1.0  0.90837  0.18720  0.07751  1.0000
  S   S463      1.0  0.89507  0.21011  0.08077  1.0000
  S   S464      1.0  0.89261  0.15840  0.07183  1.0000
  Fe  Fe230     1.0  0.94822  0.21537  0.07045  1.0000
  S   S465      1.0  0.93627  0.23919  0.07261  1.0000
  H   H3715     1.0  0.77429  0.05301  0.13841  1.0000
  Fe  Fe231     1.0  0.91637  0.22054  0.10128  1.0000
  S   S466      1.0  0.91289  0.22867  0.13520  1.0000
  Fe  Fe232     1.0  0.91664  0.22613  0.05180  1.0000
  S   S467      1.0  0.91120  0.24199  0.02099  1.0000
  S   S468      1.0  0.92879  0.19660  0.09980  1.0000
  S   S469      1.0  0.92953  0.20326  0.04825  1.0000
  Fe  Fe233     1.0  0.84009  0.26469  0.35241  1.0000
  S   S470      1.0  0.82434  0.28225  0.33653  1.0000
  S   S471      1.0  0.85852  0.25187  0.33224  1.0000
  Fe  Fe234     1.0  0.82490  0.26840  0.39889  1.0000
  S   S472      1.0  0.80830  0.28656  0.38647  1.0000
  S   S473      1.0  0.82115  0.25927  0.43564  1.0000
  Fe  Fe235     1.0  0.80092  0.26686  0.36355  1.0000
  S   S474      1.0  0.77101  0.25915  0.36075  1.0000
  Fe  Fe236     1.0  0.83318  0.30015  0.36089  1.0000
  S   S475      1.0  0.81584  0.24755  0.37763  1.0000
  S   S476      1.0  0.85067  0.28368  0.37512  1.0000
  C   C2094     1.0  0.82981  0.27636  0.45073  1.0000
  H   H3716     1.0  0.85515  0.19846  0.06836  1.0000
  H   H3717     1.0  0.88996  0.30082  0.26841  1.0000
  C   C2095     1.0  0.75046  0.32228  0.37128  1.0000
  H   H3718     1.0  0.81633  0.11613  0.03423  1.0000
  C   C2096     1.0  0.84151  0.29344  0.44031  1.0000
  N   N117      1.0  0.85825  0.17514  0.01059  1.0000
  H   H3719     1.0  0.77967  0.23234  0.45833  1.0000
  H   H3720     1.0  0.84456  0.29678  0.42256  1.0000
  C   C2097     1.0  0.76260  0.23771  0.35290  1.0000
  C   C2098     1.0  0.77435  0.22717  0.34667  1.0000
  C   C2099     1.0  0.76728  0.21008  0.34055  1.0000
  C   C2100     1.0  0.73931  0.30262  0.36971  1.0000
  H   H3721     1.0  0.91543  0.23228  0.46684  1.0000
  H   H3722     1.0  0.89186  0.13986  0.02045  1.0000
  H   H3723     1.0  0.78890  0.23228  0.34626  1.0000
  H   H3724     1.0  0.77644  0.20207  0.33550  1.0000
  H   H3725     1.0  0.94436  0.26746  0.21169  1.0000
  H   H3726     1.0  0.83006  0.16517  0.00678  1.0000
  H   H3727     1.0  0.94759  0.27510  0.11021  1.0000
  H   H3728     1.0  0.91389  0.20607  0.01340  1.0000
  C   C2101     1.0  0.90838  0.28705  0.28209  1.0000
  C   C2102     1.0  0.89124  0.29029  0.28108  1.0000
  C   C2103     1.0  0.87582  0.28014  0.29699  1.0000
  C   C2104     1.0  0.87749  0.26633  0.31332  1.0000
  C   C2105     1.0  0.89450  0.26278  0.31363  1.0000
  C   C2106     1.0  0.90987  0.27328  0.29839  1.0000
  H   H3729     1.0  0.86260  0.28267  0.29640  1.0000
  H   H3730     1.0  0.89584  0.25198  0.32592  1.0000
  H   H3731     1.0  0.92303  0.27062  0.29921  1.0000
  C   C2107     1.0  0.91542  0.28673  0.14947  1.0000
  C   C2108     1.0  0.92157  0.27445  0.16325  1.0000
  C   C2109     1.0  0.92052  0.25664  0.15880  1.0000
  C   C2110     1.0  0.91423  0.25129  0.13990  1.0000
  C   C2111     1.0  0.90878  0.26383  0.12563  1.0000
  C   C2112     1.0  0.90920  0.28141  0.13052  1.0000
  H   H3732     1.0  0.92708  0.27870  0.17730  1.0000
  H   H3733     1.0  0.92485  0.24703  0.16986  1.0000
  H   H3734     1.0  0.90373  0.25979  0.11115  1.0000
  H   H3735     1.0  0.90449  0.29087  0.11969  1.0000
  C   C2113     1.0  0.83321  0.12008  0.08123  1.0000
  C   C2114     1.0  0.84813  0.11590  0.06951  1.0000
  C   C2115     1.0  0.86604  0.12772  0.06695  1.0000
  C   C2116     1.0  0.86944  0.14416  0.07561  1.0000
  C   C2117     1.0  0.85444  0.14862  0.08681  1.0000
  C   C2118     1.0  0.83656  0.13658  0.08979  1.0000
  H   H3736     1.0  0.84598  0.10324  0.06301  1.0000
  H   H3737     1.0  0.87744  0.12393  0.05844  1.0000
  H   H3738     1.0  0.85666  0.16114  0.09360  1.0000
  H   H3739     1.0  0.82524  0.14008  0.09887  1.0000
  H   H3740     1.0  0.80409  0.20708  0.37535  1.0000
  H   H3741     1.0  0.74227  0.12943  0.38508  1.0000
  C   C2119     1.0  0.80461  0.19867  0.39113  1.0000
  H   H3742     1.0  0.80710  0.20765  0.40363  1.0000
  C   C2120     1.0  0.77014  0.19164  0.40273  1.0000
  H   H3743     1.0  0.91961  0.24050  0.23228  1.0000
  C   C2121     1.0  0.92120  0.25380  0.23804  1.0000
  C   C2122     1.0  0.75631  0.12458  0.08093  1.0000
  H   H3744     1.0  0.75221  0.30163  0.41054  1.0000
  H   H3745     1.0  0.77038  0.13095  0.07151  1.0000
  H   H3746     1.0  0.90119  0.28887  0.47511  1.0000
  H   H3747     1.0  0.80723  0.13483  0.02481  1.0000
  C   C2123     1.0  0.83646  0.14262  0.02574  1.0000
  C   C2124     1.0  0.84488  0.09565  0.99075  1.0000
  H   H3748     1.0  0.76951  0.19893  0.38624  1.0000
  H   H3749     1.0  0.77690  0.28856  0.42208  1.0000
  H   H3750     1.0  0.75178  0.14167  0.35751  1.0000
  C   C2125     1.0  0.88847  0.27193  0.44317  1.0000
  H   H3751     1.0  0.78825  0.17483  0.41388  1.0000
  H   H3752     1.0  0.88531  0.29890  0.34017  1.0000
  C   C2126     1.0  0.77542  0.30189  0.42616  1.0000
  Fe  Fe237     1.0  0.92509  0.32103  0.18419  1.0000
  H   H3753     1.0  0.84238  0.22237  0.29506  1.0000
  C   C2127     1.0  0.77712  0.31433  0.38581  1.0000
  H   H3754     1.0  0.75510  0.00513  0.12060  1.0000
  H   H3755     1.0  0.86342  0.27200  0.46358  1.0000
  H   H3756     1.0  0.94373  0.27838  0.23566  1.0000
  H   H3757     1.0  0.88055  0.32178  0.31069  1.0000
  H   H3758     1.0  0.76013  0.15327  0.41111  1.0000
  H   H3759     1.0  0.74520  0.32533  0.38739  1.0000
  H   H3760     1.0  0.97913  0.29589  0.14175  1.0000
  H   H3761     1.0  0.90224  0.14289  0.99201  1.0000
  C   C2128     1.0  0.87352  0.26377  0.46394  1.0000
  C   C2129     1.0  0.97192  0.29884  0.12789  1.0000
  H   H3762     1.0  0.85887  0.23770  0.21077  1.0000
  C   C2130     1.0  0.82581  0.27228  0.47372  1.0000
  H   H3763     1.0  0.74392  0.15213  0.47842  1.0000
  H   H3764     1.0  0.76723  0.16011  0.48237  1.0000
  N   N118      1.0  0.76855  0.10670  0.13760  1.0000
  C   C2131     1.0  0.76621  0.08693  0.13480  1.0000
  C   C2132     1.0  0.76903  0.11859  0.11592  1.0000
  C   C2133     1.0  0.78690  0.11320  0.14459  1.0000
  H   H3765     1.0  0.81676  0.25913  0.48188  1.0000
  H   H3766     1.0  0.87521  0.22859  0.17874  1.0000
  C   C2134     1.0  0.76532  0.07306  0.15582  1.0000
  C   C2135     1.0  0.79367  0.13410  0.14503  1.0000
  H   H3767     1.0  0.86604  0.24993  0.46160  1.0000
  N   N119      1.0  0.75180  0.17835  0.41287  1.0000
  H   H3768     1.0  0.88665  0.23038  0.25794  1.0000
  H   H3769     1.0  0.74224  0.10367  0.10863  1.0000
  C   C2136     1.0  0.81237  0.13879  0.15215  1.0000
  H   H3770     1.0  0.77762  0.08608  0.12219  1.0000
  H   H3771     1.0  0.74538  0.24107  0.44486  1.0000
  H   H3772     1.0  0.76593  0.13168  0.11879  1.0000
  H   H3773     1.0  0.78309  0.12263  0.10593  1.0000
  H   H3774     1.0  0.79775  0.10966  0.13351  1.0000
  H   H3775     1.0  0.78673  0.10605  0.16139  1.0000
  C   C2137     1.0  0.76274  0.05359  0.15091  1.0000
  H   H3776     1.0  0.96645  0.30922  0.07476  1.0000
  H   H3777     1.0  0.89941  0.26475  0.44273  1.0000
  H   H3778     1.0  0.83348  0.14620  0.04221  1.0000
  H   H3779     1.0  0.77813  0.07655  0.16262  1.0000
  H   H3780     1.0  0.95222  0.20081  0.98324  1.0000
  H   H3781     1.0  0.78405  0.13842  0.15678  1.0000
  H   H3782     1.0  0.79520  0.14247  0.12856  1.0000
  C   C2138     1.0  0.75272  0.14167  0.37513  1.0000
  C   C2139     1.0  0.76285  0.16867  0.44931  1.0000
  H   H3783     1.0  0.91888  0.25105  0.25629  1.0000
  H   H3784     1.0  0.76588  0.25568  0.41061  1.0000
  H   H3785     1.0  0.96241  0.27353  0.08682  1.0000
  H   H3786     1.0  0.78485  0.25453  0.47906  1.0000
  C   C2140     1.0  0.81916  0.12907  0.02220  1.0000
  H   H3787     1.0  0.85550  0.21049  0.19298  1.0000
  C   C2141     1.0  0.74378  0.23101  0.35309  1.0000
  H   H3788     1.0  0.81625  0.19252  0.38838  1.0000
  H   H3789     1.0  0.74005  0.30101  0.35220  1.0000
  H   H3790     1.0  0.82266  0.13495  0.14071  1.0000
  H   H3791     1.0  0.81709  0.15381  0.15199  1.0000
  H   H3792     1.0  0.81152  0.13145  0.16905  1.0000
  H   H3793     1.0  0.76355  0.25909  0.45031  1.0000
  Fe  Fe238     1.0  0.93049  0.31834  0.23188  1.0000
  N   N120      1.0  0.97613  0.28827  0.10983  1.0000
  C   C2142     1.0  0.76471  0.23086  0.46263  1.0000
  C   C2143     1.0  0.91186  0.23189  0.99710  1.0000
  C   C2144     1.0  0.80146  0.31539  0.31774  1.0000
  H   H3794     1.0  0.86859  0.21240  0.01892  1.0000
  H   H3795     1.0  0.76432  0.32383  0.41457  1.0000
  C   C2145     1.0  0.97967  0.27071  0.12034  1.0000
  H   H3796     1.0  0.80388  0.31731  0.35125  1.0000
  H   H3797     1.0  0.95909  0.23349  0.16315  1.0000
  C   C2146     1.0  0.74924  0.15928  0.38154  1.0000
  C   C2147     1.0  0.84988  0.19943  0.98357  1.0000
  H   H3798     1.0  0.98429  0.22600  0.10227  1.0000
  H   H3799     1.0  0.89447  0.22943  0.22124  1.0000
  H   H3800     1.0  0.87811  0.20916  0.19660  1.0000
  C   C2148     1.0  0.86562  0.20131  0.03343  1.0000
  C   C2149     1.0  0.96005  0.28307  0.09825  1.0000
  S   S477      1.0  0.79441  0.08599  0.99054  1.0000
  H   H3801     1.0  0.75482  0.07516  0.99350  1.0000
  H   H3802     1.0  0.88607  0.17935  0.01635  1.0000
  H   H3803     1.0  0.77351  0.20266  0.41272  1.0000
  C   C2150     1.0  0.85752  0.20860  0.05298  1.0000
  C   C2151     1.0  0.89941  0.30762  0.33947  1.0000
  H   H3804     1.0  0.76921  0.23321  0.41779  1.0000
  H   H3805     1.0  0.96507  0.20513  0.01674  1.0000
  H   H3806     1.0  0.74766  0.11800  0.06974  1.0000
  H   H3807     1.0  0.87688  0.19977  0.99068  1.0000
  C   C2152     1.0  0.85219  0.18337  0.03004  1.0000
  S   S478      1.0  0.90721  0.32245  0.21546  1.0000
  H   H3808     1.0  0.89113  0.27624  0.40758  1.0000
  H   H3809     1.0  0.97977  0.22735  0.00368  1.0000
  C   C2153     1.0  0.77308  0.99575  0.99251  1.0000
  H   H3810     1.0  0.79533  0.30026  0.32109  1.0000
  N   N121      1.0  0.88799  0.25319  0.23237  1.0000
  C   C2154     1.0  0.87685  0.26656  0.22746  1.0000
  C   C2155     1.0  0.88202  0.24315  0.25590  1.0000
  C   C2156     1.0  0.90770  0.26431  0.22981  1.0000
  C   C2157     1.0  0.96433  0.25820  0.13889  1.0000
  C   C2158     1.0  0.87425  0.16791  0.01509  1.0000
  C   C2159     1.0  0.88157  0.27775  0.20374  1.0000
  H   H3811     1.0  0.74969  0.04898  0.14487  1.0000
  C   C2160     1.0  0.86133  0.23818  0.26579  1.0000
  C   C2161     1.0  0.85678  0.22427  0.28717  1.0000
  H   H3812     1.0  0.74832  0.18851  0.44369  1.0000
  C   C2162     1.0  0.86862  0.28980  0.20022  1.0000
  H   H3813     1.0  0.90836  0.16124  0.00735  1.0000
  H   H3814     1.0  0.87833  0.27653  0.23908  1.0000
  H   H3815     1.0  0.86201  0.25956  0.23037  1.0000
  H   H3816     1.0  0.97406  0.23371  0.13824  1.0000
  H   H3817     1.0  0.88881  0.25168  0.26719  1.0000
  H   H3818     1.0  0.90861  0.27617  0.23861  1.0000
  H   H3819     1.0  0.82079  0.12575  0.00540  1.0000
  H   H3820     1.0  0.87435  0.25537  0.42146  1.0000
  H   H3821     1.0  0.74686  0.02520  0.12105  1.0000
  H   H3822     1.0  0.76177  0.09932  0.09348  1.0000
  H   H3823     1.0  0.89481  0.24713  0.19986  1.0000
  H   H3824     1.0  0.86168  0.21826  0.22871  1.0000
  C   C2163     1.0  0.84236  0.15999  0.00756  1.0000
  C   C2164     1.0  0.73835  0.99816  0.05051  1.0000
  C   C2165     1.0  0.88148  0.15742  0.99775  1.0000
  H   H3825     1.0  0.85766  0.25078  0.26962  1.0000
  H   H3826     1.0  0.86931  0.32098  0.28048  1.0000
  H   H3827     1.0  0.86584  0.22921  0.29883  1.0000
  C   C2166     1.0  0.96646  0.21731  0.00400  1.0000
  H   H3828     1.0  0.85844  0.21078  0.28387  1.0000
  H   H3829     1.0  0.82877  0.31967  0.39574  1.0000
  H   H3830     1.0  0.96017  0.26582  0.15170  1.0000
  H   H3831     1.0  0.98153  0.26184  0.10802  1.0000
  H   H3832     1.0  0.87288  0.29824  0.18347  1.0000
  H   H3833     1.0  0.85437  0.28116  0.20172  1.0000
  H   H3834     1.0  0.76229  0.04398  0.16615  1.0000
  C   C2167     1.0  0.95455  0.29916  0.08566  1.0000
  H   H3835     1.0  0.79174  0.32074  0.38638  1.0000
  C   C2168     1.0  0.86801  0.22880  0.21381  1.0000
  H   H3836     1.0  0.95704  0.29415  0.13508  1.0000
  H   H3837     1.0  0.77512  0.00148  0.00783  1.0000
  H   H3838     1.0  0.86943  0.27732  0.42170  1.0000
  H   H3839     1.0  0.84495  0.20600  0.99710  1.0000
  H   H3840     1.0  0.92821  0.28214  0.08137  1.0000
  C   C2169     1.0  0.74842  0.20327  0.34105  1.0000
  C   C2170     1.0  0.75652  0.11009  0.10029  1.0000
  C   C2171     1.0  0.97046  0.24231  0.15023  1.0000
  C   C2172     1.0  0.74762  0.00898  0.98781  1.0000
  C   C2173     1.0  0.74863  0.17562  0.43768  1.0000
  H   H3841     1.0  0.84732  0.13535  0.02582  1.0000
  H   H3842     1.0  0.74852  0.21603  0.39821  1.0000
  H   H3843     1.0  0.90265  0.32172  0.29731  1.0000
  H   H3844     1.0  0.89465  0.28682  0.44252  1.0000
  C   C2174     1.0  0.75637  0.16395  0.47420  1.0000
  C   C2175     1.0  0.94059  0.29221  0.07127  1.0000
  H   H3845     1.0  0.87094  0.15884  0.03144  1.0000
  S   S479      1.0  0.94724  0.31441  0.20117  1.0000
  H   H3846     1.0  0.95037  0.25732  0.23649  1.0000
  H   H3847     1.0  0.78535  0.17481  0.38603  1.0000
  H   H3848     1.0  0.93637  0.30391  0.06299  1.0000
  H   H3849     1.0  0.85246  0.23233  0.25452  1.0000
  S   S480      1.0  0.97916  0.22291  0.05731  1.0000
  H   H3850     1.0  0.77970  0.03265  0.98949  1.0000
  S   S481      1.0  0.92861  0.29986  0.26398  1.0000
  H   H3851     1.0  0.95530  0.22373  0.00864  1.0000
  H   H3852     1.0  0.76711  0.29934  0.44285  1.0000
  H   H3853     1.0  0.87058  0.14563  0.99533  1.0000
  H   H3854     1.0  0.90261  0.30644  0.35634  1.0000
  C   C2176     1.0  0.75393  0.10868  0.15521  1.0000
  C   C2177     1.0  0.79757  0.32356  0.33834  1.0000
  H   H3855     1.0  0.94805  0.30625  0.09755  1.0000
  H   H3856     1.0  0.95218  0.25202  0.13187  1.0000
  H   H3857     1.0  0.75954  0.17121  0.37091  1.0000
  H   H3858     1.0  0.85927  0.31900  0.44481  1.0000
  H   H3859     1.0  0.77665  0.30037  0.38202  1.0000
  H   H3860     1.0  0.75543  0.10208  0.17163  1.0000
  C   C2178     1.0  0.84986  0.30599  0.45291  1.0000
  H   H3861     1.0  0.85447  0.09040  0.00003  1.0000
  H   H3862     1.0  0.89567  0.28693  0.20042  1.0000
  H   H3863     1.0  0.94661  0.28555  0.05848  1.0000
  C   C2179     1.0  0.88030  0.27006  0.42226  1.0000
  C   C2180     1.0  0.78677  0.18348  0.39893  1.0000
  C   C2181     1.0  0.86935  0.21866  0.19436  1.0000
  C   C2182     1.0  0.76020  0.24526  0.44571  1.0000
  C   C2183     1.0  0.77086  0.24687  0.42268  1.0000
  H   H3864     1.0  0.91327  0.27050  0.21238  1.0000
  H   H3865     1.0  0.86723  0.22158  0.05480  1.0000
  H   H3866     1.0  0.76529  0.15612  0.44386  1.0000
  H   H3867     1.0  0.78564  0.25324  0.42206  1.0000
  C   C2184     1.0  0.77668  0.31985  0.34620  1.0000
  H   H3868     1.0  0.78190  0.20588  0.47921  1.0000
  H   H3869     1.0  0.88041  0.26861  0.19131  1.0000
  H   H3870     1.0  0.84995  0.17338  0.04556  1.0000
  H   H3871     1.0  0.74475  0.29192  0.37820  1.0000
  C   C2185     1.0  0.91339  0.21397  0.99808  1.0000
  H   H3872     1.0  0.84442  0.21158  0.05039  1.0000
  C   C2186     1.0  0.89693  0.14992  0.00486  1.0000
  C   C2187     1.0  0.86418  0.18930  0.98981  1.0000
  H   H3873     1.0  0.83867  0.10435  0.00057  1.0000
  H   H3874     1.0  0.76660  0.14079  0.37751  1.0000
  H   H3875     1.0  0.83865  0.18608  0.02921  1.0000
  C   C2188     1.0  0.94111  0.26498  0.22992  1.0000
  H   H3876     1.0  0.77085  0.30481  0.34708  1.0000
  H   H3877     1.0  0.98246  0.24754  0.15803  1.0000
  C   C2189     1.0  0.88722  0.23987  0.21645  1.0000
  H   H3878     1.0  0.78918  0.31092  0.42637  1.0000
  H   H3879     1.0  0.75770  0.21700  0.45959  1.0000
  C   C2190     1.0  0.76606  0.31099  0.40945  1.0000
  H   H3880     1.0  0.75569  0.12338  0.15647  1.0000
  H   H3881     1.0  0.79582  0.32165  0.30408  1.0000
  H   H3882     1.0  0.86903  0.29921  0.21237  1.0000
  C   C2191     1.0  0.74944  0.15968  0.40627  1.0000
  H   H3883     1.0  0.90918  0.30238  0.32897  1.0000
  C   C2192     1.0  0.74313  0.01008  0.12642  1.0000
  C   C2193     1.0  0.84636  0.30157  0.47592  1.0000
  H   H3884     1.0  0.75022  0.03775  0.99045  1.0000
  N   N122      1.0  0.77097  0.32547  0.36785  1.0000
  H   H3885     1.0  0.75049  0.13540  0.08678  1.0000
  H   H3886     1.0  0.81649  0.31820  0.31255  1.0000
  H   H3887     1.0  0.98523  0.29516  0.18207  1.0000
  S   S482      1.0  0.73995  0.18170  0.33358  1.0000
  H   H3888     1.0  0.75318  0.17586  0.48069  1.0000
  H   H3889     1.0  0.74653  0.00656  0.00594  1.0000
  H   H3890     1.0  0.75361  0.07274  0.16860  1.0000
  H   H3891     1.0  0.90695  0.25984  0.47607  1.0000
  H   H3892     1.0  0.83390  0.08370  0.98870  1.0000
  H   H3893     1.0  0.84529  0.15555  0.99149  1.0000
  H   H3894     1.0  0.79938  0.31985  0.47782  1.0000
  H   H3895     1.0  0.95484  0.32430  0.14424  1.0000
  H   H3896     1.0  0.90043  0.20987  0.47874  1.0000
  H   H3897     1.0  0.73957  0.01234  0.04395  1.0000
  C   C2194     1.0  0.97736  0.32016  0.12194  1.0000
  H   H3898     1.0  0.74009  0.00676  0.14464  1.0000
  C   C2195     1.0  0.90485  0.22437  0.48115  1.0000
  H   H3899     1.0  0.97527  0.32463  0.15589  1.0000
  H   H3900     1.0  0.97211  0.32499  0.10722  1.0000
  C   C2196     1.0  0.74188  0.02699  0.98286  1.0000
  H   H3901     1.0  0.78665  0.99441  0.98518  1.0000
  C   C2197     1.0  0.75003  0.99411  0.06467  1.0000
  H   H3902     1.0  0.73726  0.24376  0.48059  1.0000
  H   H3903     1.0  0.73764  0.18722  0.38731  1.0000
  H   H3904     1.0  0.73837  0.20782  0.42651  1.0000
  Fe  Fe239     1.0  0.76429  0.07243  0.83751  1.0000
  S   S483      1.0  0.78866  0.06112  0.83276  1.0000
  H   H3905     1.0  0.95737  0.26888  0.89977  1.0000
  Fe  Fe240     1.0  0.76095  0.06392  0.88708  1.0000
  S   S484      1.0  0.78495  0.05194  0.88535  1.0000
  N   N123      1.0  0.75969  0.23221  0.48653  1.0000
  Fe  Fe241     1.0  0.79877  0.07678  0.85895  1.0000
  S   S485      1.0  0.82903  0.09297  0.85621  1.0000
  Fe  Fe242     1.0  0.77226  0.03771  0.85951  1.0000
  S   S486      1.0  0.76995  0.00806  0.85475  1.0000
  S   S487      1.0  0.77525  0.08942  0.86219  1.0000
  H   H3906     1.0  0.84755  0.22115  0.95865  1.0000
  H   H3907     1.0  0.74024  0.18217  0.63772  1.0000
  Fe  Fe243     1.0  0.89913  0.19721  0.86259  1.0000
  S   S488      1.0  0.89010  0.21700  0.88244  1.0000
  S   S489      1.0  0.87248  0.17647  0.85833  1.0000
  Fe  Fe244     1.0  0.94044  0.21843  0.86157  1.0000
  S   S490      1.0  0.93291  0.23837  0.88163  1.0000
  Fe  Fe245     1.0  0.91185  0.21383  0.90204  1.0000
  S   S491      1.0  0.90749  0.20242  0.93824  1.0000
  Fe  Fe246     1.0  0.91212  0.23942  0.85954  1.0000
  S   S492      1.0  0.90847  0.26718  0.84577  1.0000
  S   S493      1.0  0.92034  0.19337  0.88322  1.0000
  S   S494      1.0  0.92025  0.22024  0.83839  1.0000
  Fe  Fe247     1.0  0.84823  0.30832  0.52806  1.0000
  S   S495      1.0  0.81810  0.29946  0.54009  1.0000
  H   H3908     1.0  0.79728  0.19451  0.50782  1.0000
  Fe  Fe248     1.0  0.85697  0.30581  0.57512  1.0000
  S   S496      1.0  0.82716  0.29667  0.59068  1.0000
  S   S497      1.0  0.88148  0.30909  0.59269  1.0000
  Fe  Fe249     1.0  0.82383  0.27850  0.56495  1.0000
  S   S498      1.0  0.81031  0.24803  0.56854  1.0000
  S   S499      1.0  0.85390  0.28612  0.55114  1.0000
  C   C2198     1.0  0.78641  0.23983  0.57082  1.0000
  C   C2199     1.0  0.77888  0.22176  0.56786  1.0000
  C   C2200     1.0  0.75985  0.21471  0.56973  1.0000
  H   H3909     1.0  0.76506  0.12173  0.84248  1.0000
  C   C2201     1.0  0.75577  0.24370  0.57786  1.0000
  C   C2202     1.0  0.77482  0.25083  0.57572  1.0000
  H   H3910     1.0  0.78782  0.21317  0.56429  1.0000
  C   C2203     1.0  0.76293  0.01417  0.93589  1.0000
  H   H3911     1.0  0.78052  0.26474  0.57812  1.0000
  H   H3912     1.0  0.83130  0.28128  0.50402  1.0000
  H   H3913     1.0  0.86812  0.25013  0.51969  1.0000
  C   C2204     1.0  0.73969  0.23176  0.49077  1.0000
  H   H3914     1.0  0.75161  0.20291  0.49864  1.0000
  H   H3915     1.0  0.95229  0.30066  0.82715  1.0000
  H   H3916     1.0  0.87666  0.27378  0.71462  1.0000
  C   C2205     1.0  0.91703  0.27722  0.81790  1.0000
  C   C2206     1.0  0.92324  0.26721  0.80278  1.0000
  C   C2207     1.0  0.92925  0.27530  0.78052  1.0000
  C   C2208     1.0  0.92910  0.29346  0.77318  1.0000
  C   C2209     1.0  0.92335  0.30366  0.78836  1.0000
  C   C2210     1.0  0.91728  0.29554  0.81063  1.0000
  H   H3917     1.0  0.92310  0.25312  0.80811  1.0000
  H   H3918     1.0  0.93380  0.26736  0.76888  1.0000
  H   H3919     1.0  0.95934  0.28438  0.91922  1.0000
  H   H3920     1.0  0.91276  0.30347  0.82229  1.0000
  H   H3921     1.0  0.74601  0.02898  0.82360  1.0000
  C   C2211     1.0  0.96626  0.22809  0.96389  1.0000
  C   C2212     1.0  0.91082  0.21499  0.95964  1.0000
  C   C2213     1.0  0.90971  0.23313  0.95819  1.0000
  H   H3922     1.0  0.90899  0.25546  0.97602  1.0000
  H   H3923     1.0  0.81514  0.15694  0.93644  1.0000
  H   H3924     1.0  0.90774  0.24037  0.94295  1.0000
  H   H3925     1.0  0.82082  0.22287  0.51809  1.0000
  C   C2214     1.0  0.84074  0.11619  0.85733  1.0000
  C   C2215     1.0  0.83151  0.12943  0.86141  1.0000
  C   C2216     1.0  0.84147  0.14769  0.86168  1.0000
  C   C2217     1.0  0.86077  0.15296  0.85849  1.0000
  C   C2218     1.0  0.86996  0.13959  0.85500  1.0000
  C   C2219     1.0  0.86003  0.12144  0.85417  1.0000
  H   H3926     1.0  0.81671  0.12567  0.86412  1.0000
  H   H3927     1.0  0.83414  0.15783  0.86445  1.0000
  H   H3928     1.0  0.88476  0.14332  0.85240  1.0000
  H   H3929     1.0  0.86738  0.11137  0.85108  1.0000
  H   H3930     1.0  0.90308  0.16327  0.94373  1.0000
  H   H3931     1.0  0.79752  0.14473  0.92328  1.0000
  H   H3932     1.0  0.86950  0.22527  0.96727  1.0000
  H   H3933     1.0  0.84905  0.11407  0.89950  1.0000
  H   H3934     1.0  0.76474  0.24378  0.52724  1.0000
  H   H3935     1.0  0.86652  0.11780  0.97136  1.0000
  C   C2220     1.0  0.75852  0.07135  0.93926  1.0000
  C   C2221     1.0  0.75034  0.07111  0.96084  1.0000
  C   C2222     1.0  0.82840  0.08672  0.79374  1.0000
  H   H3936     1.0  0.98040  0.26503  0.92333  1.0000
  C   C2223     1.0  0.78838  0.08201  0.94919  1.0000
  C   C2224     1.0  0.77758  0.07709  0.93339  1.0000
  H   H3937     1.0  0.95037  0.27891  0.84388  1.0000
  H   H3938     1.0  0.82195  0.07383  0.78812  1.0000
  H   H3939     1.0  0.80308  0.08619  0.94462  1.0000
  H   H3940     1.0  0.78401  0.07767  0.91670  1.0000
  H   H3941     1.0  0.78854  0.27017  0.53329  1.0000
  H   H3942     1.0  0.83897  0.12572  0.96410  1.0000
  H   H3943     1.0  0.82909  0.10426  0.95729  1.0000
  H   H3944     1.0  0.87315  0.22429  0.80060  1.0000
  H   H3945     1.0  0.82650  0.24582  0.52396  1.0000
  H   H3946     1.0  0.90041  0.13894  0.94694  1.0000
  N   N124      1.0  0.98280  0.28967  0.80865  1.0000
  H   H3947     1.0  0.85757  0.26666  0.50865  1.0000
  C   C2225     1.0  0.95651  0.30219  0.86003  1.0000
  H   H3948     1.0  0.97697  0.24015  0.96637  1.0000
  C   C2226     1.0  0.87971  0.23914  0.79982  1.0000
  H   H3949     1.0  0.82909  0.10282  0.91912  1.0000
  H   H3950     1.0  0.84387  0.08267  0.93851  1.0000
  H   H3951     1.0  0.78730  0.24345  0.51604  1.0000
  H   H3952     1.0  0.90593  0.15290  0.91971  1.0000
  S   S500      1.0  0.93618  0.30285  0.74500  1.0000
  N   N125      1.0  0.81526  0.13298  0.79664  1.0000
  C   C2227     1.0  0.79749  0.12560  0.81279  1.0000
  C   C2228     1.0  0.82583  0.11869  0.79755  1.0000
  C   C2229     1.0  0.82632  0.14957  0.80430  1.0000
  C   C2230     1.0  0.81248  0.13868  0.77344  1.0000
  C   C2231     1.0  0.79473  0.12770  0.76654  1.0000
  C   C2232     1.0  0.78649  0.13983  0.81664  1.0000
  C   C2233     1.0  0.84639  0.15783  0.79221  1.0000
  C   C2234     1.0  0.81720  0.10053  0.78994  1.0000
  C   C2235     1.0  0.76221  0.00483  0.91573  1.0000
  C   C2236     1.0  0.79541  0.13233  0.74180  1.0000
  C   C2237     1.0  0.76637  0.13056  0.82638  1.0000
  C   C2238     1.0  0.85473  0.17660  0.79801  1.0000
  H   H3953     1.0  0.80019  0.12008  0.82912  1.0000
  H   H3954     1.0  0.78840  0.11360  0.80799  1.0000
  H   H3955     1.0  0.83949  0.12408  0.78687  1.0000
  H   H3956     1.0  0.82845  0.11529  0.81455  1.0000
  H   H3957     1.0  0.82682  0.14621  0.82207  1.0000
  H   H3958     1.0  0.81955  0.16090  0.80281  1.0000
  H   H3959     1.0  0.81221  0.15333  0.77047  1.0000
  H   H3960     1.0  0.82443  0.13813  0.76146  1.0000
  H   H3961     1.0  0.78256  0.13112  0.77480  1.0000
  H   H3962     1.0  0.79227  0.11265  0.77094  1.0000
  H   H3963     1.0  0.79239  0.14838  0.82836  1.0000
  H   H3964     1.0  0.78710  0.14920  0.80118  1.0000
  H   H3965     1.0  0.84724  0.15949  0.77413  1.0000
  H   H3966     1.0  0.85499  0.14879  0.79734  1.0000
  C   C2239     1.0  0.76120  0.07569  0.97678  1.0000
  H   H3967     1.0  0.81712  0.10313  0.77203  1.0000
  H   H3968     1.0  0.79245  0.22440  0.49218  1.0000
  C   C2240     1.0  0.90148  0.30544  0.51211  1.0000
  C   C2241     1.0  0.81147  0.04846  0.95678  1.0000
  H   H3969     1.0  0.95780  0.26778  0.81345  1.0000
  H   H3970     1.0  0.86355  0.20880  0.94933  1.0000
  H   H3971     1.0  0.78239  0.12465  0.73751  1.0000
  H   H3972     1.0  0.75970  0.12207  0.81509  1.0000
  H   H3973     1.0  0.77322  0.03584  0.79542  1.0000
  H   H3974     1.0  0.75904  0.14118  0.82893  1.0000
  H   H3975     1.0  0.85421  0.17547  0.81604  1.0000
  H   H3976     1.0  0.86930  0.18184  0.78987  1.0000
  H   H3977     1.0  0.84731  0.18667  0.79239  1.0000
  H   H3978     1.0  0.78438  0.20313  0.52826  1.0000
  C   C2242     1.0  0.85080  0.09054  0.92200  1.0000
  C   C2243     1.0  0.81990  0.13226  0.92555  1.0000
  S   S501      1.0  0.74480  0.06368  0.92014  1.0000
  H   H3979     1.0  0.97567  0.26097  0.82417  1.0000
  C   C2244     1.0  0.78403  0.19759  0.51272  1.0000
  N   N126      1.0  0.84949  0.12258  0.93104  1.0000
  H   H3980     1.0  0.88482  0.27802  0.52453  1.0000
  H   H3981     1.0  0.86583  0.09388  0.92106  1.0000
  H   H3982     1.0  0.87715  0.12008  0.93075  1.0000
  H   H3983     1.0  0.96539  0.19621  0.94745  1.0000
  C   C2245     1.0  0.87763  0.14781  0.93583  1.0000
  H   H3984     1.0  0.96254  0.23793  0.90983  1.0000
  H   H3985     1.0  0.87466  0.13456  0.90763  1.0000
  C   C2246     1.0  0.81254  0.14915  0.92287  1.0000
  S   S502      1.0  0.74744  0.04828  0.86288  1.0000
  C   C2247     1.0  0.85518  0.10668  0.96837  1.0000
  H   H3986     1.0  0.94502  0.20265  0.94546  1.0000
  H   H3987     1.0  0.80306  0.09400  0.79882  1.0000
  H   H3988     1.0  0.87025  0.14679  0.95270  1.0000
  C   C2248     1.0  0.77649  0.25056  0.51389  1.0000
  H   H3989     1.0  0.75525  0.17921  0.60168  1.0000
  C   C2249     1.0  0.91319  0.20569  0.97943  1.0000
  H   H3990     1.0  0.80628  0.02236  0.97749  1.0000
  H   H3991     1.0  0.94472  0.23313  0.93278  1.0000
  H   H3992     1.0  0.91418  0.19172  0.98063  1.0000
  H   H3993     1.0  0.75859  0.16226  0.62261  1.0000
  C   C2250     1.0  0.84417  0.10800  0.91718  1.0000
  H   H3994     1.0  0.81604  0.12467  0.91215  1.0000
  H   H3995     1.0  0.88165  0.24144  0.81667  1.0000
  H   H3996     1.0  0.97287  0.26902  0.77476  1.0000
  C   C2251     1.0  0.84102  0.13787  0.92404  1.0000
  C   C2252     1.0  0.91026  0.24158  0.97695  1.0000
  C   C2253     1.0  0.78027  0.08093  0.97099  1.0000
  C   C2254     1.0  0.84236  0.11495  0.95521  1.0000
  C   C2255     1.0  0.89801  0.15084  0.93657  1.0000
  H   H3997     1.0  0.74780  0.00870  0.81259  1.0000
  C   C2256     1.0  0.76218  0.21544  0.50030  1.0000
  C   C2257     1.0  0.84732  0.24009  0.50068  1.0000
  C   C2258     1.0  0.95986  0.23819  0.92767  1.0000
  C   C2259     1.0  0.89391  0.25231  0.48736  1.0000
  H   H3998     1.0  0.74216  0.20148  0.68100  1.0000
  H   H3999     1.0  0.95355  0.17901  0.89730  1.0000
  H   H4000     1.0  0.95075  0.24016  0.79582  1.0000
  S   S503      1.0  0.85828  0.31652  0.49146  1.0000
  H   H4001     1.0  0.75953  0.01409  0.90201  1.0000
  S   S504      1.0  0.97126  0.22195  0.85167  1.0000
  H   H4002     1.0  0.79717  0.14727  0.73664  1.0000
  H   H4003     1.0  0.86787  0.18293  0.97546  1.0000
  H   H4004     1.0  0.83094  0.07418  0.90538  1.0000
  H   H4005     1.0  0.92354  0.31780  0.78290  1.0000
  C   C2260     1.0  0.83213  0.23413  0.52087  1.0000
  H   H4006     1.0  0.74684  0.25219  0.58194  1.0000
  H   H4007     1.0  0.84259  0.09234  0.78443  1.0000
  H   H4008     1.0  0.75417  0.20077  0.56750  1.0000
  H   H4009     1.0  0.82892  0.08332  0.81147  1.0000
  Fe  Fe250     1.0  0.82432  0.31843  0.56405  1.0000
  H   H4010     1.0  0.93826  0.17711  0.92268  1.0000
  H   H4011     1.0  0.83794  0.18971  0.97945  1.0000
  H   H4012     1.0  0.95297  0.20955  0.90471  1.0000
  H   H4013     1.0  0.90932  0.31511  0.61944  1.0000
  H   H4014     1.0  0.77553  0.03767  0.96250  1.0000
  C   C2261     1.0  0.96090  0.20204  0.91425  1.0000
  C   C2262     1.0  0.95979  0.20624  0.93798  1.0000
  H   H4015     1.0  0.89330  0.24280  0.78898  1.0000
  H   H4016     1.0  0.95295  0.23133  0.96848  1.0000
  H   H4017     1.0  0.84995  0.06501  0.90986  1.0000
  H   H4018     1.0  0.79545  0.27802  0.50415  1.0000
  C   C2263     1.0  0.78109  0.21163  0.49464  1.0000
  H   H4019     1.0  0.83733  0.22916  0.53567  1.0000
  H   H4020     1.0  0.84717  0.14471  0.90676  1.0000
  C   C2264     1.0  0.97673  0.26147  0.78902  1.0000
  H   H4021     1.0  0.85330  0.08465  0.88867  1.0000
  H   H4022     1.0  0.80684  0.12828  0.73267  1.0000
  C   C2265     1.0  0.88198  0.31728  0.61793  1.0000
  C   C2266     1.0  0.95283  0.18157  0.91447  1.0000
  C   C2267     1.0  0.78377  0.27031  0.51731  1.0000
  C   C2268     1.0  0.96566  0.25877  0.93003  1.0000
  H   H4023     1.0  0.77287  0.18460  0.51558  1.0000
  C   C2269     1.0  0.85816  0.21455  0.96346  1.0000
  H   H4024     1.0  0.94174  0.29979  0.86671  1.0000
  H   H4025     1.0  0.84419  0.14879  0.93419  1.0000
  C   C2270     1.0  0.98233  0.32227  0.79052  1.0000
  H   H4026     1.0  0.75967  0.02781  0.77542  1.0000
  C   C2271     1.0  0.75962  0.03421  0.79038  1.0000
  N   N127      1.0  0.86642  0.28422  0.77992  1.0000
  C   C2272     1.0  0.86746  0.28291  0.75585  1.0000
  C   C2273     1.0  0.84658  0.27923  0.79059  1.0000
  C   C2274     1.0  0.87617  0.30363  0.78166  1.0000
  C   C2275     1.0  0.87561  0.27125  0.79139  1.0000
  C   C2276     1.0  0.86770  0.25057  0.79071  1.0000
  C   C2277     1.0  0.88660  0.28366  0.74318  1.0000
  C   C2278     1.0  0.87425  0.30869  0.80498  1.0000
  C   C2279     1.0  0.83549  0.29248  0.78237  1.0000
  C   C2280     1.0  0.81578  0.28639  0.79482  1.0000
  C   C2281     1.0  0.88683  0.28557  0.71844  1.0000
  C   C2282     1.0  0.89782  0.31906  0.62744  1.0000
  H   H4027     1.0  0.86304  0.29432  0.74705  1.0000
  H   H4028     1.0  0.85768  0.27013  0.75353  1.0000
  H   H4029     1.0  0.83931  0.26542  0.78774  1.0000
  H   H4030     1.0  0.84526  0.27789  0.80877  1.0000
  H   H4031     1.0  0.87170  0.31377  0.77064  1.0000
  H   H4032     1.0  0.89106  0.30646  0.77563  1.0000
  H   H4033     1.0  0.89051  0.27526  0.78473  1.0000
  H   H4034     1.0  0.87473  0.27227  0.80909  1.0000
  H   H4035     1.0  0.86666  0.24813  0.77377  1.0000
  H   H4036     1.0  0.85386  0.24529  0.80100  1.0000
  H   H4037     1.0  0.89721  0.29550  0.74589  1.0000
  H   H4038     1.0  0.89060  0.27098  0.74860  1.0000
  H   H4039     1.0  0.88016  0.30017  0.81623  1.0000
  H   H4040     1.0  0.85974  0.30678  0.81225  1.0000
  H   H4041     1.0  0.84153  0.30672  0.78472  1.0000
  H   H4042     1.0  0.83498  0.29270  0.76465  1.0000
  H   H4043     1.0  0.81550  0.28648  0.81265  1.0000
  H   H4044     1.0  0.80811  0.29600  0.78856  1.0000
  H   H4045     1.0  0.80879  0.27236  0.79243  1.0000
  H   H4046     1.0  0.90065  0.28588  0.70994  1.0000
  C   C2283     1.0  0.95490  0.26972  0.91747  1.0000
  H   H4047     1.0  0.88380  0.29860  0.71196  1.0000
  H   H4048     1.0  0.73822  0.24503  0.51986  1.0000
  H   H4049     1.0  0.96066  0.17330  0.92311  1.0000
  H   H4050     1.0  0.77280  0.27748  0.51761  1.0000
  C   C2284     1.0  0.80755  0.32634  0.48948  1.0000
  N   N128      1.0  0.96903  0.22570  0.94007  1.0000
  H   H4051     1.0  0.77547  0.00189  0.91034  1.0000
  C   C2285     1.0  0.74823  0.22561  0.57499  1.0000
  H   H4052     1.0  0.75744  0.04807  0.78651  1.0000
  H   H4053     1.0  0.74373  0.03216  0.96509  1.0000
  H   H4054     1.0  0.75964  0.21602  0.51808  1.0000
  H   H4055     1.0  0.81289  0.12346  0.94157  1.0000
  H   H4056     1.0  0.77796  0.99674  0.95065  1.0000
  C   C2286     1.0  0.76548  0.00119  0.95581  1.0000
  H   H4057     1.0  0.74196  0.08296  0.76520  1.0000
  C   C2287     1.0  0.95848  0.29354  0.83947  1.0000
  H   H4058     1.0  0.87599  0.16022  0.92558  1.0000
  H   H4059     1.0  0.80690  0.05475  0.94218  1.0000
  H   H4060     1.0  0.98132  0.29880  0.77470  1.0000
  C   C2288     1.0  0.84591  0.07786  0.90546  1.0000
  C   C2289     1.0  0.88890  0.28259  0.48806  1.0000
  S   S505      1.0  0.75661  0.08351  0.80543  1.0000
  C   C2290     1.0  0.87001  0.13053  0.92579  1.0000
  H   H4061     1.0  0.77441  0.02689  0.93140  1.0000
  H   H4062     1.0  0.81909  0.15827  0.90688  1.0000
  H   H4063     1.0  0.86142  0.09746  0.95965  1.0000
  H   H4064     1.0  0.96305  0.26052  0.94743  1.0000
  H   H4065     1.0  0.96116  0.29681  0.79321  1.0000
  H   H4066     1.0  0.88966  0.31144  0.51225  1.0000
  C   C2291     1.0  0.89560  0.28513  0.51017  1.0000
  H   H4067     1.0  0.87937  0.29128  0.48554  1.0000
  H   H4068     1.0  0.74994  0.01789  0.93931  1.0000
  H   H4069     1.0  0.87817  0.22351  0.49716  1.0000
  C   C2292     1.0  0.86366  0.25545  0.50443  1.0000
  C   C2293     1.0  0.97883  0.29483  0.83093  1.0000
  H   H4070     1.0  0.96301  0.29602  0.87282  1.0000
  H   H4071     1.0  0.90762  0.27963  0.51132  1.0000
  C   C2294     1.0  0.96543  0.21146  0.98166  1.0000
  H   H4072     1.0  0.91252  0.31330  0.49825  1.0000
  H   H4073     1.0  0.97474  0.25426  0.87381  1.0000
  H   H4074     1.0  0.80109  0.02136  0.95028  1.0000
  C   C2295     1.0  0.74822  0.16660  0.61392  1.0000
  H   H4075     1.0  0.97659  0.20497  0.97787  1.0000
  C   C2296     1.0  0.97284  0.26972  0.80998  1.0000
  H   H4076     1.0  0.89757  0.25129  0.50406  1.0000
  C   C2297     1.0  0.86718  0.32241  0.62843  1.0000
  C   C2298     1.0  0.97633  0.30116  0.79137  1.0000
  H   H4077     1.0  0.96296  0.31725  0.85598  1.0000
  C   C2299     1.0  0.77150  0.25011  0.49061  1.0000
  H   H4078     1.0  0.94000  0.26436  0.92405  1.0000
  H   H4079     1.0  0.90663  0.30685  0.52777  1.0000
  N   N129      1.0  0.87992  0.26306  0.48582  1.0000
  H   H4080     1.0  0.85147  0.22783  0.49695  1.0000
  H   H4081     1.0  0.88705  0.16666  0.98169  1.0000
  H   H4082     1.0  0.85493  0.32114  0.62127  1.0000
  H   H4083     1.0  0.82606  0.04881  0.95204  1.0000
  C   C2300     1.0  0.77979  0.02745  0.97360  1.0000
  H   H4084     1.0  0.76497  0.26140  0.48676  1.0000
  C   C2301     1.0  0.83406  0.28482  0.48629  1.0000
  H   H4085     1.0  0.97524  0.20590  0.90541  1.0000
  C   C2302     1.0  0.80000  0.02858  0.96445  1.0000
  H   H4086     1.0  0.91092  0.22465  0.49634  1.0000
  H   H4087     1.0  0.74217  0.16939  0.67782  1.0000
  N   N130      1.0  0.76645  0.00863  0.97697  1.0000
  H   H4088     1.0  0.84112  0.24504  0.48686  1.0000
  H   H4089     1.0  0.81578  0.31712  0.49519  1.0000
  C   C2303     1.0  0.89897  0.32609  0.64712  1.0000
  C   C2304     1.0  0.96564  0.24140  0.79207  1.0000
  H   H4090     1.0  0.74816  0.18985  0.70485  1.0000
  H   H4091     1.0  0.97657  0.32602  0.80599  1.0000
  C   C2305     1.0  0.74476  0.02216  0.80908  1.0000
  H   H4092     1.0  0.74201  0.15565  0.60500  1.0000
  H   H4093     1.0  0.96845  0.23592  0.77675  1.0000
  H   H4094     1.0  0.96950  0.23293  0.80559  1.0000
  H   H4095     1.0  0.98285  0.28565  0.84362  1.0000
  H   H4096     1.0  0.81031  0.05662  0.97011  1.0000
  C   C2306     1.0  0.88837  0.23234  0.48310  1.0000
  C   C2307     1.0  0.89290  0.48037  0.12586  1.0000
  Fe  Fe251     1.0  0.92261  0.35236  0.20954  1.0000
  S   S506      1.0  0.94474  0.34837  0.22829  1.0000
  S   S507      1.0  0.90765  0.37356  0.21662  1.0000
  Fe  Fe252     1.0  0.76057  0.63108  0.06667  1.0000
  H   H4097     1.0  0.96856  0.53057  0.14716  1.0000
  S   S508      1.0  0.93844  0.35149  0.17699  1.0000
  H   H4098     1.0  0.89391  0.48984  0.13799  1.0000
  H   H4099     1.0  0.84390  0.50675  0.34569  1.0000
  Fe  Fe253     1.0  0.79499  0.61570  0.06115  1.0000
  S   S509      1.0  0.77865  0.59117  0.04929  1.0000
  S   S510      1.0  0.82419  0.61246  0.06216  1.0000
  Fe  Fe254     1.0  0.76768  0.61119  0.02901  1.0000
  H   H4100     1.0  0.82197  0.62781  0.99004  1.0000
  H   H4101     1.0  0.89177  0.45222  0.12404  1.0000
  S   S511      1.0  0.78486  0.63594  0.03959  1.0000
  S   S512      1.0  0.77217  0.61308  0.08939  1.0000
  Fe  Fe255     1.0  0.93793  0.50722  0.19272  1.0000
  S   S513      1.0  0.94774  0.52682  0.21505  1.0000
  S   S514      1.0  0.92650  0.51361  0.16162  1.0000
  Fe  Fe256     1.0  0.95299  0.47719  0.21593  1.0000
  S   S515      1.0  0.96398  0.49461  0.23983  1.0000
  S   S516      1.0  0.96234  0.45173  0.21220  1.0000
  Fe  Fe257     1.0  0.93702  0.50175  0.24197  1.0000
  S   S517      1.0  0.92111  0.50424  0.27428  1.0000
  Fe  Fe258     1.0  0.97362  0.51788  0.21115  1.0000
  H   H4102     1.0  0.88305  0.36922  0.29664  1.0000
  S   S518      1.0  0.92530  0.48266  0.21979  1.0000
  S   S519      1.0  0.96440  0.49991  0.18714  1.0000
  S   S520      1.0  0.92771  0.61225  0.06246  1.0000
  C   C2308     1.0  0.88501  0.64315  0.05968  1.0000
  C   C2309     1.0  0.77527  0.35523  0.38527  1.0000
  Fe  Fe259     1.0  0.94597  0.61435  0.08790  1.0000
  S   S521      1.0  0.93986  0.59836  0.12287  1.0000
  H   H4103     1.0  0.78089  0.44607  0.28718  1.0000
  Fe  Fe260     1.0  0.82180  0.44186  0.39661  1.0000
  S   S522      1.0  0.85177  0.45578  0.39479  1.0000
  S   S523      1.0  0.80159  0.45817  0.39015  1.0000
  Fe  Fe261     1.0  0.82650  0.40366  0.40818  1.0000
  S   S524      1.0  0.85657  0.41432  0.40654  1.0000
  S   S525      1.0  0.81348  0.37344  0.41881  1.0000
  Fe  Fe262     1.0  0.84920  0.43523  0.42558  1.0000
  S   S526      1.0  0.86133  0.43611  0.45678  1.0000
  Fe  Fe263     1.0  0.85630  0.43354  0.37604  1.0000
  S   S527      1.0  0.87424  0.43379  0.34377  1.0000
  S   S528      1.0  0.81895  0.42329  0.42871  1.0000
  S   S529      1.0  0.82647  0.42096  0.37635  1.0000
  H   H4104     1.0  0.96926  0.50349  0.13036  1.0000
  C   C2310     1.0  0.83373  0.65594  0.00996  1.0000
  C   C2311     1.0  0.76576  0.42332  0.36223  1.0000
  C   C2312     1.0  0.93067  0.61719  0.99200  1.0000
  H   H4105     1.0  0.86529  0.35314  0.24791  1.0000
  H   H4106     1.0  0.90835  0.65377  0.13535  1.0000
  H   H4107     1.0  0.88864  0.60524  0.01432  1.0000
  H   H4108     1.0  0.88005  0.55674  0.08011  1.0000
  H   H4109     1.0  0.77513  0.38134  0.36610  1.0000
  H   H4110     1.0  0.92714  0.62081  0.00788  1.0000
  H   H4111     1.0  0.94598  0.47508  0.14890  1.0000
  H   H4112     1.0  0.88582  0.56110  0.18252  1.0000
  C   C2313     1.0  0.82243  0.36172  0.39973  1.0000
  C   C2314     1.0  0.82169  0.34321  0.40593  1.0000
  H   H4113     1.0  0.74673  0.63920  0.00865  1.0000
  C   C2315     1.0  0.83582  0.34256  0.36893  1.0000
  C   C2316     1.0  0.83663  0.36110  0.36279  1.0000
  C   C2317     1.0  0.83025  0.37075  0.37828  1.0000
  H   H4114     1.0  0.81620  0.33639  0.42271  1.0000
  H   H4115     1.0  0.82509  0.61777  0.01607  1.0000
  H   H4116     1.0  0.84221  0.36802  0.34606  1.0000
  H   H4117     1.0  0.83116  0.38511  0.37347  1.0000
  C   C2318     1.0  0.90843  0.48451  0.29360  1.0000
  C   C2319     1.0  0.90606  0.46684  0.28862  1.0000
  C   C2320     1.0  0.89553  0.45146  0.30419  1.0000
  C   C2321     1.0  0.88732  0.45359  0.32486  1.0000
  C   C2322     1.0  0.88970  0.47124  0.32987  1.0000
  C   C2323     1.0  0.90011  0.48665  0.31423  1.0000
  H   H4118     1.0  0.91237  0.46502  0.27279  1.0000
  H   H4119     1.0  0.89382  0.43782  0.30024  1.0000
  H   H4120     1.0  0.88371  0.47302  0.34587  1.0000
  H   H4121     1.0  0.90191  0.50028  0.31821  1.0000
  C   C2324     1.0  0.92944  0.53706  0.15082  1.0000
  C   C2325     1.0  0.93299  0.55047  0.16403  1.0000
  C   C2326     1.0  0.93565  0.56906  0.15520  1.0000
  C   C2327     1.0  0.93515  0.57457  0.13297  1.0000
  C   C2328     1.0  0.93116  0.56117  0.11977  1.0000
  C   C2329     1.0  0.92822  0.54244  0.12872  1.0000
  H   H4122     1.0  0.93354  0.54652  0.18115  1.0000
  H   H4123     1.0  0.93837  0.57929  0.16564  1.0000
  H   H4124     1.0  0.93052  0.56522  0.10267  1.0000
  H   H4125     1.0  0.92531  0.53214  0.11841  1.0000
  C   C2330     1.0  0.84750  0.62498  0.06067  1.0000
  C   C2331     1.0  0.85281  0.64368  0.06194  1.0000
  C   C2332     1.0  0.89358  0.57506  0.10046  1.0000
  H   H4126     1.0  0.77981  0.46782  0.29521  1.0000
  C   C2333     1.0  0.87972  0.62453  0.05802  1.0000
  C   C2334     1.0  0.86112  0.61554  0.05861  1.0000
  H   H4127     1.0  0.86018  0.35330  0.46216  1.0000
  H   H4128     1.0  0.88993  0.61703  0.05637  1.0000
  H   H4129     1.0  0.85722  0.60107  0.05769  1.0000
  C   C2335     1.0  0.85983  0.59620  0.13305  1.0000
  C   C2336     1.0  0.92261  0.39541  0.21529  1.0000
  C   C2337     1.0  0.91673  0.40850  0.22600  1.0000
  C   C2338     1.0  0.92875  0.42595  0.22514  1.0000
  C   C2339     1.0  0.94656  0.43038  0.21326  1.0000
  C   C2340     1.0  0.95231  0.41733  0.20241  1.0000
  C   C2341     1.0  0.94045  0.39985  0.20359  1.0000
  H   H4130     1.0  0.90296  0.40503  0.23523  1.0000
  H   H4131     1.0  0.92428  0.43590  0.23375  1.0000
  H   H4132     1.0  0.96606  0.42063  0.19322  1.0000
  H   H4133     1.0  0.94511  0.38981  0.19534  1.0000
  C   C2342     1.0  0.90928  0.64312  0.12508  1.0000
  H   H4134     1.0  0.75968  0.47781  0.41439  1.0000
  H   H4135     1.0  0.76620  0.44651  0.31204  1.0000
  H   H4136     1.0  0.79048  0.42312  0.37497  1.0000
  H   H4137     1.0  0.82922  0.34242  0.46393  1.0000
  H   H4138     1.0  0.89167  0.33247  0.34204  1.0000
  C   C2343     1.0  0.87191  0.56401  0.15443  1.0000
  H   H4139     1.0  0.84846  0.46897  0.45670  1.0000
  H   H4140     1.0  0.90467  0.36296  0.33404  1.0000
  H   H4141     1.0  0.90473  0.56236  0.07475  1.0000
  H   H4142     1.0  0.90678  0.58554  0.09886  1.0000
  H   H4143     1.0  0.89276  0.36072  0.26408  1.0000
  H   H4144     1.0  0.87333  0.33396  0.24075  1.0000
  H   H4145     1.0  0.88446  0.42850  0.22320  1.0000
  H   H4146     1.0  0.97450  0.59620  0.19041  1.0000
  C   C2344     1.0  0.97105  0.57099  0.08057  1.0000
  H   H4147     1.0  0.89338  0.57916  0.06518  1.0000
  S   S530      1.0  0.95801  0.65025  0.03368  1.0000
  H   H4148     1.0  0.91389  0.38462  0.27619  1.0000
  C   C2345     1.0  0.75258  0.43284  0.35906  1.0000
  H   H4149     1.0  0.92227  0.46549  0.12927  1.0000
  H   H4150     1.0  0.87003  0.48619  0.25372  1.0000
  H   H4151     1.0  0.84958  0.58262  0.13875  1.0000
  H   H4152     1.0  0.89383  0.55121  0.15960  1.0000
  H   H4153     1.0  0.91662  0.40760  0.16561  1.0000
  C   C2346     1.0  0.83437  0.61083  0.12529  1.0000
  C   C2347     1.0  0.90262  0.40941  0.16693  1.0000
  H   H4154     1.0  0.84848  0.59818  0.10266  1.0000
  Fe  Fe264     1.0  0.97480  0.64939  0.06079  1.0000
  C   C2348     1.0  0.98339  0.58501  0.16196  1.0000
  H   H4155     1.0  0.76036  0.35200  0.39121  1.0000
  H   H4156     1.0  0.81852  0.38928  0.46218  1.0000
  C   C2349     1.0  0.82868  0.33372  0.39063  1.0000
  H   H4157     1.0  0.90658  0.61003  0.11499  1.0000
  C   C2350     1.0  0.97598  0.58283  0.18647  1.0000
  C   C2351     1.0  0.87102  0.33593  0.27552  1.0000
  C   C2352     1.0  0.86552  0.36696  0.42855  1.0000
  H   H4158     1.0  0.97379  0.59029  0.15278  1.0000
  H   H4159     1.0  0.85665  0.39307  0.45503  1.0000
  C   C2353     1.0  0.75793  0.48652  0.42686  1.0000
  H   H4160     1.0  0.94628  0.40133  0.26292  1.0000
  C   C2354     1.0  0.84508  0.64363  0.00148  1.0000
  N   N131      1.0  0.87844  0.59368  0.12543  1.0000
  H   H4161     1.0  0.92586  0.34881  0.28173  1.0000
  H   H4162     1.0  0.74477  0.45766  0.36258  1.0000
  C   C2355     1.0  0.87724  0.58308  0.10669  1.0000
  H   H4163     1.0  0.86795  0.55577  0.14169  1.0000
  H   H4164     1.0  0.87773  0.37467  0.45604  1.0000
  H   H4165     1.0  0.82589  0.64953  0.02667  1.0000
  H   H4166     1.0  0.92192  0.63889  0.12702  1.0000
  H   H4167     1.0  0.76411  0.40995  0.35755  1.0000
  H   H4168     1.0  0.86721  0.62256  0.00071  1.0000
  H   H4169     1.0  0.92445  0.36005  0.30442  1.0000
  H   H4170     1.0  0.74827  0.41129  0.43278  1.0000
  H   H4171     1.0  0.82380  0.59791  0.13313  1.0000
  C   C2356     1.0  0.74110  0.42101  0.42558  1.0000
  H   H4172     1.0  0.88901  0.58413  0.00458  1.0000
  H   H4173     1.0  0.85918  0.56495  0.16453  1.0000
  H   H4174     1.0  0.77163  0.49559  0.42734  1.0000
  H   H4175     1.0  0.85219  0.35952  0.42486  1.0000
  H   H4176     1.0  0.86993  0.38106  0.41875  1.0000
  H   H4177     1.0  0.87578  0.35957  0.42362  1.0000
  C   C2357     1.0  0.75475  0.45013  0.36515  1.0000
  H   H4178     1.0  0.81325  0.46429  0.43230  1.0000
  H   H4179     1.0  0.74205  0.42061  0.40775  1.0000
  C   C2358     1.0  0.86462  0.33848  0.25343  1.0000
  H   H4180     1.0  0.97123  0.55672  0.16016  1.0000
  H   H4181     1.0  0.86176  0.61994  0.10712  1.0000
  H   H4182     1.0  0.89234  0.38716  0.34837  1.0000
  C   C2359     1.0  0.92397  0.37658  0.27337  1.0000
  H   H4183     1.0  0.75357  0.43076  0.46170  1.0000
  C   C2360     1.0  0.74919  0.47497  0.45004  1.0000
  C   C2361     1.0  0.88435  0.58359  0.14444  1.0000
  H   H4184     1.0  0.79521  0.34845  0.36333  1.0000
  H   H4185     1.0  0.77706  0.35341  0.35068  1.0000
  H   H4186     1.0  0.96382  0.58141  0.08439  1.0000
  H   H4187     1.0  0.93738  0.44232  0.13906  1.0000
  C   C2362     1.0  0.77814  0.46575  0.45010  1.0000
  H   H4188     1.0  0.74970  0.48537  0.46106  1.0000
  H   H4189     1.0  0.88090  0.49602  0.27495  1.0000
  C   C2363     1.0  0.88765  0.35935  0.30791  1.0000
  C   C2364     1.0  0.84994  0.37810  0.46083  1.0000
  C   C2365     1.0  0.89281  0.56790  0.07879  1.0000
  H   H4190     1.0  0.79588  0.56596  0.99399  1.0000
  C   C2366     1.0  0.74894  0.55877  0.22486  1.0000
  C   C2367     1.0  0.82807  0.59389  0.99055  1.0000
  H   H4191     1.0  0.75319  0.50739  0.40280  1.0000
  H   H4192     1.0  0.97228  0.40732  0.23133  1.0000
  C   C2368     1.0  0.89081  0.39294  0.15935  1.0000
  Fe  Fe265     1.0  0.95949  0.34496  0.19619  1.0000
  H   H4193     1.0  0.89602  0.39260  0.14196  1.0000
  C   C2369     1.0  0.83262  0.62473  0.99932  1.0000
  H   H4194     1.0  0.76435  0.44443  0.42057  1.0000
  H   H4195     1.0  0.96118  0.55715  0.08532  1.0000
  C   C2370     1.0  0.89775  0.37088  0.32352  1.0000
  C   C2371     1.0  0.81538  0.38774  0.48029  1.0000
  H   H4196     1.0  0.87162  0.50978  0.25633  1.0000
  C   C2372     1.0  0.88458  0.37782  0.33864  1.0000
  H   H4197     1.0  0.87119  0.58425  0.02663  1.0000
  N   N132      1.0  0.89822  0.34866  0.29508  1.0000
  H   H4198     1.0  0.89128  0.38004  0.16965  1.0000
  H   H4199     1.0  0.85831  0.49701  0.36153  1.0000
  H   H4200     1.0  0.87475  0.34988  0.31776  1.0000
  H   H4201     1.0  0.87684  0.38555  0.32900  1.0000
  C   C2373     1.0  0.78078  0.43085  0.37194  1.0000
  H   H4202     1.0  0.89254  0.62099  0.14976  1.0000
  C   C2374     1.0  0.86396  0.36762  0.45306  1.0000
  H   H4203     1.0  0.95330  0.38097  0.27184  1.0000
  C   C2375     1.0  0.85194  0.60670  0.11535  1.0000
  H   H4204     1.0  0.89341  0.56340  0.11328  1.0000
  H   H4205     1.0  0.89865  0.58278  0.13970  1.0000
  H   H4206     1.0  0.81399  0.47295  0.45787  1.0000
  H   H4207     1.0  0.90438  0.48621  0.11178  1.0000
  C   C2376     1.0  0.78228  0.37616  0.37888  1.0000
  H   H4208     1.0  0.74246  0.44954  0.42064  1.0000
  H   H4209     1.0  0.83712  0.61994  0.13760  1.0000
  H   H4210     1.0  0.87215  0.53980  0.17706  1.0000
  C   C2377     1.0  0.94276  0.38843  0.27516  1.0000
  C   C2378     1.0  0.89257  0.61199  0.11740  1.0000
  H   H4211     1.0  0.86187  0.34038  0.28774  1.0000
  H   H4212     1.0  0.85422  0.64193  0.01349  1.0000
  C   C2379     1.0  0.80947  0.46051  0.45045  1.0000
  H   H4213     1.0  0.87981  0.47940  0.11973  1.0000
  H   H4214     1.0  0.90759  0.42749  0.13539  1.0000
  C   C2380     1.0  0.89251  0.62662  0.13247  1.0000
  H   H4215     1.0  0.97092  0.53582  0.11776  1.0000
  H   H4216     1.0  0.82407  0.58694  0.00810  1.0000
  S   S531      1.0  0.95905  0.60689  0.00808  1.0000
  H   H4217     1.0  0.89988  0.34034  0.26309  1.0000
  S   S532      1.0  0.74280  0.60759  0.05473  1.0000
  H   H4218     1.0  0.96235  0.57261  0.19101  1.0000
  N   N133      1.0  0.91328  0.44517  0.15930  1.0000
  C   C2381     1.0  0.90247  0.42783  0.15289  1.0000
  C   C2382     1.0  0.91186  0.46209  0.14462  1.0000
  C   C2383     1.0  0.93314  0.44492  0.15589  1.0000
  C   C2384     1.0  0.90751  0.44598  0.18312  1.0000
  C   C2385     1.0  0.88713  0.44481  0.19077  1.0000
  H   H4219     1.0  0.77970  0.38259  0.39352  1.0000
  C   C2386     1.0  0.78006  0.34578  0.36567  1.0000
  C   C2387     1.0  0.89343  0.46130  0.13656  1.0000
  C   C2388     1.0  0.88236  0.44176  0.21583  1.0000
  C   C2389     1.0  0.88155  0.55345  0.16932  1.0000
  C   C2390     1.0  0.73768  0.53897  0.23396  1.0000
  H   H4220     1.0  0.97454  0.34391  0.13634  1.0000
  H   H4221     1.0  0.88788  0.42754  0.15356  1.0000
  H   H4222     1.0  0.91521  0.47431  0.15287  1.0000
  C   C2391     1.0  0.91850  0.35793  0.28945  1.0000
  H   H4223     1.0  0.73975  0.53576  0.25116  1.0000
  H   H4224     1.0  0.91108  0.43503  0.19374  1.0000
  H   H4225     1.0  0.91539  0.45901  0.18725  1.0000
  H   H4226     1.0  0.87783  0.43333  0.18535  1.0000
  H   H4227     1.0  0.88436  0.45796  0.18435  1.0000
  H   H4228     1.0  0.89114  0.61837  0.10083  1.0000
  H   H4229     1.0  0.89709  0.40869  0.18450  1.0000
  H   H4230     1.0  0.94500  0.46421  0.17655  1.0000
  H   H4231     1.0  0.97647  0.47358  0.15662  1.0000
  H   H4232     1.0  0.89095  0.45309  0.22236  1.0000
  H   H4233     1.0  0.86778  0.44135  0.22088  1.0000
  H   H4234     1.0  0.94702  0.65645  0.98460  1.0000
  H   H4235     1.0  0.91014  0.64926  0.10766  1.0000
  H   H4236     1.0  0.81784  0.41703  0.47875  1.0000
  C   C2392     1.0  0.94573  0.61013  0.98778  1.0000
  H   H4237     1.0  0.77173  0.47137  0.37859  1.0000
  H   H4238     1.0  0.94268  0.39211  0.29179  1.0000
  N   N134      1.0  0.83037  0.46294  0.31098  1.0000
  C   C2393     1.0  0.84754  0.46985  0.29382  1.0000
  C   C2394     1.0  0.82988  0.44418  0.32279  1.0000
  C   C2395     1.0  0.81402  0.46222  0.29974  1.0000
  C   C2396     1.0  0.82998  0.47550  0.32769  1.0000
  C   C2397     1.0  0.84740  0.48059  0.33816  1.0000
  C   C2398     1.0  0.85121  0.48981  0.28137  1.0000
  C   C2399     1.0  0.79503  0.45279  0.31434  1.0000
  C   C2400     1.0  0.82851  0.42882  0.30862  1.0000
  C   C2401     1.0  0.82661  0.41020  0.32272  1.0000
  C   C2402     1.0  0.84568  0.49374  0.35424  1.0000
  C   C2403     1.0  0.86954  0.49573  0.26562  1.0000
  C   C2404     1.0  0.77962  0.45339  0.30128  1.0000
  H   H4239     1.0  0.84707  0.46104  0.28099  1.0000
  H   H4240     1.0  0.85978  0.46859  0.30109  1.0000
  H   H4241     1.0  0.84248  0.44482  0.33000  1.0000
  H   H4242     1.0  0.81840  0.43951  0.33704  1.0000
  H   H4243     1.0  0.81518  0.45535  0.28518  1.0000
  H   H4244     1.0  0.81366  0.47637  0.29305  1.0000
  H   H4245     1.0  0.82722  0.48850  0.32049  1.0000
  H   H4246     1.0  0.81839  0.46910  0.34158  1.0000
  H   H4247     1.0  0.85971  0.48755  0.32558  1.0000
  H   H4248     1.0  0.84971  0.46812  0.34733  1.0000
  H   H4249     1.0  0.84043  0.49086  0.27146  1.0000
  H   H4250     1.0  0.85164  0.49978  0.29279  1.0000
  H   H4251     1.0  0.79279  0.45982  0.32848  1.0000
  H   H4252     1.0  0.79366  0.43814  0.32071  1.0000
  H   H4253     1.0  0.81651  0.42733  0.30022  1.0000
  H   H4254     1.0  0.84107  0.43182  0.29606  1.0000
  H   H4255     1.0  0.82588  0.39951  0.31218  1.0000
  H   H4256     1.0  0.83863  0.41072  0.33103  1.0000
  H   H4257     1.0  0.81392  0.40616  0.33528  1.0000
  H   H4258     1.0  0.83389  0.48736  0.36779  1.0000
  Fe  Fe266     1.0  0.95381  0.61982  0.03784  1.0000
  C   C2405     1.0  0.94715  0.46251  0.15913  1.0000
  H   H4259     1.0  0.87485  0.36607  0.35027  1.0000
  H   H4260     1.0  0.92460  0.37395  0.25627  1.0000
  S   S533      1.0  0.97163  0.61902  0.06344  1.0000
  C   C2406     1.0  0.96679  0.46130  0.15307  1.0000
  H   H4261     1.0  0.88151  0.45590  0.15001  1.0000
  C   C2407     1.0  0.98415  0.40551  0.23880  1.0000
  Fe  Fe267     1.0  0.93268  0.64266  0.06017  1.0000
  C   C2408     1.0  0.98227  0.51426  0.12920  1.0000
  H   H4262     1.0  0.86452  0.57151  0.11010  1.0000
  S   S534      1.0  0.94988  0.64468  0.08700  1.0000
  H   H4263     1.0  0.85991  0.60308  0.14768  1.0000
  C   C2409     1.0  0.87143  0.65266  0.06148  1.0000
  H   H4264     1.0  0.87634  0.39348  0.16111  1.0000
  C   C2410     1.0  0.78301  0.44822  0.37785  1.0000
  H   H4265     1.0  0.88498  0.59137  0.15824  1.0000
  C   C2411     1.0  0.77006  0.45790  0.37418  1.0000
  C   C2412     1.0  0.89133  0.34688  0.27365  1.0000
  H   H4266     1.0  0.82891  0.61795  0.11207  1.0000
  Fe  Fe268     1.0  0.75530  0.58972  0.07628  1.0000
  H   H4267     1.0  0.83849  0.37503  0.45160  1.0000
  H   H4268     1.0  0.78112  0.46819  0.43187  1.0000
  H   H4269     1.0  0.90832  0.38311  0.31386  1.0000
  H   H4270     1.0  0.98286  0.39056  0.24275  1.0000
  H   H4271     1.0  0.97972  0.58600  0.11877  1.0000
  H   H4272     1.0  0.93520  0.43351  0.16751  1.0000
  H   H4273     1.0  0.87596  0.59199  0.09163  1.0000
  H   H4274     1.0  0.78451  0.47917  0.45479  1.0000
  H   H4275     1.0  0.84257  0.65117  0.06357  1.0000
  N   N135      1.0  0.75779  0.46018  0.45876  1.0000
  H   H4276     1.0  0.76358  0.56012  0.22584  1.0000
  C   C2413     1.0  0.98108  0.57195  0.11768  1.0000
  H   H4277     1.0  0.96877  0.44891  0.16291  1.0000
  S   S535      1.0  0.74600  0.65063  0.08132  1.0000
  H   H4278     1.0  0.80135  0.59933  0.99502  1.0000
  H   H4279     1.0  0.74326  0.53002  0.22395  1.0000
  H   H4280     1.0  0.74788  0.56263  0.20735  1.0000
  H   H4281     1.0  0.74417  0.56843  0.23451  1.0000
  H   H4282     1.0  0.78204  0.35103  0.39897  1.0000
  H   H4283     1.0  0.85057  0.60431  0.01912  1.0000
  H   H4284     1.0  0.81681  0.45047  0.45625  1.0000
  H   H4285     1.0  0.79723  0.38045  0.37259  1.0000
  H   H4286     1.0  0.81165  0.35328  0.47090  1.0000
  C   C2414     1.0  0.74629  0.49890  0.41904  1.0000
  C   C2415     1.0  0.97003  0.32868  0.14079  1.0000
  H   H4287     1.0  0.96696  0.56290  0.12332  1.0000
  S   S536      1.0  0.77211  0.61496  0.99184  1.0000
  S   S537      1.0  0.74163  0.56507  0.10375  1.0000
  C   C2416     1.0  0.84850  0.46325  0.47351  1.0000
  C   C2417     1.0  0.90098  0.32770  0.33034  1.0000
  C   C2418     1.0  0.78890  0.45192  0.45748  1.0000
  H   H4288     1.0  0.78506  0.43947  0.44988  1.0000
  C   C2419     1.0  0.74989  0.44056  0.42879  1.0000
  H   H4289     1.0  0.88022  0.63179  0.13197  1.0000
  H   H4290     1.0  0.80444  0.33851  0.33403  1.0000
  C   C2420     1.0  0.74845  0.44184  0.45340  1.0000
  H   H4291     1.0  0.77113  0.32680  0.33285  1.0000
  H   H4292     1.0  0.85024  0.33013  0.25505  1.0000
  S   S538      1.0  0.90825  0.65502  0.05984  1.0000
  C   C2421     1.0  0.97808  0.53254  0.13144  1.0000
  H   H4293     1.0  0.97004  0.46077  0.13533  1.0000
  C   C2422     1.0  0.87992  0.59227  0.01098  1.0000
  C   C2423     1.0  0.85679  0.60934  0.00144  1.0000
  H   H4294     1.0  0.78654  0.44765  0.47550  1.0000
  H   H4295     1.0  0.74673  0.33207  0.35892  1.0000
  H   H4296     1.0  0.85931  0.58287  0.99211  1.0000
  C   C2424     1.0  0.86806  0.59627  0.99407  1.0000
  H   H4297     1.0  0.97606  0.57353  0.06257  1.0000
  H   H4298     1.0  0.98551  0.57823  0.19646  1.0000
  C   C2425     1.0  0.89529  0.32946  0.30748  1.0000
  H   H4299     1.0  0.91532  0.33562  0.32975  1.0000
  C   C2426     1.0  0.74561  0.64735  0.99301  1.0000
  H   H4300     1.0  0.74437  0.50819  0.43086  1.0000
  C   C2427     1.0  0.85402  0.44720  0.47802  1.0000
  H   H4301     1.0  0.85357  0.65089  0.98540  1.0000
  H   H4302     1.0  0.98394  0.41116  0.25429  1.0000
  S   S539      1.0  0.84344  0.33056  0.34923  1.0000
  N   N136      1.0  0.84209  0.61214  0.98853  1.0000
  C   C2428     1.0  0.98519  0.56638  0.15598  1.0000
  H   H4303     1.0  0.82408  0.65827  0.99880  1.0000
  H   H4304     1.0  0.79517  0.40320  0.47817  1.0000
  C   C2429     1.0  0.82016  0.34501  0.47790  1.0000
  C   C2430     1.0  0.98711  0.57206  0.09287  1.0000
  Fe  Fe269     1.0  0.91926  0.36388  0.73919  1.0000
  S   S540      1.0  0.92342  0.37569  0.70349  1.0000
  S   S541      1.0  0.90799  0.37476  0.76821  1.0000
  H   H4305     1.0  0.89693  0.63011  0.76855  1.0000
  H   H4306     1.0  0.77469  0.37940  0.52356  1.0000
  Fe  Fe270     1.0  0.94934  0.36656  0.70137  1.0000
  H   H4307     1.0  0.88001  0.55099  0.56678  1.0000
  Fe  Fe271     1.0  0.90987  0.34689  0.69908  1.0000
  H   H4308     1.0  0.87741  0.60288  0.97830  1.0000
  S   S542      1.0  0.94599  0.35679  0.73768  1.0000
  S   S543      1.0  0.90366  0.33578  0.73529  1.0000
  Fe  Fe272     1.0  0.73847  0.58480  0.84086  1.0000
  S   S544      1.0  0.75986  0.62231  0.87446  1.0000
  H   H4309     1.0  0.90194  0.41541  0.69253  1.0000
  H   H4310     1.0  0.89286  0.45555  0.74406  1.0000
  S   S545      1.0  0.76189  0.60977  0.82614  1.0000
  C   C2431     1.0  0.92644  0.43756  0.68535  1.0000
  Fe  Fe273     1.0  0.77434  0.60468  0.85644  1.0000
  S   S546      1.0  0.80221  0.60012  0.86192  1.0000
  C   C2432     1.0  0.85477  0.44030  0.49981  1.0000
  H   H4311     1.0  0.85486  0.44789  0.69012  1.0000
  S   S547      1.0  0.75191  0.57841  0.86983  1.0000
  H   H4312     1.0  0.83295  0.50751  0.61014  1.0000
  Fe  Fe274     1.0  0.92793  0.48277  0.75753  1.0000
  S   S548      1.0  0.94825  0.48365  0.72803  1.0000
  S   S549      1.0  0.91405  0.45676  0.78190  1.0000
  Fe  Fe275     1.0  0.93117  0.52386  0.74727  1.0000
  S   S550      1.0  0.95145  0.52769  0.71598  1.0000
  S   S551      1.0  0.92264  0.54848  0.75780  1.0000
  Fe  Fe276     1.0  0.93311  0.50114  0.71024  1.0000
  S   S552      1.0  0.92739  0.49210  0.67793  1.0000
  Fe  Fe277     1.0  0.96454  0.50981  0.73646  1.0000
  H   H4313     1.0  0.88363  0.39171  0.52424  1.0000
  S   S553      1.0  0.91176  0.49885  0.73965  1.0000
  S   S554      1.0  0.94534  0.50748  0.76784  1.0000
  H   H4314     1.0  0.75585  0.38222  0.59710  1.0000
  S   S555      1.0  0.93312  0.57372  0.84967  1.0000
  Fe  Fe278     1.0  0.83669  0.46279  0.56819  1.0000
  S   S556      1.0  0.82066  0.43330  0.57783  1.0000
  Fe  Fe279     1.0  0.84380  0.46620  0.61477  1.0000
  S   S557      1.0  0.82806  0.43682  0.62785  1.0000
  S   S558      1.0  0.85444  0.48571  0.63758  1.0000
  Fe  Fe280     1.0  0.84278  0.43086  0.59726  1.0000
  S   S559      1.0  0.85588  0.40748  0.59958  1.0000
  Fe  Fe281     1.0  0.80739  0.44197  0.60730  1.0000
  S   S560      1.0  0.77715  0.43015  0.62062  1.0000
  S   S561      1.0  0.86006  0.45992  0.58542  1.0000
  S   S562      1.0  0.82179  0.47182  0.59638  1.0000
  H   H4315     1.0  0.98679  0.45663  0.71922  1.0000
  H   H4316     1.0  0.90833  0.35852  0.60720  1.0000
  H   H4317     1.0  0.85968  0.59823  0.95335  1.0000
  C   C2433     1.0  0.84418  0.38889  0.58862  1.0000
  C   C2434     1.0  0.84490  0.37103  0.59645  1.0000
  C   C2435     1.0  0.83451  0.35602  0.58882  1.0000
  C   C2436     1.0  0.82325  0.35887  0.57356  1.0000
  C   C2437     1.0  0.82323  0.37675  0.56500  1.0000
  C   C2438     1.0  0.83383  0.39174  0.57234  1.0000
  H   H4318     1.0  0.85306  0.36867  0.60881  1.0000
  H   H4319     1.0  0.97963  0.42702  0.69013  1.0000
  H   H4320     1.0  0.81531  0.37904  0.55239  1.0000
  H   H4321     1.0  0.83416  0.40549  0.56519  1.0000
  C   C2439     1.0  0.90659  0.48975  0.66779  1.0000
  C   C2440     1.0  0.89254  0.49654  0.67711  1.0000
  C   C2441     1.0  0.87658  0.49509  0.66778  1.0000
  C   C2442     1.0  0.87432  0.48644  0.64944  1.0000
  C   C2443     1.0  0.88814  0.47913  0.64059  1.0000
  C   C2444     1.0  0.90430  0.48103  0.64952  1.0000
  H   H4322     1.0  0.89417  0.50335  0.69113  1.0000
  H   H4323     1.0  0.86598  0.50081  0.67473  1.0000
  H   H4324     1.0  0.88644  0.47223  0.62670  1.0000
  H   H4325     1.0  0.91515  0.47582  0.64221  1.0000
  H   H4326     1.0  0.74878  0.54265  0.84883  1.0000
  H   H4327     1.0  0.84626  0.42404  0.66629  1.0000
  H   H4328     1.0  0.86751  0.36777  0.49384  1.0000
  C   C2445     1.0  0.92630  0.55559  0.78313  1.0000
  C   C2446     1.0  0.93110  0.54446  0.79978  1.0000
  C   C2447     1.0  0.93325  0.55028  0.81997  1.0000
  C   C2448     1.0  0.93068  0.56728  0.82375  1.0000
  C   C2449     1.0  0.92631  0.57862  0.80694  1.0000
  C   C2450     1.0  0.92408  0.57276  0.78675  1.0000
  H   H4329     1.0  0.93277  0.53119  0.79731  1.0000
  H   H4330     1.0  0.93668  0.54143  0.83286  1.0000
  H   H4331     1.0  0.92466  0.59187  0.80955  1.0000
  H   H4332     1.0  0.92058  0.58154  0.77386  1.0000
  H   H4333     1.0  0.74248  0.46846  0.52309  1.0000
  H   H4334     1.0  0.86395  0.63076  0.96409  1.0000
  H   H4335     1.0  0.85475  0.36507  0.66978  1.0000
  H   H4336     1.0  0.84107  0.50985  0.56851  1.0000
  C   C2451     1.0  0.83785  0.60561  0.86862  1.0000
  H   H4337     1.0  0.76141  0.47459  0.56735  1.0000
  H   H4338     1.0  0.83245  0.59315  0.88071  1.0000
  C   C2452     1.0  0.89216  0.51398  0.52626  1.0000
  C   C2453     1.0  0.87706  0.51150  0.54645  1.0000
  H   H4339     1.0  0.93222  0.43229  0.67104  1.0000
  C   C2454     1.0  0.74279  0.45778  0.65379  1.0000
  C   C2455     1.0  0.97875  0.59358  0.78126  1.0000
  H   H4340     1.0  0.88302  0.33214  0.82102  1.0000
  H   H4341     1.0  0.95860  0.38175  0.80544  1.0000
  H   H4342     1.0  0.76013  0.44685  0.49093  1.0000
  C   C2456     1.0  0.76537  0.61055  0.95100  1.0000
  H   H4343     1.0  0.78608  0.57756  0.97359  1.0000
  H   H4344     1.0  0.90078  0.43521  0.67441  1.0000
  C   C2457     1.0  0.88433  0.32882  0.80419  1.0000
  H   H4345     1.0  0.77961  0.61811  0.94563  1.0000
  H   H4346     1.0  0.76438  0.51643  0.82368  1.0000
  C   C2458     1.0  0.86590  0.42477  0.70035  1.0000
  H   H4347     1.0  0.96184  0.60003  0.96380  1.0000
  H   H4348     1.0  0.90499  0.43690  0.72254  1.0000
  H   H4349     1.0  0.76804  0.40559  0.59124  1.0000
  C   C2459     1.0  0.91047  0.39802  0.77033  1.0000
  C   C2460     1.0  0.90213  0.40164  0.78994  1.0000
  C   C2461     1.0  0.90347  0.41970  0.79299  1.0000
  C   C2462     1.0  0.91327  0.43450  0.77655  1.0000
  C   C2463     1.0  0.92186  0.43106  0.75680  1.0000
  C   C2464     1.0  0.92027  0.41275  0.75356  1.0000
  H   H4350     1.0  0.89453  0.39038  0.80295  1.0000
  H   H4351     1.0  0.89686  0.42222  0.80829  1.0000
  H   H4352     1.0  0.92955  0.44246  0.74405  1.0000
  H   H4353     1.0  0.92671  0.41002  0.73832  1.0000
  C   C2465     1.0  0.75634  0.46216  0.57954  1.0000
  C   C2466     1.0  0.76864  0.45496  0.59030  1.0000
  C   C2467     1.0  0.76214  0.43910  0.60631  1.0000
  H   H4354     1.0  0.88519  0.35932  0.60597  1.0000
  H   H4355     1.0  0.91272  0.55756  0.55662  1.0000
  H   H4356     1.0  0.78313  0.46183  0.58636  1.0000
  C   C2468     1.0  0.86236  0.61917  0.92557  1.0000
  C   C2469     1.0  0.88460  0.54356  0.55380  1.0000
  C   C2470     1.0  0.76779  0.35097  0.53847  1.0000
  C   C2471     1.0  0.90435  0.55531  0.54349  1.0000
  H   H4357     1.0  0.85753  0.64978  0.82494  1.0000
  H   H4358     1.0  0.80396  0.40265  0.50363  1.0000
  H   H4359     1.0  0.87576  0.54480  0.54119  1.0000
  H   H4360     1.0  0.86493  0.51402  0.53985  1.0000
  H   H4361     1.0  0.89471  0.52775  0.51609  1.0000
  H   H4362     1.0  0.84932  0.53424  0.56648  1.0000
  H   H4363     1.0  0.81335  0.56065  0.81096  1.0000
  H   H4364     1.0  0.91125  0.54864  0.53153  1.0000
  H   H4365     1.0  0.76551  0.46021  0.67190  1.0000
  H   H4366     1.0  0.96655  0.44326  0.69505  1.0000
  C   C2472     1.0  0.73752  0.45345  0.58458  1.0000
  H   H4367     1.0  0.80695  0.57143  0.96536  1.0000
  S   S563      1.0  0.98269  0.65555  0.85061  1.0000
  H   H4368     1.0  0.75464  0.64973  0.90896  1.0000
  C   C2473     1.0  0.97428  0.60593  0.81679  1.0000
  C   C2474     1.0  0.78952  0.38638  0.60874  1.0000
  H   H4369     1.0  0.87629  0.62728  0.92672  1.0000
  H   H4370     1.0  0.85097  0.38962  0.52514  1.0000
  C   C2475     1.0  0.75476  0.60462  0.93539  1.0000
  H   H4371     1.0  0.83481  0.34220  0.59520  1.0000
  C   C2476     1.0  0.74334  0.43025  0.61121  1.0000
  C   C2477     1.0  0.76284  0.46560  0.65558  1.0000
  H   H4372     1.0  0.90771  0.44488  0.63284  1.0000
  H   H4373     1.0  0.77810  0.37746  0.62151  1.0000
  H   H4374     1.0  0.83853  0.60037  0.94568  1.0000
  C   C2478     1.0  0.95022  0.60553  0.96711  1.0000
  H   H4375     1.0  0.87238  0.47680  0.74388  1.0000
  C   C2479     1.0  0.84986  0.44927  0.51701  1.0000
  C   C2480     1.0  0.87956  0.38774  0.65952  1.0000
  H   H4376     1.0  0.96301  0.56455  0.74475  1.0000
  C   C2481     1.0  0.85907  0.38024  0.66863  1.0000
  H   H4377     1.0  0.89438  0.37159  0.56574  1.0000
  C   C2482     1.0  0.94481  0.37218  0.64019  1.0000
  H   H4378     1.0  0.74011  0.44263  0.65613  1.0000
  H   H4379     1.0  0.96575  0.59871  0.71083  1.0000
  S   S564      1.0  0.85427  0.32882  0.55039  1.0000
  H   H4380     1.0  0.95714  0.64924  0.95253  1.0000
  H   H4381     1.0  0.97972  0.60807  0.77425  1.0000
  H   H4382     1.0  0.97856  0.63216  0.93331  1.0000
  H   H4383     1.0  0.77033  0.40876  0.52930  1.0000
  H   H4384     1.0  0.91549  0.48580  0.59638  1.0000
  H   H4385     1.0  0.77683  0.53788  0.83013  1.0000
  C   C2483     1.0  0.83165  0.35475  0.49379  1.0000
  H   H4386     1.0  0.85598  0.38340  0.68531  1.0000
  C   C2484     1.0  0.90272  0.36429  0.57481  1.0000
  H   H4387     1.0  0.76627  0.34233  0.55481  1.0000
  N   N137      1.0  0.84307  0.37435  0.48529  1.0000
  C   C2485     1.0  0.77233  0.37130  0.54038  1.0000
  H   H4388     1.0  0.91514  0.38411  0.65401  1.0000
  H   H4389     1.0  0.82224  0.35398  0.50936  1.0000
  N   N138      1.0  0.97786  0.42984  0.75764  1.0000
  C   C2486     1.0  0.91497  0.38029  0.63744  1.0000
  H   H4390     1.0  0.85813  0.44665  0.65107  1.0000
  H   H4391     1.0  0.80897  0.58103  0.79709  1.0000
  C   C2487     1.0  0.84376  0.47234  0.49069  1.0000
  C   C2488     1.0  0.77490  0.40850  0.54553  1.0000
  H   H4392     1.0  0.96523  0.41501  0.79062  1.0000
  C   C2489     1.0  0.78437  0.38655  0.58590  1.0000
  C   C2490     1.0  0.77944  0.42857  0.54984  1.0000
  H   H4393     1.0  0.95612  0.36578  0.78651  1.0000
  C   C2491     1.0  0.79516  0.44110  0.53242  1.0000
  H   H4394     1.0  0.95951  0.60324  0.81598  1.0000
  H   H4395     1.0  0.78810  0.40490  0.54314  1.0000
  H   H4396     1.0  0.95081  0.43928  0.78965  1.0000
  H   H4397     1.0  0.79605  0.39600  0.57406  1.0000
  H   H4398     1.0  0.78242  0.37234  0.58257  1.0000
  H   H4399     1.0  0.76754  0.43432  0.54915  1.0000
  H   H4400     1.0  0.78359  0.42936  0.56608  1.0000
  H   H4401     1.0  0.95944  0.37526  0.63257  1.0000
  H   H4402     1.0  0.85938  0.42810  0.50341  1.0000
  H   H4403     1.0  0.93829  0.35731  0.64109  1.0000
  H   H4404     1.0  0.79146  0.44140  0.51582  1.0000
  H   H4405     1.0  0.79824  0.45532  0.53600  1.0000
  H   H4406     1.0  0.80775  0.43637  0.53251  1.0000
  N   N139      1.0  0.86788  0.58327  0.81420  1.0000
  C   C2492     1.0  0.84737  0.57887  0.82112  1.0000
  C   C2493     1.0  0.87636  0.58019  0.83440  1.0000
  C   C2494     1.0  0.87476  0.60350  0.80439  1.0000
  C   C2495     1.0  0.87361  0.57237  0.79732  1.0000
  C   C2496     1.0  0.86124  0.55267  0.79834  1.0000
  C   C2497     1.0  0.83679  0.58495  0.80325  1.0000
  C   C2498     1.0  0.89585  0.61162  0.79890  1.0000
  C   C2499     1.0  0.87090  0.56031  0.84745  1.0000
  C   C2500     1.0  0.87814  0.55960  0.86910  1.0000
  C   C2501     1.0  0.87083  0.54204  0.78377  1.0000
  C   C2502     1.0  0.81624  0.57578  0.80971  1.0000
  H   H4407     1.0  0.98102  0.32926  0.75571  1.0000
  H   H4408     1.0  0.84403  0.58562  0.83531  1.0000
  H   H4409     1.0  0.84120  0.56401  0.82735  1.0000
  H   H4410     1.0  0.89153  0.58387  0.83008  1.0000
  H   H4411     1.0  0.87325  0.58946  0.84584  1.0000
  H   H4412     1.0  0.86929  0.61181  0.81557  1.0000
  H   H4413     1.0  0.86957  0.60635  0.78884  1.0000
  H   H4414     1.0  0.87458  0.57972  0.78032  1.0000
  H   H4415     1.0  0.88771  0.57129  0.79825  1.0000
  H   H4416     1.0  0.84837  0.55334  0.79240  1.0000
  H   H4417     1.0  0.85745  0.54458  0.81516  1.0000
  H   H4418     1.0  0.83871  0.60006  0.80122  1.0000
  H   H4419     1.0  0.84176  0.58163  0.78716  1.0000
  H   H4420     1.0  0.90243  0.60278  0.78979  1.0000
  H   H4421     1.0  0.90151  0.61303  0.81424  1.0000
  H   H4422     1.0  0.85587  0.55444  0.85161  1.0000
  H   H4423     1.0  0.87706  0.55146  0.83780  1.0000
  H   H4424     1.0  0.87215  0.56791  0.87980  1.0000
  H   H4425     1.0  0.87437  0.54517  0.87791  1.0000
  H   H4426     1.0  0.89329  0.56484  0.86601  1.0000
  H   H4427     1.0  0.86151  0.52827  0.78404  1.0000
  H   H4428     1.0  0.87480  0.54948  0.76652  1.0000
  H   H4429     1.0  0.88333  0.54009  0.78985  1.0000
  H   H4430     1.0  0.81081  0.57901  0.82571  1.0000
  H   H4431     1.0  0.86581  0.60855  0.87345  1.0000
  Fe  Fe282     1.0  0.92998  0.60059  0.85967  1.0000
  S   S565      1.0  0.90394  0.60385  0.87816  1.0000
  H   H4432     1.0  0.74127  0.46305  0.63690  1.0000
  H   H4433     1.0  0.89923  0.42174  0.59698  1.0000
  H   H4434     1.0  0.91814  0.50836  0.60324  1.0000
  H   H4435     1.0  0.98369  0.63705  0.90372  1.0000
  H   H4436     1.0  0.86923  0.39178  0.48881  1.0000
  H   H4437     1.0  0.80167  0.38096  0.60933  1.0000
  S   S566      1.0  0.83938  0.47758  0.53357  1.0000
  C   C2503     1.0  0.93972  0.60797  0.95069  1.0000
  H   H4438     1.0  0.88540  0.41882  0.62355  1.0000
  H   H4439     1.0  0.94322  0.60432  0.93483  1.0000
  H   H4440     1.0  0.74078  0.44409  0.52784  1.0000
  H   H4441     1.0  0.79308  0.40049  0.61251  1.0000
  C   C2504     1.0  0.82580  0.61274  0.85712  1.0000
  C   C2505     1.0  0.85683  0.61432  0.86452  1.0000
  C   C2506     1.0  0.84766  0.52087  0.57712  1.0000
  C   C2507     1.0  0.86833  0.32942  0.64811  1.0000
  C   C2508     1.0  0.92448  0.61472  0.95506  1.0000
  H   H4442     1.0  0.88700  0.38150  0.67111  1.0000
  H   H4443     1.0  0.88168  0.41621  0.74866  1.0000
  C   C2509     1.0  0.86939  0.44374  0.72871  1.0000
  N   N140      1.0  0.88195  0.52349  0.56327  1.0000
  H   H4444     1.0  0.87253  0.49674  0.55424  1.0000
  S   S567      1.0  0.94712  0.61284  0.88343  1.0000
  Fe  Fe283     1.0  0.92175  0.61898  0.89930  1.0000
  C   C2510     1.0  0.75654  0.37579  0.55517  1.0000
  H   H4445     1.0  0.97314  0.44532  0.79695  1.0000
  H   H4446     1.0  0.95703  0.46887  0.80294  1.0000
  S   S568      1.0  0.91073  0.61771  0.93517  1.0000
  H   H4447     1.0  0.87412  0.50180  0.50488  1.0000
  C   C2511     1.0  0.85956  0.43479  0.66239  1.0000
  H   H4448     1.0  0.90509  0.51228  0.53119  1.0000
  C   C2512     1.0  0.83452  0.52020  0.59816  1.0000
  H   H4449     1.0  0.95045  0.41322  0.77137  1.0000
  H   H4450     1.0  0.95383  0.47166  0.77481  1.0000
  H   H4451     1.0  0.87018  0.42934  0.65388  1.0000
  C   C2513     1.0  0.86613  0.51798  0.58237  1.0000
  H   H4452     1.0  0.91115  0.52586  0.55935  1.0000
  H   H4453     1.0  0.97949  0.41456  0.73077  1.0000
  H   H4454     1.0  0.85427  0.43843  0.73412  1.0000
  Fe  Fe284     1.0  0.91083  0.63117  0.85611  1.0000
  S   S569      1.0  0.93610  0.62714  0.83613  1.0000
  H   H4455     1.0  0.84179  0.62989  0.95833  1.0000
  H   H4456     1.0  0.85469  0.62858  0.91878  1.0000
  H   H4457     1.0  0.85067  0.44392  0.53369  1.0000
  C   C2514     1.0  0.97562  0.33238  0.77178  1.0000
  H   H4458     1.0  0.96282  0.45012  0.75091  1.0000
  H   H4459     1.0  0.96090  0.42467  0.73294  1.0000
  C   C2515     1.0  0.85968  0.37805  0.49637  1.0000
  C   C2516     1.0  0.86414  0.63025  0.84866  1.0000
  N   N141      1.0  0.87686  0.42982  0.71802  1.0000
  C   C2517     1.0  0.89980  0.36613  0.59900  1.0000
  C   C2518     1.0  0.89870  0.52088  0.57218  1.0000
  C   C2519     1.0  0.91099  0.41051  0.62436  1.0000
  H   H4460     1.0  0.90859  0.36525  0.64074  1.0000
  H   H4461     1.0  0.88697  0.49518  0.59616  1.0000
  H   H4462     1.0  0.94027  0.37954  0.78966  1.0000
  C   C2520     1.0  0.85219  0.60823  0.94805  1.0000
  H   H4463     1.0  0.84047  0.34576  0.49851  1.0000
  H   H4464     1.0  0.87844  0.33807  0.79380  1.0000
  H   H4465     1.0  0.87471  0.43831  0.76268  1.0000
  H   H4466     1.0  0.90002  0.45331  0.70340  1.0000
  N   N142      1.0  0.76074  0.39427  0.56267  1.0000
  H   H4467     1.0  0.87538  0.36724  0.74104  1.0000
  C   C2521     1.0  0.98554  0.58967  0.74315  1.0000
  H   H4468     1.0  0.77179  0.46151  0.64276  1.0000
  H   H4469     1.0  0.87940  0.36791  0.63823  1.0000
  H   H4470     1.0  0.89760  0.50162  0.49756  1.0000
  C   C2522     1.0  0.89817  0.50092  0.58188  1.0000
  C   C2523     1.0  0.86511  0.44114  0.68324  1.0000
  H   H4471     1.0  0.89632  0.49191  0.56936  1.0000
  H   H4472     1.0  0.87267  0.38103  0.76190  1.0000
  C   C2524     1.0  0.74844  0.52843  0.84636  1.0000
  C   C2525     1.0  0.96729  0.39436  0.77084  1.0000
  C   C2526     1.0  0.87304  0.37865  0.53152  1.0000
  H   H4473     1.0  0.89461  0.64011  0.79314  1.0000
  C   C2527     1.0  0.87888  0.39603  0.72816  1.0000
  H   H4474     1.0  0.94282  0.39844  0.62533  1.0000
  H   H4475     1.0  0.77914  0.34842  0.52733  1.0000
  H   H4476     1.0  0.83971  0.53227  0.60595  1.0000
  C   C2528     1.0  0.88399  0.38312  0.63630  1.0000
  C   C2529     1.0  0.76344  0.53020  0.82674  1.0000
  H   H4477     1.0  0.87487  0.38809  0.62599  1.0000
  H   H4478     1.0  0.82403  0.63451  0.83245  1.0000
  H   H4479     1.0  0.85483  0.37465  0.74596  1.0000
  H   H4480     1.0  0.87853  0.45156  0.67872  1.0000
  H   H4481     1.0  0.87120  0.41523  0.69116  1.0000
  H   H4482     1.0  0.85150  0.41711  0.70781  1.0000
  H   H4483     1.0  0.82085  0.52041  0.59424  1.0000
  H   H4484     1.0  0.86988  0.52544  0.59601  1.0000
  H   H4485     1.0  0.86298  0.50314  0.58941  1.0000
  H   H4486     1.0  0.89672  0.57279  0.51775  1.0000
  H   H4487     1.0  0.88318  0.48565  0.52091  1.0000
  H   H4488     1.0  0.89803  0.58170  0.54315  1.0000
  H   H4489     1.0  0.90133  0.52939  0.58521  1.0000
  C   C2530     1.0  0.76663  0.39256  0.58479  1.0000
  C   C2531     1.0  0.95479  0.37950  0.78928  1.0000
  S   S570      1.0  0.88824  0.64076  0.84137  1.0000
  C   C2532     1.0  0.83304  0.62887  0.84153  1.0000
  H   H4490     1.0  0.97572  0.60391  0.83437  1.0000
  H   H4491     1.0  0.81272  0.60495  0.96682  1.0000
  H   H4492     1.0  0.85489  0.45919  0.76312  1.0000
  H   H4493     1.0  0.87462  0.39295  0.71258  1.0000
  C   C2533     1.0  0.97312  0.44752  0.76110  1.0000
  H   H4494     1.0  0.93646  0.38022  0.60992  1.0000
  H   H4495     1.0  0.80449  0.37483  0.48708  1.0000
  C   C2534     1.0  0.85021  0.62113  0.96494  1.0000
  C   C2535     1.0  0.87779  0.44986  0.74868  1.0000
  C   C2536     1.0  0.86987  0.37872  0.74536  1.0000
  Fe  Fe285     1.0  0.95218  0.63982  0.86080  1.0000
  S   S571      1.0  0.92760  0.64676  0.87808  1.0000
  C   C2537     1.0  0.85208  0.63750  0.83730  1.0000
  H   H4496     1.0  0.98098  0.48145  0.83094  1.0000
  H   H4497     1.0  0.75497  0.34687  0.53172  1.0000
  H   H4498     1.0  0.96369  0.39065  0.75512  1.0000
  S   S572      1.0  0.73819  0.64954  0.82712  1.0000
  H   H4499     1.0  0.93200  0.43269  0.69989  1.0000
  C   C2538     1.0  0.90558  0.43058  0.68964  1.0000
  C   C2539     1.0  0.84449  0.46542  0.51247  1.0000
  N   N143      1.0  0.90367  0.39016  0.62493  1.0000
  H   H4500     1.0  0.85899  0.40854  0.74354  1.0000
  S   S573      1.0  0.93616  0.33872  0.69393  1.0000
  H   H4501     1.0  0.89394  0.39830  0.72631  1.0000
  H   H4502     1.0  0.76097  0.60744  0.91827  1.0000
  H   H4503     1.0  0.85102  0.38655  0.65784  1.0000
  C   C2540     1.0  0.89702  0.43819  0.70914  1.0000
  C   C2541     1.0  0.87366  0.41299  0.73543  1.0000
  H   H4504     1.0  0.93086  0.45283  0.68169  1.0000
  H   H4505     1.0  0.87169  0.45663  0.71665  1.0000
  H   H4506     1.0  0.91623  0.63662  0.78222  1.0000
  C   C2542     1.0  0.75782  0.60664  0.97342  1.0000
  S   S574      1.0  0.97558  0.38551  0.68080  1.0000
  C   C2543     1.0  0.96302  0.46816  0.78596  1.0000
  H   H4507     1.0  0.94415  0.37533  0.65708  1.0000
  C   C2544     1.0  0.97559  0.42705  0.73454  1.0000
  C   C2545     1.0  0.96480  0.44882  0.78474  1.0000
  Fe  Fe286     1.0  0.74542  0.62511  0.84547  1.0000
  C   C2546     1.0  0.91605  0.50023  0.58984  1.0000
  C   C2547     1.0  0.90468  0.38664  0.60163  1.0000
  H   H4508     1.0  0.86955  0.37823  0.54948  1.0000
  H   H4509     1.0  0.82728  0.38539  0.50888  1.0000
  H   H4510     1.0  0.91867  0.58245  0.52492  1.0000
  C   C2548     1.0  0.86986  0.46468  0.75708  1.0000
  H   H4511     1.0  0.87651  0.46920  0.77090  1.0000
  H   H4512     1.0  0.92789  0.50566  0.57614  1.0000
  S   S575      1.0  0.88555  0.34175  0.68123  1.0000
  H   H4513     1.0  0.87861  0.36685  0.52884  1.0000
  C   C2549     1.0  0.90436  0.57420  0.53163  1.0000
  C   C2550     1.0  0.96475  0.41360  0.77327  1.0000
  H   H4514     1.0  0.76652  0.48086  0.65299  1.0000
  C   C2551     1.0  0.96751  0.65352  0.91807  1.0000
  C   C2552     1.0  0.90116  0.63078  0.78481  1.0000
  H   H4515     1.0  0.89841  0.34954  0.57337  1.0000
  C   C2553     1.0  0.92003  0.61936  0.97571  1.0000
  H   H4516     1.0  0.84531  0.36478  0.52982  1.0000
  C   C2554     1.0  0.96595  0.57969  0.74021  1.0000
  C   C2555     1.0  0.98572  0.56489  0.77238  1.0000
  H   H4517     1.0  0.91260  0.41341  0.64110  1.0000
  H   H4518     1.0  0.89961  0.45132  0.60793  1.0000
  C   C2556     1.0  0.93526  0.38382  0.62657  1.0000
  H   H4519     1.0  0.91846  0.39372  0.59173  1.0000
  H   H4520     1.0  0.89502  0.39271  0.59332  1.0000
  H   H4521     1.0  0.95557  0.58434  0.75041  1.0000
  C   C2557     1.0  0.89963  0.42277  0.61447  1.0000
  C   C2558     1.0  0.85579  0.37759  0.52150  1.0000
  C   C2559     1.0  0.88425  0.33143  0.65746  1.0000
  C   C2560     1.0  0.74158  0.65345  0.91296  1.0000
  H   H4522     1.0  0.88329  0.40276  0.65918  1.0000
  H   H4523     1.0  0.73954  0.40342  0.54859  1.0000
  H   H4524     1.0  0.96400  0.58633  0.78293  1.0000
  C   C2561     1.0  0.96349  0.58374  0.71632  1.0000
  H   H4525     1.0  0.73844  0.65258  0.93104  1.0000
  H   H4526     1.0  0.92501  0.41564  0.61442  1.0000
  H   H4527     1.0  0.97316  0.57866  0.70547  1.0000
  C   C2562     1.0  0.88636  0.49987  0.51158  1.0000
  H   H4528     1.0  0.92216  0.44789  0.60635  1.0000
  H   H4529     1.0  0.91738  0.36995  0.56724  1.0000
  S   S576      1.0  0.80946  0.34025  0.56472  1.0000
  H   H4530     1.0  0.86381  0.60958  0.91398  1.0000
  H   H4531     1.0  0.78533  0.37460  0.54667  1.0000
  C   C2563     1.0  0.90788  0.44295  0.61551  1.0000
  H   H4532     1.0  0.97085  0.55907  0.77928  1.0000
  H   H4533     1.0  0.73828  0.41791  0.62352  1.0000
  H   H4534     1.0  0.97420  0.53349  0.80515  1.0000
  Fe  Fe287     1.0  0.73726  0.59624  0.88658  1.0000
  H   H4535     1.0  0.98538  0.45953  0.75526  1.0000
  H   H4536     1.0  0.94931  0.57654  0.71480  1.0000
  H   H4537     1.0  0.75184  0.52101  0.86109  1.0000
  H   H4538     1.0  0.92841  0.65249  0.94444  1.0000
  H   H4539     1.0  0.89634  0.65330  0.94283  1.0000
  C   C2564     1.0  0.80762  0.40363  0.48560  1.0000
  H   H4540     1.0  0.98269  0.37172  0.72330  1.0000
  H   H4541     1.0  0.79805  0.32790  0.50375  1.0000
  H   H4542     1.0  0.89911  0.33157  0.79745  1.0000
  C   C2565     1.0  0.83248  0.38786  0.49092  1.0000
  H   H4543     1.0  0.90839  0.62481  0.97905  1.0000
  H   H4544     1.0  0.98039  0.34745  0.77120  1.0000
  H   H4545     1.0  0.84176  0.40208  0.48668  1.0000
  C   C2566     1.0  0.74341  0.40047  0.56504  1.0000
  H   H4546     1.0  0.91130  0.32753  0.65414  1.0000
  H   H4547     1.0  0.76059  0.53794  0.81179  1.0000
  C   C2567     1.0  0.98266  0.59282  0.80503  1.0000
  Fe  Fe288     1.0  0.93090  0.32964  0.73070  1.0000
  H   H4548     1.0  0.97634  0.57870  0.81446  1.0000
  H   H4549     1.0  0.98126  0.62045  0.80924  1.0000
  H   H4550     1.0  0.97652  0.47849  0.78101  1.0000
  C   C2568     1.0  0.73941  0.59675  0.98020  1.0000
  C   C2569     1.0  0.98034  0.44091  0.69409  1.0000
  H   H4551     1.0  0.74558  0.41356  0.57158  1.0000
  H   H4552     1.0  0.75129  0.36445  0.56965  1.0000
  H   H4553     1.0  0.96044  0.32832  0.77431  1.0000
  H   H4554     1.0  0.95475  0.64361  0.91603  1.0000
  H   H4555     1.0  0.83980  0.48492  0.48704  1.0000
  H   H4556     1.0  0.85687  0.33353  0.65595  1.0000
  H   H4557     1.0  0.98153  0.39383  0.77152  1.0000
  H   H4558     1.0  0.74528  0.37447  0.54538  1.0000
  C   C2570     1.0  0.98228  0.64330  0.91873  1.0000
  H   H4559     1.0  0.98701  0.60459  0.73826  1.0000
  H   H4560     1.0  0.74374  0.63815  0.98069  1.0000
  H   H4561     1.0  0.76364  0.47110  0.48808  1.0000
  C   C2571     1.0  0.79915  0.57625  0.97861  1.0000
  H   H4562     1.0  0.83381  0.58426  0.98191  1.0000
  C   C2572     1.0  0.75527  0.45841  0.48350  1.0000
  C   C2573     1.0  0.81008  0.59492  0.98231  1.0000
  H   H4563     1.0  0.92599  0.65979  0.97730  1.0000
  H   H4564     1.0  0.77509  0.65505  0.98251  1.0000
  H   H4565     1.0  0.77706  0.76241  0.08497  1.0000
  H   H4566     1.0  0.74834  0.77640  0.06748  1.0000
  H   H4567     1.0  0.94953  0.68274  0.00506  1.0000
  H   H4568     1.0  0.75589  0.67533  0.03901  1.0000
  H   H4569     1.0  0.87531  0.66708  0.06271  1.0000
  H   H4570     1.0  0.76688  0.67106  0.99702  1.0000
  C   C2574     1.0  0.76392  0.66187  0.98483  1.0000
  H   H4571     1.0  0.74023  0.77320  0.03353  1.0000
  H   H4572     1.0  0.84294  0.66943  0.01101  1.0000
  H   H4573     1.0  0.74630  0.97548  0.00636  1.0000
  H   H4574     1.0  0.77234  0.78373  0.09020  1.0000
  H   H4575     1.0  0.78130  0.96326  0.00986  1.0000
  C   C2575     1.0  0.76047  0.97578  0.99931  1.0000
  H   H4576     1.0  0.75694  0.97214  0.08425  1.0000
  H   H4577     1.0  0.92832  0.68584  0.99748  1.0000
  C   C2576     1.0  0.74233  0.76186  0.07587  1.0000
  H   H4578     1.0  0.76857  0.97121  0.03135  1.0000
  H   H4579     1.0  0.74945  0.75372  0.06599  1.0000
  C   C2577     1.0  0.76760  0.96459  0.01660  1.0000
  C   C2578     1.0  0.74810  0.97551  0.07315  1.0000
  H   H4580     1.0  0.75801  0.95061  0.02176  1.0000
  C   C2579     1.0  0.93635  0.67575  0.00054  1.0000
  H   H4581     1.0  0.77323  0.76666  0.11269  1.0000
  C   C2580     1.0  0.76906  0.76872  0.09637  1.0000
  H   H4582     1.0  0.92837  0.66496  0.01460  1.0000
  C   C2581     1.0  0.74272  0.67608  0.04699  1.0000
  C   C2582     1.0  0.74856  0.75979  0.09854  1.0000
  H   H4583     1.0  0.74124  0.76607  0.11055  1.0000
  H   H4584     1.0  0.74081  0.69760  0.02187  1.0000
  H   H4585     1.0  0.74600  0.74505  0.10563  1.0000
  H   H4586     1.0  0.75991  0.96867  0.98494  1.0000
  C   C2583     1.0  0.90187  0.66598  0.93022  1.0000
  H   H4587     1.0  0.97744  0.66731  0.94434  1.0000
  C   C2584     1.0  0.74980  0.98938  0.86264  1.0000
  C   C2585     1.0  0.92015  0.67718  0.93459  1.0000
  H   H4588     1.0  0.92490  0.68992  0.92203  1.0000
  C   C2586     1.0  0.74948  0.97255  0.85559  1.0000
  C   C2587     1.0  0.96199  0.69167  0.92091  1.0000
  H   H4589     1.0  0.91750  0.68101  0.95099  1.0000
  C   C2588     1.0  0.95102  0.68152  0.96040  1.0000
  H   H4590     1.0  0.76150  0.97119  0.84540  1.0000
  H   H4591     1.0  0.94511  0.69348  0.95935  1.0000
  H   H4592     1.0  0.95497  0.70268  0.92266  1.0000
  H   H4593     1.0  0.96470  0.68677  0.96483  1.0000
  C   C2589     1.0  0.98273  0.70022  0.92024  1.0000
  C   C2590     1.0  0.96407  0.66137  0.93946  1.0000
  H   H4594     1.0  0.98622  0.66481  0.76822  1.0000
  H   H4595     1.0  0.98444  0.69359  0.85399  1.0000
  C   C2591     1.0  0.93447  0.66596  0.93349  1.0000
  N   N144      1.0  0.95288  0.67509  0.93857  1.0000
  H   H4596     1.0  0.96033  0.68846  0.90427  1.0000
  H   H4597     1.0  0.74348  0.66779  0.90465  1.0000
  H   H4598     1.0  0.98606  0.70110  0.93684  1.0000
  H   H4599     1.0  0.93601  0.66259  0.91668  1.0000
  H   H4600     1.0  0.75400  0.98846  0.95833  1.0000
  H   H4601     1.0  0.89182  0.67425  0.93086  1.0000
  H   H4602     1.0  0.97190  0.66440  0.90329  1.0000
  H   H4603     1.0  0.76379  0.67018  0.96882  1.0000
  H   H4604     1.0  0.74425  0.67041  0.86256  1.0000
  H   H4605     1.0  0.98322  0.72918  0.91543  1.0000
  H   H4606     1.0  0.75106  0.99181  0.91917  1.0000
  H   H4607     1.0  0.98507  0.71983  0.89039  1.0000
  C   C2592     1.0  0.93964  0.66689  0.98038  1.0000
  H   H4608     1.0  0.90356  0.66203  0.91371  1.0000
