data_image0
_chemical_formula_structural       H3CSH3C2H2C2HCHCH2CHCH7C2H2CSNCHCH5C2HC2H2C2H6C4H3CHCH5CH4C2H4CH3CH3FeS2FeSHFeSFeS3FeHSFeS2FeHCHS2FeS2FeS2FeSFeS3FeS2FeS2FeSFeHS2FeSFeS2FeSC2SHCFeS2FeSFeSH2SC2H3CHC4H3CHCH2CHCHC2HC4H5C3H5C6H4C6H4C3HC2H4C7H4C6H3C6H3C7H4C6H4C6H2CHCH2C2H8CH3CHCHCH4S2H2CNC11H26FeHCH3C2H2SCHCHCNC12H28NC8H3CH8NH12NH6NC5HC4HCH22CH8CH4CH2C2H2CH3CH2FeH10NHC3HC2H4C3SH2C2H6CH2CFeH13CSCH6SH2FeHSH4CHSH4CH4NHCHS2H2CH5C2NSHC2HCH2C2H3SNC3H6CH2C2H2CHC2H2C2SHCH3CFeC2H2C3HCHCH2CHCH3C3H7CSH2NCH2CHCHNC3H5CH2CH3FeC3HCHS2CH3CSCH4CHCH5NHCHC2HC3H6CNCHCHCH4C2H2CH4CHCH6CNSHFeCH8CFeS2FeSHFeSFeS3FeCSFeS2FeSH2S2FeS2FeS2FeSFeS3FeS2FeS2FeSFeS3FeSFeS2FeSFeHSC2FeS2FeSFeCHS2CHCH4CHCH3CH3C2H5CHC4H3CH2C2H5C6H4C6HSH2C2H2C2HCH3C6H4C3FeC2H3C6H4C6H4C6H4NC12H28C2H7FeH6C3H3C3NCH2CH3C2H5CFeSH3SH2NH4CH2CH6C3HCHC2H3CHSH2CH3C2SHNC12H28FeH3C3HCHC2HC2H2CH3SHCHCH2CHC2H3CH6CHCHSCHCH3CH3CH2CH9CH4CH2CH3C4H5C2H2NC2H2C5H5CH4CHCHC2H12FeHC2NH4CSNCHCHC7HCHC2H2CH7CHSC4H10CH4SHC2NHC2H4CHCH3FeH3CHCH3C3HCS2NHSH2CH2CH2CH3CH2SH2C3H8SHCH3CHCH2C2HCFeH4SHCH3CHC2H11CH5CH6CH3CH3CH2NHSHSCHCHFeS2H2C6H7CHCH6CH3CFeC2HCHSCH3CHCH6CHSH5FeC2H3NC12H15SCH6CH3C2HCH2SCFeH4FeS2FeHC6H4C2H2SHCH5SHCH6CH7CHC3H3SH2NCSC2HNHCHC2H2CSH5C4HCH2CH3CHC2H4CH2C2H5NC2HC3H2NH4CHCH5C2SH4CHCHNHCHC2HCH2CH2CH2CHCH2CH3CH2FeSFeS2FeSFeS3HFeS2FeSHFeSFeS3H5FeSFeS2FeSFeS3FeS2FeS2FeSFeS3FeS2FeH2FeSFeS3HCSC2HC6H4C6HCH2C6H4C6H4C6H4C5H5CH2CH4FeC7FeH3C6H4C2H2C2H4C6H4C4H5C2H2CH3CHSH3CHCH4CNC12H19CHCH7SC2H3CH2CHCHC4H2CH3CHC2H4CH4CHSH3CHC3H2NC8HC3H14SH13NC9FeH12CH10C3NC10H22C5H3CHSCH3SC2FeHCSCHCSC3H3CH2CH5CH5CHCFeC2SH4CH4C2H2CHFeH3CHCHCH3CHCH4CH8CH3CH4C5H9C2HCHCFeCHC2H2C5HC2H2NHC3H2C2NH13CH4CHC2HCFeH2CH3CHCNHC2SHSH3NH2NH4CHFeHCSCH5C2H5CHC2H7FeSCHC2HC3H3CH7CNH3CHNCHCH4SH2CH3CHC2H2C2HC2NCSNCH4SH4CH2C2HCH2SH2CH2SHFeHCH3CHCHSCHSCHFeHCHCH3CH3CHCH8CHSH7CH4SH5CH8SH3SC3HCH3CH2C3NH10NSH5CH4CH3C3H3CH3CHCHCH2CHCFeSFeS2FeSFeS3HFeS2FeSHFeSFeS3FeSCHSFeSFeS2FeSFeS3FeS2FeS2FeSFeS3FeS2FeH2FeSFeS3FeHSH3C3HC2H4C3HC2HSCHC6H4C6H4C6H4C6H4C2H7C9H2C6H4C2HNC2H4C6H4CH2CH3CNC10H10CH4CH2CH4NC12H18CH3CH2NC12H28CNHC2H2CH3CH8CH7CH3NH2C2HCSHNC8H2C2H19CH8NC5HC2HCH12C4H3C3FeC2HC3H6CH5CH9SC2H3CH5CH4SHSHCH7CHCHC3N2CH2CHCSH7CH2CSNC2H2CH2FeH6FeHCH2CH7CH2C2NH5C2HC2H3C2H4CH2SC2HC3HCH2FeCFeH3NC2H4CHC3H3NC2SHCH4CHSHCH3C2H4C2SH4CH2CH2CHCH2NCH5CHC2HCH2FeSC2H3CSHCHCH8CH8CHCHSH4CH3C3HCSC2H2CH5CH2C2H2C2H4CH3SH2CHCH3CH2CHCH2C2H2C2H5CH10CH5CHCSH3S2H4CHSH3CHFeH5FeHCSC2HCH9CH3CH4SC2FeH2CH2CHNC2H2CH2C2SH4NHCHC2H2SHCH2CH2CH3CHCH2CHC2HCHCHCH3CH5CH3SH2NH4CFeSCFeSHFeS2FeSFeS3FeS2FeSHFeSHCSHFeS2FeS2FeSFeS3HSFeS2FeSFeHS2FeS2FeS2FeSFeS3C3H3C2H4C6H4C6H4C2HSC2H4C6H6CH3C4HCH2C7H4C7H5C4H2C6H6CH5C3HCHCHC4H3CHC2H3NCHC8SH11FeH9CHNC4HC3HC3H8C2H5CH3CH6CH3CH2C2HCHCH4CH6CHCH2NH5CHCH2CH4C2H3C2H6FeC2H2C2H3CH2NC2HC2H4CH5CH3CH5CH2C3HC4HCHCH2C2H6CH8CH3FeH2CHCH3NCH5C2H2C2H6C2H3C2H2C3H2CH4CSHCFeCHC3H4CH9CNH2C3H2NCHCH2SHNCHCHC3H3CHCSCHC3H4CH3CHCH9CHCH2CHCH3C4H8C2H2SHCHCHNCHCH2C2HC2NHC4H4CHCH4C3HCHC2H4CHSH3NHCHC2H4CHCHC4H3CH5C2SCHNH3C2HC2HC2HCH9SHCHCH4SC2H3CH4CH5C3H2CH3CH6C4HSC2HCH2CH4CH2NHFeNH2CHCHCHCH2CH4CH3CH7CH5CH4CH2SH12CHNCH2CHSH2CH5C2H2C2H9SHFeCSH2CH2NH9CSH3CH6CH2C2H3CH2SH2C2HC2SHC2HSHFeS2FeSFeS3FeS2FeSHFeSHCSCFeS2FeS2FeSFeS3FeSFeS2FeSFeHS2FeS2FeS2FeSFeS3H3CH2C2H4C6H4C6H4C6HCH2C6H5C2H4C2HCH2C8H4C6H6C3HCH2C5SCH9C4HCH3C4H5C2NH6SCH2CH2C2H3C2H2C2HC2H2CH3CH2CH4CHC2H3CHC6H7NC5HC4HCH11CH16CNCH3C2H4C2H5NHCH4CH4C3H5CH2NC4HC3H2C2H14FeHCH2CH2CH7CH2CH2CFeH5FeH2CHC2HCFeCH2CHCH2CSCHSH3C2H6CH2CH4CH3CHC2H7SCSCHCNCH4CH3C2H4CH2CFeHC5H2CH3C3H6C4H4CH3CHCH3NH4C2H3CH2CH3CH3NH2CHSC2H4CHCH2CHCH6SCH5CHCH2C2H3CHCH3SHCHCHCH2FeSNH3CSH3CH2CH2SCHCH3NCH7C3NH6CH3CHCH3CH3CH2CSC2H5FeC2H4CH5CNC3HCH3NCSH2CHC2H5CH2CHSH5CHCH3CNHC3H3CH3CNCH2CH4CH4C2HC2H3C3HC2H2C2HC3H2CH5CHCH3CH2SC3H2C2H3CHCHCH7CH2NH2CHSH4CSCH5CSHNH2CH2FeS2FeS2FeSFeHS2H2CH2SFeSHFeS2FeS2FeSFeS3FeS2FeSHFeSFeS3C6H4C3HC2H4C6H4C6H3CH2FeCH2CH2C6HCH2C6H8CHCH10CHC6H6C2HCH5CH3CH3CHC2FeH2CSC3FeC4H4CNC5HC4HCH22C2H4CH4C4H3CHCHNC7H3C2H9CH6CH2CH10C2H4CH2C2HCH5C2SC3H3CH3C2H5NC12H28NC6NC4H14CH12SC2S2CNH2SCH3FeHCH7C2FeNCH4C2HCH5C2H5CHCH2CSC2HCSCH8CH4CH6CH2CH2CH6CH2CHNH3C2HC2H3CHC3HCHCHC2H3CH3SCHCH5CHCSH2CHSHC3SH6CH2CFeS2FeS2FeSFeHSH3SHCHFeSHFeS2FeS2FeSFeS3FeS2FeSCFeSFeS3C6H4C2SNC2H4C6H4C6H5CHCH5C2HSC2HCH2C6H5C2H2CH7CH3CHC6H9CH5SHC2H3SH3C3H3C2HC5H11CH3CSCHCH5SH3C3HCHC3H2CHCH2C4H4CH7CH3CHCNC9H18C3H2CHC2H6SCHC2HCH6CH3C2H2CH5CH2CN2SCH3CH4SH3CHCHNCH3CH2FeCH3C2HCHCH2CHFeH3C2H4NC3HSCH4NH8CHCH4CH4C2H3CH2C2H6CH3CSFeHCH2C4H2FeC2HNFeH9C2H2CH3CHCHCH12CHNHC3HCHCH8CH2C2H2CH5CHC3H2SH2CHCNHCH5C3FeHCFeH6C2HFeCH5CH2C2H3CH2C4HCHSH5CH2CHCH2CH2FeSHSCS2Fe3SFeS2FeS2FeSFeS3FeS2FeS2FeSFeS3HFeSCSHFeSHCHFeHSHFeHFeCH2SC7HSH2SH5CH2SHSH3C2FeCHCSHC6H4C6H4C6H4C6H5SCHCH4C7H4CHC3H4CH2SC2H3C2NC4HC4HC2H8CH6CH7NH4C2H3NC2HC4H2C2H3NH13CSH9CH2CH3SC3H7SCNSHC3H3C2H2CHCHC3H5CHCH2CHCHC5HCH2FeH3CHSH5SCHCH3C4HC3HNSCHCHCH2CH4CHFeHCHCH7C3HCHCH2CH3CH2CHC2HNSHSH5CH2CH4FeH5CHCH3CH3CHCHCH3FeH2C2HCHFeSH2NHCH6CHFeC2H2C2HSH4C4H3CHNHCHFeSHCSH3CNCH2C3H10CH2SH2CNC2HCHSCHC5H2SH9C2S2CFeHCHCH5FeH3FeHCHCHCHC2H4CH3FeH2SHCSHC2HCH4CHCHC2H5C3HC2HC3H2CHCHC2HCH4CNCSN2CHCH3C2H10C2SHFeH4CS5CH3C2FeCHCH2NHFeHCHC2H7CH4SH2CSHC2HC3HC4H6FeHCSHFeC2HCH4CHCH3FeCH2CH2CHSHCS2H4C3HCH3S2CHCSH5SHC3H4C2H2NCHC2H7C2HFeCS2HCH5CH6CH2C2HCH2CHCH3SH2CH5CH4CH2C2HSH5C2H6C2H3CH2C2HCHCH2SC2H3CH2SCH5CHC2SHCHC2HCH2CH4CHCHCHSHC2HCH6CH5CH2C3FeH4NFeS6FeCFeSFeS2FeS2FeSFeS3FeS2FeS2FeSFeS3CFeSH2CFeSCHSFeHSHSCFeH3SHC6H2NCHSH3S2HSCH4FeCSC2SCH2C6H4C6H4C6H4C6H4CH3CH5C6H4CHC3H4C2H2S2H3C3H5CH3C2HCFeCHC2H3SNC2H2CH3NHNC8HC3H15C2H7CH4S2H3NC5H5CH6NHCNC12H30CH3CH3CH2CH7CHC2H2CHNCHSH4CH4CHC4HCH2C4H5CH4CH3CH4CSHCHSCSHSCHC2NH6CH2CHC2H5C3SH2FeCH2FeH2CHCH2FeHSH4FeC2HC2H4NHCH5C4H4C2SFeCH3SCH6C2HSFeHC3HCH2SH2C3H2CFeCH2C2SH3CH3C3H4CH2C4HC2H7CFeCHC3HC2H3SC2HC3H4CHCSCH4FeCH4C2HC2HCSH5SHCNH6CH2SCH2SH3CH2SH5C2H4C2H2CH2C2H2C2NH5C2H2CFeC3FeC4NCHCHC2H2FeC2HCH2C2H2CH3CH2CH5CHCH2CH8C3HSC2H3C3FeHSC2H6CFeH3CH4CH2FeCHCHSH4C2SCH4C2HCH3CHCH4CHCH2NH4NC2SC2H3CHCHCHFeCH8SH2SCH2CHSHCH2CH3CH2CHC2H2CH7C3SH3CHCH4CH6CHC2H4CHCH8CHNCH3CH3CH12CH4CH2CH4CH5C3HCFeCH7CH4CH5NC5H3CH3FeHCFeS2FeHFeHS2FeS2FeS2FeSFeS4HSHFeHFeSC3HCHCHSH2C2H2CFeH2CH2SH3C6H4C6H6SC3H4C2H2CH5CHC6H7C2H5CH2CH10CH2CHCHC3SCFeH3CH3C4H3NH2CH7NHSHC2HCHC3H4SH9SHCH3CHCH5CH3C4H5C4H3C3NCHCHSCSCH6SC2H3CH2CH2NH3CH3C3H6FeS2FeSFeS3FeS2FeS2FeSFeS4FeSHCHFeSCH2CHSH6C2H7CH2CHC4HCH4C6H6C3HCH2CH3C2H2CH3C7H5CHCHCHCH4CH3NHNH2C2HCH2C2H3CH4NCH2CH5C3HC3H4CHCH3CH3C3H4NH6CH6CH4CHC3H3CH2C3H2NSCHCH3C2H2CH5CH3CFeHCH2SCH2CH6CH5SCHCHCHC2H3NHCH4C3H2CHSHSH3CH5CHCFeCH4C4H3C2H2CHC2HC2H2CH3CH3CH2CH2FeCS2FeH2SCHSHSCSH4FeCHSHCFeCHC5HCHC2H2SNH3CHCH4C2SC2HCSHCH3CFeH2CH6FeH2CHCH3CH2CFeHCH2C2FeHSNH4CH3CHSHCH5C4FeCHCHC2H3C3FeH3CHSCS2CSCSHCHCH3SHC2HCH3FeH7CH3CH4SHCH2SH3CH3CHFeCSFeS2FeSH2S2FeSFeS2FeS3FeS2FeS2FeSFeHS2FeSHFeS2FeSFeS3HSHSHFe3SHFeSHFeS2FeSFeS3C6H5C5H4C6H4C6H4C6H4C3H2C3H3CH11CH2CH2C6H4C6H4C6H4CHCH2CH4C3HCH7C2HCHCHCH8CH2C2H8CH2CHCHCHCH3CHCH4C2H7FeH4CH2CHCH2C3H2C2HC4SHC2H7NH5NH2CH8CHSHC4H6CH2CH2SHC3NH11CH3CH5NH3C2H3CH8CNH2C5H2C2H2CH3CH2C3H2NC4HC4H2CHCH6CH7SH2NH2SC2H3NC12H23C4SH2C2HSHC3H3NCH4NCH13CH3SH2CH5CH2C2HCH3C2HC2FeCHS2CFeHNC2H2CHC3H2C2H4C3SC3HC2HC2H2CH2CH3CH3C3H3CH2CH5CH2CH8CNCH3SCHCH3FeHCHCH2FeH2FeS2FeSC2S2FeSFeCSFeS2HFeS2FeS2FeSFeHS2FeSCFeS2FeSFeS3FeSFeSH3FeS2FeS2FeS2FeSFeS3C6H6C4H4C6H4C6H3C7H6CH3C2HCH2CH4CHCHC2HCHCH2C6HCH2C6H4C6H12CH2C3H2SNC4HCHC2H7NCH8C2HCH2CH3NH4SH2CH3C3H2CHC2H6C2HCHCNC7HC2HCH15CH17CH3CHSH4NHCHC3H8CH4FeH2SHCH4CHCH2C2H2CHCH6CHCH4S2C2HCNC12H28NC3HC3HC2H7CH2SCHSH2SCH3C3H5CH3CHCH4C2HC2HCH7C2H3C2HSH2CH4SHCH2C3H3SCH2CHFeHNH2CH3CHNH3C3H3CH2C2H2CH3CH2CH3CH2C3HC2HCHC2H10CHNHCH3CHCHC2HC3H13C2H4CH4CH7CH2CH3CSHSFeSHFeS2FeS2FeCFeS3H3CHCH2CH4NH5C4HC6H3C6H11CHC3HNCNH5CHC2H3CSHCHCFeHSC2HCH2C2H6CHCHCH4FeH3FeHCHCH5CH2C2HCHCSH4C3HCH2CH3CH8SC2H2CH4CH3CH2CH2C5H2C2H6CHSH8SFeS2FeS2FeS2FeHFeS3H2CNH5CHSH2CHSC3HC9H3C6H5CHCNCH3CH3CH8CH4CH2CFeC2HCH4C3H4CHSCHC2H2CH2C2HCH4SC2H4CH5CH2Fe2NH2C2H5CH5CHCHCHC2HNCH2CH6C2HC3H3CH4C2H5C2H8C2H6CNHC2H4CH3
_chemical_formula_sum              "H6144 C3456 S768 N192 Fe384"
_cell_length_a       120.799
_cell_length_b       120.166
_cell_length_c       49.6727
_cell_angle_alpha    78.0595
_cell_angle_beta     78.1514
_cell_angle_gamma    101.604

_space_group_name_H-M_alt    "P 1"
_space_group_IT_number       1

loop_
  _space_group_symop_operation_xyz
  'x, y, z'

loop_
  _atom_site_type_symbol
  _atom_site_label
  _atom_site_symmetry_multiplicity
  _atom_site_fract_x
  _atom_site_fract_y
  _atom_site_fract_z
  _atom_site_occupancy
  H   H1        1.0  0.03185  0.49752  0.11902  1.0000
  H   H2        1.0  0.06897  0.49434  0.44135  1.0000
  H   H3        1.0  0.03850  0.49719  0.05576  1.0000
  C   C1        1.0  0.00609  0.49123  0.16758  1.0000
  S   S1        1.0  0.01642  0.50226  0.17567  1.0000
  H   H4        1.0  0.05315  0.50104  0.10025  1.0000
  H   H5        1.0  0.01345  0.48736  0.09321  1.0000
  H   H6        1.0  0.10427  0.49318  0.44541  1.0000
  C   C2        1.0  0.00920  0.48191  0.15762  1.0000
  C   C3        1.0  0.10275  0.49320  0.46823  1.0000
  H   H7        1.0  0.01852  0.48854  0.05677  1.0000
  H   H8        1.0  0.01801  0.48094  0.15569  1.0000
  C   C4        1.0  0.03506  0.49378  0.10119  1.0000
  C   C5        1.0  0.04724  0.49238  0.10241  1.0000
  H   H9        1.0  0.00332  0.50125  0.04935  1.0000
  C   C6        1.0  0.00286  0.49458  0.06888  1.0000
  H   H10       1.0  0.02939  0.48483  0.10479  1.0000
  C   C7        1.0  0.03537  0.50176  0.07200  1.0000
  H   H11       1.0  0.12176  0.49869  0.46038  1.0000
  H   H12       1.0  0.04677  0.48648  0.12325  1.0000
  C   C8        1.0  0.00087  0.47370  0.15045  1.0000
  H   H13       1.0  0.05094  0.48855  0.08518  1.0000
  C   C9        1.0  0.01512  0.49345  0.07183  1.0000
  H   H14       1.0  0.08077  0.49404  0.47728  1.0000
  H   H15       1.0  0.09056  0.49740  0.42548  1.0000
  H   H16       1.0  0.00347  0.46662  0.14257  1.0000
  H   H17       1.0  0.09584  0.48498  0.47977  1.0000
  H   H18       1.0  0.03047  0.49960  0.01797  1.0000
  H   H19       1.0  0.00082  0.48157  0.22929  1.0000
  H   H20       1.0  0.11677  0.47855  0.45361  1.0000
  C   C10       1.0  0.11640  0.47997  0.47515  1.0000
  C   C11       1.0  0.11427  0.49202  0.47613  1.0000
  H   H21       1.0  0.99948  0.49081  0.25338  1.0000
  H   H22       1.0  0.12488  0.47947  0.48009  1.0000
  C   C12       1.0  0.01552  0.49191  0.63085  1.0000
  S   S2        1.0  0.02753  0.49314  0.67359  1.0000
  N   N1        1.0  0.02300  0.32374  0.56946  1.0000
  C   C13       1.0  0.01577  0.48749  0.65906  1.0000
  H   H23       1.0  0.00591  0.30588  0.52000  1.0000
  C   C14       1.0  0.00588  0.48727  0.62077  1.0000
  H   H24       1.0  0.00324  0.32020  0.50842  1.0000
  H   H25       1.0  0.11421  0.49302  0.49782  1.0000
  H   H26       1.0  0.02636  0.34222  0.54871  1.0000
  H   H27       1.0  0.02620  0.31548  0.52013  1.0000
  H   H28       1.0  0.05479  0.35624  0.56003  1.0000
  C   C15       1.0  0.01955  0.32065  0.52119  1.0000
  C   C16       1.0  0.02940  0.31414  0.57302  1.0000
  H   H29       1.0  0.03728  0.34087  0.58906  1.0000
  C   C17       1.0  0.04780  0.35295  0.55002  1.0000
  C   C18       1.0  0.03136  0.33548  0.55317  1.0000
  H   H30       1.0  0.01048  0.48473  0.75273  1.0000
  H   H31       1.0  0.04485  0.30153  0.61839  1.0000
  C   C19       1.0  0.00170  0.31461  0.64548  1.0000
  C   C20       1.0  0.08801  0.49348  0.52618  1.0000
  H   H32       1.0  0.00817  0.31207  0.56289  1.0000
  H   H33       1.0  0.04990  0.30744  0.58035  1.0000
  H   H34       1.0  0.00711  0.48900  0.78560  1.0000
  H   H35       1.0  0.01401  0.31548  0.48567  1.0000
  H   H36       1.0  0.03885  0.31979  0.60394  1.0000
  H   H37       1.0  0.00635  0.47466  0.69854  1.0000
  C   C21       1.0  0.04199  0.30338  0.59841  1.0000
  C   C22       1.0  0.00128  0.49864  0.75142  1.0000
  C   C23       1.0  0.08684  0.49519  0.55620  1.0000
  C   C24       1.0  0.00624  0.47832  0.67681  1.0000
  H   H38       1.0  0.04194  0.35899  0.54972  1.0000
  H   H39       1.0  0.02369  0.32973  0.50760  1.0000
  H   H40       1.0  0.03733  0.29490  0.59560  1.0000
  C   C25       1.0  0.00572  0.31434  0.61442  1.0000
  H   H41       1.0  0.02371  0.30554  0.57329  1.0000
  C   C26       1.0  0.01006  0.31521  0.50815  1.0000
  H   H42       1.0  0.09116  0.48545  0.52569  1.0000
  H   H43       1.0  0.00876  0.32727  0.55138  1.0000
  H   H44       1.0  0.01274  0.33286  0.59390  1.0000
  H   H45       1.0  0.03698  0.31599  0.55417  1.0000
  H   H46       1.0  0.00596  0.49065  0.59878  1.0000
  C   C27       1.0  0.01431  0.32088  0.55231  1.0000
  H   H47       1.0  0.03625  0.33499  0.53205  1.0000
  H   H48       1.0  0.05198  0.35310  0.52777  1.0000
  H   H49       1.0  0.00788  0.30582  0.61397  1.0000
  H   H50       1.0  0.08077  0.48727  0.57202  1.0000
  C   C28       1.0  0.04096  0.34046  0.56705  1.0000
  C   C29       1.0  0.03395  0.31168  0.60022  1.0000
  H   H51       1.0  0.04736  0.33500  0.56714  1.0000
  H   H52       1.0  0.00663  0.49599  0.70934  1.0000
  H   H53       1.0  0.02282  0.49879  0.61666  1.0000
  H   H54       1.0  0.00873  0.31372  0.65650  1.0000
  C   C30       1.0  0.01626  0.32493  0.59747  1.0000
  H   H55       1.0  0.02653  0.30741  0.61934  1.0000
  H   H56       1.0  0.01884  0.49842  0.75608  1.0000
  H   H57       1.0  0.09545  0.49661  0.56137  1.0000
  C   C31       1.0  0.00997  0.49232  0.76205  1.0000
  H   H58       1.0  0.02204  0.32654  0.61168  1.0000
  H   H59       1.0  0.07912  0.49203  0.52266  1.0000
  H   H60       1.0  0.10935  0.47286  0.49115  1.0000
  Fe  Fe1       1.0  0.13765  0.63597  0.40023  1.0000
  S   S3        1.0  0.14727  0.65027  0.36087  1.0000
  S   S4        1.0  0.14050  0.61780  0.40548  1.0000
  Fe  Fe2       1.0  0.12415  0.65137  0.42707  1.0000
  S   S5        1.0  0.13231  0.66678  0.38803  1.0000
  H   H61       1.0  0.17048  0.68154  0.45658  1.0000
  Fe  Fe3       1.0  0.12937  0.65345  0.36153  1.0000
  S   S6        1.0  0.12282  0.65527  0.32000  1.0000
  Fe  Fe4       1.0  0.14955  0.66222  0.39043  1.0000
  S   S7        1.0  0.16773  0.67259  0.39313  1.0000
  S   S8        1.0  0.11988  0.63882  0.40064  1.0000
  S   S9        1.0  0.14116  0.64720  0.42990  1.0000
  Fe  Fe5       1.0  0.06198  0.51758  0.12955  1.0000
  H   H62       1.0  0.21732  0.67101  0.33390  1.0000
  S   S10       1.0  0.07541  0.51658  0.09064  1.0000
  Fe  Fe6       1.0  0.05165  0.53533  0.15322  1.0000
  S   S11       1.0  0.04116  0.52208  0.19349  1.0000
  S   S12       1.0  0.05006  0.55395  0.14740  1.0000
  Fe  Fe7       1.0  0.05770  0.51623  0.19433  1.0000
  H   H63       1.0  0.23646  0.59252  0.04793  1.0000
  C   C32       1.0  0.15297  0.60948  0.46675  1.0000
  H   H64       1.0  0.18061  0.58955  0.20641  1.0000
  S   S13       1.0  0.06830  0.53006  0.15464  1.0000
  S   S14       1.0  0.04600  0.52396  0.12548  1.0000
  Fe  Fe8       1.0  0.06570  0.61563  0.18160  1.0000
  S   S15       1.0  0.07724  0.61291  0.14327  1.0000
  S   S16       1.0  0.04555  0.61160  0.18835  1.0000
  Fe  Fe9       1.0  0.08737  0.62489  0.20565  1.0000
  S   S17       1.0  0.09999  0.62255  0.16782  1.0000
  S   S18       1.0  0.09302  0.62788  0.24685  1.0000
  Fe  Fe10      1.0  0.08932  0.63018  0.13983  1.0000
  S   S19       1.0  0.09704  0.64344  0.09579  1.0000
  Fe  Fe11      1.0  0.08684  0.60557  0.17370  1.0000
  S   S20       1.0  0.09167  0.58878  0.17036  1.0000
  S   S21       1.0  0.07732  0.63371  0.17710  1.0000
  S   S22       1.0  0.07477  0.60712  0.21257  1.0000
  Fe  Fe12      1.0  0.10752  0.56670  0.36354  1.0000
  S   S23       1.0  0.09167  0.55226  0.36904  1.0000
  S   S24       1.0  0.10670  0.58553  0.35495  1.0000
  Fe  Fe13      1.0  0.12355  0.55069  0.36898  1.0000
  S   S25       1.0  0.10887  0.53448  0.37476  1.0000
  S   S26       1.0  0.14288  0.55105  0.36621  1.0000
  Fe  Fe14      1.0  0.10318  0.54512  0.33892  1.0000
  S   S27       1.0  0.09848  0.54122  0.29783  1.0000
  Fe  Fe15      1.0  0.09804  0.54261  0.40442  1.0000
  H   H65       1.0  0.07818  0.55638  0.30517  1.0000
  S   S28       1.0  0.11879  0.56057  0.33115  1.0000
  S   S29       1.0  0.11297  0.55774  0.40104  1.0000
  Fe  Fe16      1.0  0.22916  0.59302  0.38850  1.0000
  S   S30       1.0  0.23386  0.61267  0.37525  1.0000
  Fe  Fe17      1.0  0.20260  0.59121  0.39368  1.0000
  S   S31       1.0  0.20639  0.61100  0.38142  1.0000
  S   S32       1.0  0.18251  0.58367  0.40521  1.0000
  Fe  Fe18      1.0  0.22157  0.61050  0.34753  1.0000
  S   S33       1.0  0.22611  0.62279  0.30340  1.0000
  C   C33       1.0  0.16814  0.69660  0.47201  1.0000
  C   C34       1.0  0.17153  0.61621  0.39863  1.0000
  S   S34       1.0  0.21755  0.59079  0.35821  1.0000
  H   H66       1.0  0.05550  0.54366  0.35187  1.0000
  C   C35       1.0  0.23284  0.69976  0.25909  1.0000
  Fe  Fe19      1.0  0.23077  0.63725  0.11308  1.0000
  S   S35       1.0  0.21571  0.62111  0.13026  1.0000
  S   S36       1.0  0.22841  0.65564  0.10652  1.0000
  Fe  Fe20      1.0  0.22779  0.61366  0.15360  1.0000
  S   S37       1.0  0.22308  0.60146  0.19783  1.0000
  Fe  Fe21      1.0  0.22455  0.61518  0.09320  1.0000
  S   S38       1.0  0.21439  0.60490  0.06875  1.0000
  H   H67       1.0  0.12592  0.56106  0.46833  1.0000
  H   H68       1.0  0.11769  0.57415  0.43703  1.0000
  S   S39       1.0  0.23526  0.60630  0.11817  1.0000
  C   C36       1.0  0.03760  0.59325  0.16430  1.0000
  C   C37       1.0  0.01397  0.55705  0.21318  1.0000
  H   H69       1.0  0.13466  0.66214  0.03048  1.0000
  H   H70       1.0  0.14228  0.63949  0.04969  1.0000
  H   H71       1.0  0.01860  0.51600  0.03681  1.0000
  C   C38       1.0  0.19972  0.66491  0.36010  1.0000
  H   H72       1.0  0.07886  0.57606  0.26492  1.0000
  C   C39       1.0  0.14075  0.64810  0.05186  1.0000
  C   C40       1.0  0.18867  0.59595  0.20626  1.0000
  C   C41       1.0  0.05484  0.57012  0.26022  1.0000
  C   C42       1.0  0.03479  0.60171  0.17819  1.0000
  H   H73       1.0  0.16712  0.60009  0.43323  1.0000
  H   H74       1.0  0.16342  0.66317  0.01453  1.0000
  H   H75       1.0  0.04644  0.59232  0.16037  1.0000
  C   C43       1.0  0.23527  0.66407  0.12630  1.0000
  H   H76       1.0  0.19060  0.57046  0.01949  1.0000
  C   C44       1.0  0.10056  0.58939  0.46165  1.0000
  H   H77       1.0  0.08053  0.60707  0.02520  1.0000
  H   H78       1.0  0.02681  0.51149  0.99738  1.0000
  C   C45       1.0  0.23767  0.67637  0.11789  1.0000
  H   H79       1.0  0.01566  0.56116  0.19012  1.0000
  C   C46       1.0  0.05546  0.58136  0.27117  1.0000
  H   H80       1.0  0.00685  0.52400  0.25325  1.0000
  C   C47       1.0  0.10695  0.51507  0.45351  1.0000
  C   C48       1.0  0.22560  0.61680  0.27400  1.0000
  H   H81       1.0  0.06673  0.55608  0.35257  1.0000
  C   C49       1.0  0.22531  0.61958  0.22412  1.0000
  C   C50       1.0  0.22429  0.60760  0.22665  1.0000
  C   C51       1.0  0.22404  0.60025  0.25280  1.0000
  C   C52       1.0  0.22465  0.60482  0.27644  1.0000
  H   H82       1.0  0.23849  0.68502  0.31272  1.0000
  H   H83       1.0  0.22331  0.59097  0.25481  1.0000
  H   H84       1.0  0.22439  0.59908  0.29651  1.0000
  H   H85       1.0  0.21978  0.69011  0.01697  1.0000
  H   H86       1.0  0.12988  0.52799  0.42316  1.0000
  C   C53       1.0  0.22680  0.61888  0.01506  1.0000
  C   C54       1.0  0.21832  0.60861  0.03112  1.0000
  C   C55       1.0  0.21257  0.60120  0.01702  1.0000
  H   H87       1.0  0.18206  0.60598  0.41615  1.0000
  H   H88       1.0  0.19366  0.62245  0.42442  1.0000
  H   H89       1.0  0.23127  0.62463  0.02567  1.0000
  H   H90       1.0  0.20602  0.59324  0.02932  1.0000
  H   H91       1.0  0.02523  0.54553  0.18338  1.0000
  C   C56       1.0  0.15380  0.56050  0.37652  1.0000
  C   C57       1.0  0.16543  0.55955  0.36986  1.0000
  C   C58       1.0  0.17433  0.56664  0.37808  1.0000
  C   C59       1.0  0.17175  0.57483  0.39310  1.0000
  C   C60       1.0  0.16010  0.57574  0.39993  1.0000
  C   C61       1.0  0.15121  0.56872  0.39153  1.0000
  H   H92       1.0  0.16756  0.55315  0.35856  1.0000
  H   H93       1.0  0.18315  0.56558  0.37341  1.0000
  H   H94       1.0  0.15790  0.58185  0.41203  1.0000
  H   H95       1.0  0.14233  0.56956  0.39698  1.0000
  C   C62       1.0  0.08835  0.53329  0.28187  1.0000
  C   C63       1.0  0.09079  0.53561  0.25189  1.0000
  C   C64       1.0  0.08300  0.52989  0.23820  1.0000
  C   C65       1.0  0.07256  0.52158  0.25418  1.0000
  C   C66       1.0  0.07017  0.51919  0.28417  1.0000
  C   C67       1.0  0.07792  0.52500  0.29787  1.0000
  H   H96       1.0  0.09880  0.54192  0.23907  1.0000
  H   H97       1.0  0.08518  0.53178  0.21522  1.0000
  H   H98       1.0  0.10004  0.68160  0.41800  1.0000
  H   H99       1.0  0.07582  0.52300  0.32085  1.0000
  C   C68       1.0  0.07678  0.52327  0.05414  1.0000
  C   C69       1.0  0.08709  0.52420  0.03353  1.0000
  C   C70       1.0  0.08852  0.52945  0.00437  1.0000
  H   H100      1.0  0.18793  0.60505  0.19837  1.0000
  C   C71       1.0  0.06929  0.53286  0.01607  1.0000
  C   C72       1.0  0.06788  0.52764  0.04520  1.0000
  H   H101      1.0  0.09402  0.52078  0.04013  1.0000
  H   H102      1.0  0.19620  0.59463  0.19124  1.0000
  H   H103      1.0  0.06235  0.53622  0.00946  1.0000
  H   H104      1.0  0.05991  0.52699  0.06072  1.0000
  C   C73       1.0  0.15789  0.66803  0.00390  1.0000
  C   C74       1.0  0.06172  0.56366  0.15334  1.0000
  C   C75       1.0  0.05974  0.57334  0.16322  1.0000
  C   C76       1.0  0.06892  0.58114  0.16835  1.0000
  C   C77       1.0  0.08013  0.57920  0.16372  1.0000
  C   C78       1.0  0.08209  0.56944  0.15413  1.0000
  C   C79       1.0  0.07290  0.56171  0.14892  1.0000
  H   H105      1.0  0.05102  0.57463  0.16742  1.0000
  H   H106      1.0  0.06723  0.58847  0.17650  1.0000
  H   H107      1.0  0.09071  0.56783  0.15085  1.0000
  H   H108      1.0  0.07443  0.55423  0.14163  1.0000
  C   C80       1.0  0.17744  0.68594  0.39425  1.0000
  C   C81       1.0  0.18817  0.68549  0.40098  1.0000
  C   C82       1.0  0.19602  0.69569  0.40269  1.0000
  C   C83       1.0  0.19324  0.70661  0.39793  1.0000
  C   C84       1.0  0.18249  0.70704  0.39128  1.0000
  C   C85       1.0  0.17471  0.69687  0.38932  1.0000
  H   H109      1.0  0.19040  0.67715  0.40522  1.0000
  H   H110      1.0  0.20417  0.69510  0.40796  1.0000
  H   H111      1.0  0.16659  0.69752  0.38391  1.0000
  C   C86       1.0  0.10695  0.63806  0.00485  1.0000
  C   C87       1.0  0.10226  0.62829  0.02873  1.0000
  C   C88       1.0  0.09942  0.62973  0.05666  1.0000
  C   C89       1.0  0.10101  0.64102  0.06113  1.0000
  C   C90       1.0  0.10572  0.65078  0.03725  1.0000
  C   C91       1.0  0.10869  0.64933  0.00934  1.0000
  H   H112      1.0  0.01866  0.55535  0.11403  1.0000
  H   H113      1.0  0.09596  0.62212  0.07474  1.0000
  H   H114      1.0  0.10694  0.65956  0.04033  1.0000
  C   C92       1.0  0.20932  0.68620  0.33222  1.0000
  C   C93       1.0  0.11485  0.64718  0.29981  1.0000
  C   C94       1.0  0.10793  0.63557  0.31110  1.0000
  C   C95       1.0  0.10110  0.63004  0.29510  1.0000
  C   C96       1.0  0.10149  0.63563  0.26677  1.0000
  C   C97       1.0  0.10871  0.64709  0.25519  1.0000
  C   C98       1.0  0.11514  0.65282  0.27165  1.0000
  H   H115      1.0  0.10767  0.63088  0.33235  1.0000
  H   H116      1.0  0.09547  0.62130  0.30484  1.0000
  H   H117      1.0  0.10922  0.65164  0.23360  1.0000
  H   H118      1.0  0.12042  0.66175  0.26235  1.0000
  C   C99       1.0  0.13172  0.60906  0.38963  1.0000
  C   C100      1.0  0.13207  0.59734  0.39196  1.0000
  C   C101      1.0  0.12461  0.59012  0.38072  1.0000
  C   C102      1.0  0.11660  0.59452  0.36772  1.0000
  C   C103      1.0  0.11651  0.60632  0.36461  1.0000
  C   C104      1.0  0.12417  0.61361  0.37516  1.0000
  H   H119      1.0  0.13805  0.59379  0.40259  1.0000
  H   H120      1.0  0.12514  0.58119  0.38206  1.0000
  H   H121      1.0  0.11058  0.60987  0.35376  1.0000
  H   H122      1.0  0.12434  0.62278  0.37159  1.0000
  C   C105      1.0  0.24341  0.68321  0.13313  1.0000
  C   C106      1.0  0.09740  0.57104  0.23838  1.0000
  C   C107      1.0  0.22984  0.67892  0.03641  1.0000
  C   C108      1.0  0.23872  0.72323  0.00753  1.0000
  C   C109      1.0  0.22810  0.65869  0.02969  1.0000
  C   C110      1.0  0.21464  0.65412  0.03977  1.0000
  H   H123      1.0  0.08406  0.55555  0.26106  1.0000
  H   H124      1.0  0.05001  0.51326  0.01504  1.0000
  C   C111      1.0  0.01348  0.52796  0.23257  1.0000
  H   H125      1.0  0.21500  0.68906  0.27500  1.0000
  C   C112      1.0  0.21099  0.64073  0.05116  1.0000
  H   H126      1.0  0.07829  0.63211  0.02460  1.0000
  H   H127      1.0  0.20840  0.70458  0.28957  1.0000
  C   C113      1.0  0.01725  0.53923  0.18279  1.0000
  C   C114      1.0  0.24677  0.67774  0.15674  1.0000
  H   H128      1.0  0.22930  0.67403  0.05846  1.0000
  H   H129      1.0  0.10174  0.62010  0.39205  1.0000
  H   H130      1.0  0.10084  0.61952  0.02563  1.0000
  H   H131      1.0  0.21658  0.71432  0.33743  1.0000
  H   H132      1.0  0.23156  0.65341  0.01559  1.0000
  H   H133      1.0  0.23127  0.65625  0.04895  1.0000
  H   H134      1.0  0.24633  0.66130  0.18439  1.0000
  H   H135      1.0  0.21121  0.65782  0.05750  1.0000
  C   C115      1.0  0.19422  0.57062  0.99693  1.0000
  H   H136      1.0  0.00550  0.51625  0.07749  1.0000
  H   H137      1.0  0.02251  0.55635  0.21708  1.0000
  H   H138      1.0  0.20239  0.70481  0.34181  1.0000
  C   C116      1.0  0.11708  0.52117  0.46457  1.0000
  H   H139      1.0  0.07395  0.65390  0.43184  1.0000
  C   C117      1.0  0.20994  0.71140  0.32617  1.0000
  H   H140      1.0  0.06881  0.54146  0.21283  1.0000
  C   C118      1.0  0.05641  0.64230  0.11137  1.0000
  H   H141      1.0  0.21466  0.63796  0.06948  1.0000
  H   H142      1.0  0.20131  0.63763  0.05859  1.0000
  H   H143      1.0  0.21405  0.63644  0.03426  1.0000
  H   H144      1.0  0.24349  0.70034  0.21777  1.0000
  S   S40       1.0  0.10974  0.65096  0.46566  1.0000
  S   S41       1.0  0.21978  0.62352  0.43908  1.0000
  H   H145      1.0  0.00054  0.51451  0.12900  1.0000
  H   H146      1.0  0.01487  0.50340  0.11240  1.0000
  C   C119      1.0  0.08708  0.50423  0.43377  1.0000
  N   N2        1.0  0.18183  0.59529  0.28749  1.0000
  C   C120      1.0  0.19195  0.60529  0.28593  1.0000
  C   C121      1.0  0.18041  0.59568  0.25779  1.0000
  C   C122      1.0  0.17088  0.59744  0.30439  1.0000
  C   C123      1.0  0.18315  0.58340  0.30168  1.0000
  C   C124      1.0  0.19580  0.58183  0.29761  1.0000
  C   C125      1.0  0.19405  0.60681  0.31504  1.0000
  C   C126      1.0  0.15918  0.58840  0.30768  1.0000
  C   C127      1.0  0.19079  0.59413  0.23598  1.0000
  C   C128      1.0  0.19587  0.56886  0.30456  1.0000
  C   C129      1.0  0.19213  0.61846  0.32031  1.0000
  C   C130      1.0  0.14911  0.59041  0.32884  1.0000
  H   H147      1.0  0.19099  0.61372  0.27334  1.0000
  H   H148      1.0  0.20033  0.60447  0.27347  1.0000
  H   H149      1.0  0.17281  0.58859  0.25837  1.0000
  H   H150      1.0  0.17851  0.60416  0.24856  1.0000
  H   H151      1.0  0.16995  0.60635  0.29485  1.0000
  H   H152      1.0  0.17145  0.59744  0.32643  1.0000
  H   H153      1.0  0.17943  0.58125  0.32510  1.0000
  H   H154      1.0  0.17785  0.57636  0.29467  1.0000
  H   H155      1.0  0.20017  0.58599  0.31198  1.0000
  H   H156      1.0  0.20122  0.58589  0.27563  1.0000
  H   H157      1.0  0.18873  0.59941  0.33340  1.0000
  H   H158      1.0  0.20323  0.60680  0.31506  1.0000
  H   H159      1.0  0.15975  0.57924  0.31554  1.0000
  H   H160      1.0  0.15680  0.58929  0.28708  1.0000
  H   H161      1.0  0.19907  0.60055  0.23400  1.0000
  H   H162      1.0  0.19185  0.58506  0.24217  1.0000
  H   H163      1.0  0.19232  0.56451  0.28935  1.0000
  H   H164      1.0  0.20499  0.56809  0.30280  1.0000
  H   H165      1.0  0.19058  0.56423  0.32654  1.0000
  H   H166      1.0  0.19870  0.62594  0.30414  1.0000
  H   H167      1.0  0.18321  0.61921  0.31926  1.0000
  H   H168      1.0  0.19321  0.61904  0.34162  1.0000
  H   H169      1.0  0.14093  0.58366  0.33131  1.0000
  H   H170      1.0  0.15093  0.58960  0.35009  1.0000
  H   H171      1.0  0.14771  0.59926  0.32127  1.0000
  H   H172      1.0  0.21903  0.67426  0.99495  1.0000
  Fe  Fe22      1.0  0.24659  0.72856  0.36959  1.0000
  H   H173      1.0  0.07450  0.59177  0.02683  1.0000
  C   C131      1.0  0.13809  0.65480  0.02462  1.0000
  H   H174      1.0  0.12389  0.68478  0.42754  1.0000
  H   H175      1.0  0.05793  0.64043  0.15497  1.0000
  H   H176      1.0  0.00151  0.54230  0.24570  1.0000
  C   C132      1.0  0.23590  0.68895  0.33057  1.0000
  C   C133      1.0  0.02656  0.51334  0.04038  1.0000
  H   H177      1.0  0.01643  0.57416  0.22222  1.0000
  H   H178      1.0  0.14853  0.65330  0.05633  1.0000
  S   S42       1.0  0.06242  0.51369  0.23814  1.0000
  C   C134      1.0  0.00967  0.56565  0.22894  1.0000
  H   H179      1.0  0.02825  0.60830  0.07862  1.0000
  C   C135      1.0  0.05867  0.60595  0.09884  1.0000
  H   H180      1.0  0.03909  0.61258  0.11429  1.0000
  C   C136      1.0  0.16499  0.61857  0.45948  1.0000
  N   N3        1.0  0.12399  0.60300  0.26587  1.0000
  C   C137      1.0  0.12606  0.61092  0.28533  1.0000
  C   C138      1.0  0.11146  0.59561  0.27515  1.0000
  C   C139      1.0  0.13186  0.59472  0.26874  1.0000
  C   C140      1.0  0.12712  0.60986  0.23506  1.0000
  C   C141      1.0  0.12056  0.61944  0.22780  1.0000
  C   C142      1.0  0.13841  0.61945  0.27742  1.0000
  C   C143      1.0  0.12972  0.58434  0.25464  1.0000
  C   C144      1.0  0.10187  0.60140  0.28725  1.0000
  C   C145      1.0  0.08965  0.59425  0.28910  1.0000
  C   C146      1.0  0.12617  0.62738  0.19774  1.0000
  C   C147      1.0  0.13961  0.62645  0.29956  1.0000
  C   C148      1.0  0.13886  0.57729  0.25695  1.0000
  H   H181      1.0  0.12429  0.60547  0.30752  1.0000
  H   H182      1.0  0.11986  0.61657  0.28651  1.0000
  H   H183      1.0  0.10911  0.59232  0.25717  1.0000
  H   H184      1.0  0.11043  0.58763  0.29253  1.0000
  H   H185      1.0  0.13098  0.59073  0.29172  1.0000
  H   H186      1.0  0.14119  0.59958  0.25944  1.0000
  H   H187      1.0  0.13669  0.61398  0.22738  1.0000
  H   H188      1.0  0.12531  0.60389  0.22125  1.0000
  H   H189      1.0  0.12052  0.62518  0.24261  1.0000
  H   H190      1.0  0.11143  0.61521  0.22840  1.0000
  H   H191      1.0  0.14538  0.61470  0.27630  1.0000
  H   H192      1.0  0.14001  0.62588  0.25658  1.0000
  H   H193      1.0  0.13021  0.58746  0.23172  1.0000
  H   H194      1.0  0.12100  0.57816  0.26524  1.0000
  H   H195      1.0  0.10223  0.60212  0.30901  1.0000
  H   H196      1.0  0.10299  0.61028  0.27400  1.0000
  H   H197      1.0  0.08302  0.59823  0.29973  1.0000
  H   H198      1.0  0.08860  0.59447  0.26731  1.0000
  H   H199      1.0  0.08812  0.58502  0.30159  1.0000
  H   H200      1.0  0.12614  0.62214  0.18175  1.0000
  H   H201      1.0  0.12109  0.63397  0.19310  1.0000
  H   H202      1.0  0.13529  0.63217  0.19587  1.0000
  H   H203      1.0  0.14821  0.63303  0.29254  1.0000
  H   H204      1.0  0.13264  0.63123  0.30236  1.0000
  H   H205      1.0  0.13911  0.62049  0.32032  1.0000
  H   H206      1.0  0.13884  0.57395  0.27956  1.0000
  H   H207      1.0  0.13681  0.56961  0.24796  1.0000
  H   H208      1.0  0.14773  0.58281  0.24484  1.0000
  N   N4        1.0  0.08799  0.64970  0.37951  1.0000
  C   C149      1.0  0.09568  0.65557  0.39567  1.0000
  C   C150      1.0  0.09087  0.63818  0.37755  1.0000
  C   C151      1.0  0.09121  0.65754  0.34952  1.0000
  C   C152      1.0  0.07509  0.64789  0.39256  1.0000
  C   C153      1.0  0.07108  0.64568  0.42548  1.0000
  C   C154      1.0  0.15097  0.66516  0.47552  1.0000
  C   C155      1.0  0.08513  0.65270  0.32810  1.0000
  C   C156      1.0  0.08797  0.62853  0.40579  1.0000
  H   H209      1.0  0.23517  0.68064  0.09952  1.0000
  H   H210      1.0  0.07098  0.51004  0.43673  1.0000
  H   H211      1.0  0.12124  0.53792  0.43263  1.0000
  C   C157      1.0  0.08763  0.66213  0.30020  1.0000
  H   H212      1.0  0.10501  0.65582  0.38657  1.0000
  H   H213      1.0  0.09250  0.51299  0.42051  1.0000
  H   H214      1.0  0.08602  0.63399  0.36401  1.0000
  H   H215      1.0  0.10034  0.63985  0.36706  1.0000
  H   H216      1.0  0.10083  0.65969  0.34012  1.0000
  H   H217      1.0  0.08911  0.66612  0.34972  1.0000
  H   H218      1.0  0.07205  0.65568  0.38362  1.0000
  H   H219      1.0  0.06992  0.64047  0.38646  1.0000
  N   N5        1.0  0.02401  0.50471  0.06908  1.0000
  H   H220      1.0  0.07472  0.63900  0.43699  1.0000
  H   H221      1.0  0.01410  0.52506  0.12531  1.0000
  H   H222      1.0  0.23477  0.74861  0.47586  1.0000
  H   H223      1.0  0.07551  0.64959  0.33697  1.0000
  H   H224      1.0  0.08848  0.64533  0.32246  1.0000
  H   H225      1.0  0.09221  0.63168  0.42156  1.0000
  H   H226      1.0  0.07836  0.62550  0.41491  1.0000
  H   H227      1.0  0.11194  0.65692  0.99121  1.0000
  H   H228      1.0  0.15507  0.64425  0.00928  1.0000
  H   H229      1.0  0.05224  0.57903  0.29472  1.0000
  H   H230      1.0  0.06225  0.51273  0.29697  1.0000
  H   H231      1.0  0.11235  0.59819  0.98104  1.0000
  N   N6        1.0  0.06048  0.62824  0.07967  1.0000
  H   H232      1.0  0.04234  0.51002  0.06792  1.0000
  H   H233      1.0  0.15420  0.67270  0.01937  1.0000
  H   H234      1.0  0.10880  0.67109  0.41821  1.0000
  H   H235      1.0  0.08387  0.66956  0.30383  1.0000
  H   H236      1.0  0.09721  0.66549  0.29060  1.0000
  H   H237      1.0  0.08365  0.65828  0.28482  1.0000
  N   N7        1.0  0.09117  0.55873  0.05983  1.0000
  C   C158      1.0  0.09970  0.55775  0.03406  1.0000
  C   C159      1.0  0.09005  0.54873  0.08529  1.0000
  C   C160      1.0  0.07939  0.55762  0.05320  1.0000
  C   C161      1.0  0.09453  0.57047  0.06640  1.0000
  C   C162      1.0  0.10650  0.57363  0.07327  1.0000
  H   H238      1.0  0.22865  0.69172  0.22558  1.0000
  C   C163      1.0  0.06875  0.55631  0.07842  1.0000
  C   C164      1.0  0.10104  0.54405  0.08718  1.0000
  C   C165      1.0  0.09937  0.53582  0.11646  1.0000
  C   C166      1.0  0.10910  0.58605  0.07750  1.0000
  H   H239      1.0  0.08637  0.66966  0.39735  1.0000
  C   C167      1.0  0.05742  0.55484  0.06885  1.0000
  H   H240      1.0  0.09700  0.54879  0.03075  1.0000
  H   H241      1.0  0.10858  0.55853  0.03743  1.0000
  H   H242      1.0  0.08694  0.55116  0.10537  1.0000
  H   H243      1.0  0.08324  0.54087  0.08583  1.0000
  H   H244      1.0  0.07737  0.54994  0.04424  1.0000
  H   H245      1.0  0.07952  0.56543  0.03648  1.0000
  H   H246      1.0  0.09422  0.57770  0.04874  1.0000
  H   H247      1.0  0.08802  0.57087  0.08535  1.0000
  H   H248      1.0  0.11372  0.57327  0.05592  1.0000
  H   H249      1.0  0.10638  0.56756  0.09353  1.0000
  H   H250      1.0  0.00797  0.56215  0.25232  1.0000
  H   H251      1.0  0.01843  0.52771  0.07198  1.0000
  H   H252      1.0  0.06973  0.56421  0.08687  1.0000
  H   H253      1.0  0.06762  0.54852  0.09617  1.0000
  H   H254      1.0  0.10265  0.53893  0.07113  1.0000
  H   H255      1.0  0.10901  0.55119  0.08316  1.0000
  H   H256      1.0  0.09780  0.54049  0.13345  1.0000
  H   H257      1.0  0.09187  0.52806  0.12076  1.0000
  H   H258      1.0  0.10734  0.53262  0.11711  1.0000
  H   H259      1.0  0.11765  0.58808  0.08281  1.0000
  H   H260      1.0  0.10953  0.59267  0.05778  1.0000
  H   H261      1.0  0.10226  0.58678  0.09538  1.0000
  C   C168      1.0  0.05776  0.64164  0.43620  1.0000
  H   H262      1.0  0.05442  0.63310  0.43165  1.0000
  H   H263      1.0  0.04995  0.55393  0.08713  1.0000
  H   H264      1.0  0.05785  0.56263  0.05175  1.0000
  H   H265      1.0  0.05575  0.54681  0.06100  1.0000
  H   H266      1.0  0.20911  0.68751  0.35387  1.0000
  H   H267      1.0  0.01588  0.52047  0.22475  1.0000
  H   H268      1.0  0.24082  0.70240  0.26639  1.0000
  H   H269      1.0  0.18305  0.63263  0.47335  1.0000
  C   C169      1.0  0.13282  0.68847  0.42929  1.0000
  H   H270      1.0  0.02045  0.53176  0.17685  1.0000
  H   H271      1.0  0.24563  0.58941  0.15542  1.0000
  H   H272      1.0  0.20673  0.64143  0.42842  1.0000
  H   H273      1.0  0.20823  0.69256  0.06129  1.0000
  C   C170      1.0  0.07880  0.56601  0.42354  1.0000
  H   H274      1.0  0.24561  0.59583  0.28965  1.0000
  H   H275      1.0  0.23694  0.68710  0.03172  1.0000
  C   C171      1.0  0.07491  0.60102  0.01639  1.0000
  C   C172      1.0  0.15222  0.64898  0.99134  1.0000
  H   H276      1.0  0.03148  0.57965  0.14441  1.0000
  H   H277      1.0  0.06456  0.58693  0.26493  1.0000
  C   C173      1.0  0.17668  0.68447  0.98581  1.0000
  H   H278      1.0  0.15479  0.68468  0.43303  1.0000
  H   H279      1.0  0.03838  0.58360  0.26650  1.0000
  H   H280      1.0  0.05623  0.57310  0.23671  1.0000
  C   C174      1.0  0.21512  0.60413  0.98710  1.0000
  H   H281      1.0  0.24681  0.59910  0.19661  1.0000
  H   H282      1.0  0.10398  0.57586  0.00700  1.0000
  Fe  Fe23      1.0  0.03651  0.50994  0.16623  1.0000
  H   H283      1.0  0.17362  0.60376  0.37282  1.0000
  H   H284      1.0  0.10378  0.56624  0.23034  1.0000
  H   H285      1.0  0.10104  0.67447  0.37502  1.0000
  H   H286      1.0  0.08559  0.65407  0.01112  1.0000
  H   H287      1.0  0.20388  0.57221  0.99284  1.0000
  H   H288      1.0  0.04856  0.59683  0.26648  1.0000
  H   H289      1.0  0.13904  0.69049  0.40800  1.0000
  H   H290      1.0  0.05031  0.60293  0.09336  1.0000
  H   H291      1.0  0.16463  0.62663  0.44422  1.0000
  H   H292      1.0  0.04953  0.65051  0.14392  1.0000
  N   N8        1.0  0.21934  0.69538  0.31017  1.0000
  H   H293      1.0  0.23023  0.70777  0.24998  1.0000
  C   C175      1.0  0.24705  0.69392  0.33875  1.0000
  C   C176      1.0  0.01268  0.51939  0.08692  1.0000
  C   C177      1.0  0.19034  0.63085  0.45875  1.0000
  H   H294      1.0  0.09271  0.59235  0.45821  1.0000
  C   C178      1.0  0.19934  0.64261  0.44408  1.0000
  C   C179      1.0  0.12868  0.57076  0.46480  1.0000
  H   H295      1.0  0.21046  0.65641  0.02223  1.0000
  H   H296      1.0  0.06489  0.64662  0.05665  1.0000
  H   H297      1.0  0.23421  0.72627  0.99201  1.0000
  H   H298      1.0  0.05712  0.54320  0.19670  1.0000
  C   C180      1.0  0.02902  0.58600  0.15547  1.0000
  C   C181      1.0  0.05974  0.54245  0.21688  1.0000
  C   C182      1.0  0.18887  0.55892  0.99133  1.0000
  S   S43       1.0  0.23505  0.74098  0.36752  1.0000
  H   H299      1.0  0.06406  0.56810  0.30631  1.0000
  H   H300      1.0  0.15647  0.66527  0.45442  1.0000
  C   C183      1.0  0.04863  0.62595  0.07323  1.0000
  C   C184      1.0  0.13042  0.64544  0.07790  1.0000
  H   H301      1.0  0.13263  0.64091  0.09719  1.0000
  H   H302      1.0  0.12264  0.58608  0.45183  1.0000
  H   H303      1.0  0.06594  0.60231  0.02127  1.0000
  H   H304      1.0  0.18218  0.67848  0.99184  1.0000
  H   H305      1.0  0.24317  0.59252  0.07715  1.0000
  H   H306      1.0  0.12261  0.63957  0.07510  1.0000
  C   C185      1.0  0.09533  0.66843  0.39544  1.0000
  H   H307      1.0  0.24110  0.60607  0.05760  1.0000
  H   H308      1.0  0.21603  0.60020  0.47593  1.0000
  C   C186      1.0  0.00727  0.52230  0.11438  1.0000
  Fe  Fe24      1.0  0.21829  0.61097  0.41066  1.0000
  H   H309      1.0  0.14291  0.62263  0.46266  1.0000
  H   H310      1.0  0.12823  0.65366  0.08144  1.0000
  H   H311      1.0  0.09896  0.57283  0.25851  1.0000
  H   H312      1.0  0.22677  0.70137  0.34242  1.0000
  H   H313      1.0  0.20232  0.66620  0.37965  1.0000
  H   H314      1.0  0.00690  0.53794  0.15146  1.0000
  H   H315      1.0  0.01931  0.61139  0.10845  1.0000
  H   H316      1.0  0.23540  0.59016  0.47025  1.0000
  H   H317      1.0  0.09262  0.59386  0.99058  1.0000
  H   H318      1.0  0.18019  0.71537  0.38746  1.0000
  H   H319      1.0  0.04329  0.63489  0.15203  1.0000
  H   H320      1.0  0.19854  0.71961  0.30436  1.0000
  H   H321      1.0  0.21284  0.72918  0.29972  1.0000
  C   C187      1.0  0.02691  0.61530  0.08952  1.0000
  S   S44       1.0  0.21380  0.59130  0.42535  1.0000
  C   C188      1.0  0.20882  0.67306  0.33361  1.0000
  H   H322      1.0  0.09283  0.56558  0.99878  1.0000
  H   H323      1.0  0.07368  0.59866  0.10250  1.0000
  H   H324      1.0  0.07021  0.56700  0.42012  1.0000
  H   H325      1.0  0.20193  0.72552  0.33309  1.0000
  H   H326      1.0  0.06409  0.63351  0.02038  1.0000
  H   H327      1.0  0.06630  0.56081  0.21263  1.0000
  S   S45       1.0  0.24155  0.71334  0.15984  1.0000
  H   H328      1.0  0.04975  0.64396  0.09971  1.0000
  H   H329      1.0  0.23605  0.64919  0.15782  1.0000
  Fe  Fe25      1.0  0.22186  0.72617  0.40259  1.0000
  H   H330      1.0  0.05032  0.59117  0.23547  1.0000
  S   S46       1.0  0.20259  0.71986  0.40057  1.0000
  H   H331      1.0  0.02158  0.54141  0.25133  1.0000
  H   H332      1.0  0.03566  0.53146  0.26791  1.0000
  H   H333      1.0  0.10670  0.59183  0.44001  1.0000
  H   H334      1.0  0.06640  0.54626  0.26107  1.0000
  C   C189      1.0  0.02305  0.60243  0.18406  1.0000
  H   H335      1.0  0.24330  0.61053  0.47900  1.0000
  S   S47       1.0  0.24307  0.73292  0.21388  1.0000
  H   H336      1.0  0.06696  0.61632  0.05686  1.0000
  H   H337      1.0  0.22363  0.69681  0.05909  1.0000
  H   H338      1.0  0.14187  0.66105  0.47575  1.0000
  H   H339      1.0  0.24705  0.58902  0.24483  1.0000
  C   C190      1.0  0.01997  0.51031  0.09274  1.0000
  H   H340      1.0  0.19097  0.66663  0.36084  1.0000
  H   H341      1.0  0.19910  0.65561  0.35964  1.0000
  H   H342      1.0  0.23843  0.73378  0.31364  1.0000
  H   H343      1.0  0.13067  0.64880  0.02046  1.0000
  N   N9        1.0  0.09737  0.57624  0.47426  1.0000
  H   H344      1.0  0.05513  0.64045  0.45962  1.0000
  C   C191      1.0  0.20556  0.72208  0.31499  1.0000
  H   H345      1.0  0.07587  0.57637  0.23157  1.0000
  S   S48       1.0  0.00684  0.57728  0.14919  1.0000
  S   S49       1.0  0.23866  0.63193  0.07415  1.0000
  H   H346      1.0  0.05407  0.62341  0.12588  1.0000
  H   H347      1.0  0.08078  0.64827  0.98365  1.0000
  C   C192      1.0  0.23835  0.65864  0.15041  1.0000
  H   H348      1.0  0.23016  0.68199  0.34937  1.0000
  H   H349      1.0  0.18415  0.63173  0.42071  1.0000
  H   H350      1.0  0.19522  0.64899  0.43290  1.0000
  H   H351      1.0  0.23616  0.70654  0.30788  1.0000
  H   H352      1.0  0.06423  0.64990  0.10232  1.0000
  C   C193      1.0  0.08499  0.56344  0.24405  1.0000
  C   C194      1.0  0.07958  0.53375  0.99541  1.0000
  N   N10       1.0  0.23286  0.67167  0.01564  1.0000
  S   S50       1.0  0.22821  0.73411  0.43628  1.0000
  H   H353      1.0  0.22725  0.63610  0.47841  1.0000
  C   C195      1.0  0.21616  0.68923  0.06150  1.0000
  C   C196      1.0  0.21516  0.70631  0.30154  1.0000
  H   H354      1.0  0.02065  0.60883  0.19499  1.0000
  C   C197      1.0  0.22958  0.69865  0.32255  1.0000
  H   H355      1.0  0.07465  0.61994  0.08213  1.0000
  H   H356      1.0  0.03573  0.62644  0.11123  1.0000
  C   C198      1.0  0.10112  0.56671  0.00542  1.0000
  C   C199      1.0  0.24730  0.73086  0.24614  1.0000
  H   H357      1.0  0.23381  0.73462  0.03353  1.0000
  H   H358      1.0  0.02800  0.54618  0.12462  1.0000
  H   H359      1.0  0.02759  0.51515  0.09868  1.0000
  S   S51       1.0  0.23344  0.71370  0.40336  1.0000
  N   N11       1.0  0.00846  0.53500  0.21148  1.0000
  C   C200      1.0  0.07566  0.57024  0.25199  1.0000
  C   C201      1.0  0.02241  0.55187  0.13165  1.0000
  C   C202      1.0  0.24604  0.67419  0.00642  1.0000
  H   H360      1.0  0.04694  0.63430  0.06240  1.0000
  H   H361      1.0  0.17967  0.62287  0.38565  1.0000
  H   H362      1.0  0.05160  0.54609  0.27223  1.0000
  H   H363      1.0  0.22431  0.69443  0.47275  1.0000
  H   H364      1.0  0.02784  0.55945  0.13650  1.0000
  H   H365      1.0  0.05377  0.53451  0.23270  1.0000
  C   C203      1.0  0.22274  0.69117  0.28373  1.0000
  H   H366      1.0  0.09883  0.57946  0.22226  1.0000
  H   H367      1.0  0.24822  0.61911  0.19482  1.0000
  C   C204      1.0  0.09338  0.57029  0.45267  1.0000
  C   C205      1.0  0.00474  0.54496  0.22206  1.0000
  H   H368      1.0  0.03261  0.52174  0.04009  1.0000
  H   H369      1.0  0.02102  0.52226  0.28185  1.0000
  C   C206      1.0  0.05150  0.64199  0.14249  1.0000
  H   H370      1.0  0.05066  0.55540  0.22555  1.0000
  C   C207      1.0  0.22862  0.67533  0.98939  1.0000
  C   C208      1.0  0.06521  0.59638  0.09693  1.0000
  H   H371      1.0  0.22242  0.71356  0.28671  1.0000
  H   H372      1.0  0.00544  0.59571  0.18062  1.0000
  C   C209      1.0  0.06578  0.61793  0.07834  1.0000
  C   C210      1.0  0.16720  0.60869  0.37974  1.0000
  S   S52       1.0  0.24611  0.71384  0.47268  1.0000
  H   H373      1.0  0.23309  0.73680  0.26747  1.0000
  C   C211      1.0  0.01253  0.54490  0.15783  1.0000
  H   H374      1.0  0.15130  0.60681  0.44760  1.0000
  H   H375      1.0  0.22539  0.68282  0.28865  1.0000
  H   H376      1.0  0.18728  0.59521  0.45039  1.0000
  C   C212      1.0  0.23849  0.72795  0.03117  1.0000
  Fe  Fe26      1.0  0.24056  0.72247  0.43448  1.0000
  C   C213      1.0  0.05998  0.63081  0.10834  1.0000
  C   C214      1.0  0.22602  0.62418  0.24772  1.0000
  H   H377      1.0  0.08980  0.61087  0.42112  1.0000
  H   H378      1.0  0.16485  0.62093  0.40477  1.0000
  C   C215      1.0  0.10964  0.61010  0.46359  1.0000
  C   C216      1.0  0.01436  0.59496  0.17590  1.0000
  C   C217      1.0  0.10589  0.59709  0.47968  1.0000
  H   H379      1.0  0.08561  0.57034  0.40325  1.0000
  C   C218      1.0  0.01728  0.58673  0.16121  1.0000
  H   H380      1.0  0.09286  0.56070  0.45873  1.0000
  C   C219      1.0  0.24414  0.72403  0.05189  1.0000
  H   H381      1.0  0.04566  0.56458  0.26871  1.0000
  H   H382      1.0  0.09761  0.60936  0.98364  1.0000
  C   C220      1.0  0.03777  0.62000  0.09909  1.0000
  H   H383      1.0  0.15871  0.60236  0.39152  1.0000
  C   C221      1.0  0.06495  0.54823  0.34405  1.0000
  H   H384      1.0  0.13541  0.67137  0.44371  1.0000
  H   H385      1.0  0.18695  0.69825  0.46214  1.0000
  H   H386      1.0  0.05688  0.60660  0.12104  1.0000
  C   C222      1.0  0.09212  0.61774  0.40071  1.0000
  C   C223      1.0  0.06162  0.55999  0.29909  1.0000
  C   C224      1.0  0.24369  0.73184  0.29569  1.0000
  H   H387      1.0  0.08414  0.56054  0.22455  1.0000
  H   H388      1.0  0.07161  0.65520  0.00456  1.0000
  H   H389      1.0  0.11896  0.56609  0.98659  1.0000
  H   H390      1.0  0.20627  0.67087  0.31469  1.0000
  H   H391      1.0  0.21465  0.68283  0.08236  1.0000
  H   H392      1.0  0.03155  0.53909  0.22162  1.0000
  H   H393      1.0  0.18714  0.53583  0.99077  1.0000
  C   C225      1.0  0.07782  0.64954  0.00526  1.0000
  S   S53       1.0  0.24407  0.73080  0.08027  1.0000
  H   H394      1.0  0.16583  0.61440  0.36072  1.0000
  H   H395      1.0  0.07706  0.64145  0.06356  1.0000
  N   N12       1.0  0.06335  0.56297  0.26719  1.0000
  C   C226      1.0  0.17401  0.60855  0.42484  1.0000
  H   H396      1.0  0.13289  0.69673  0.43605  1.0000
  H   H397      1.0  0.05368  0.64830  0.42597  1.0000
  C   C227      1.0  0.04771  0.58864  0.25914  1.0000
  H   H398      1.0  0.16093  0.64638  0.47056  1.0000
  C   C228      1.0  0.02410  0.53474  0.24059  1.0000
  H   H399      1.0  0.19084  0.55184  0.00638  1.0000
  N   N13       1.0  0.09855  0.50381  0.47297  1.0000
  C   C229      1.0  0.21862  0.68338  0.03712  1.0000
  C   C230      1.0  0.06868  0.63888  0.05751  1.0000
  C   C231      1.0  0.08146  0.57165  0.44714  1.0000
  H   H400      1.0  0.06995  0.54208  0.35225  1.0000
  H   H401      1.0  0.21083  0.67618  0.03978  1.0000
  H   H402      1.0  0.02485  0.62250  0.07498  1.0000
  H   H403      1.0  0.22544  0.62530  0.20404  1.0000
  H   H404      1.0  0.08791  0.61402  0.38549  1.0000
  C   C232      1.0  0.06874  0.55179  0.31152  1.0000
  H   H405      1.0  0.06681  0.59499  0.07528  1.0000
  H   H406      1.0  0.00707  0.55082  0.16395  1.0000
  C   C233      1.0  0.09983  0.67221  0.41957  1.0000
  H   H407      1.0  0.03097  0.51944  0.25308  1.0000
  H   H408      1.0  0.05218  0.55590  0.30989  1.0000
  H   H409      1.0  0.06871  0.63162  0.11299  1.0000
  Fe  Fe27      1.0  0.24287  0.74731  0.40127  1.0000
  C   C234      1.0  0.02816  0.52644  0.26208  1.0000
  C   C235      1.0  0.13608  0.67954  0.45104  1.0000
  C   C236      1.0  0.06015  0.55174  0.25821  1.0000
  H   H410      1.0  0.06748  0.54355  0.30461  1.0000
  C   C237      1.0  0.22924  0.62187  0.98515  1.0000
  H   H411      1.0  0.14940  0.69360  0.45440  1.0000
  S   S54       1.0  0.24441  0.58465  0.39239  1.0000
  S   S55       1.0  0.24217  0.63025  0.13925  1.0000
  C   C238      1.0  0.24065  0.73350  0.26956  1.0000
  H   H412      1.0  0.16847  0.70131  0.44999  1.0000
  H   H413      1.0  0.22674  0.63346  0.24568  1.0000
  H   H414      1.0  0.09403  0.66685  0.44060  1.0000
  C   C239      1.0  0.05915  0.55344  0.22715  1.0000
  S   S56       1.0  0.08388  0.53340  0.44585  1.0000
  C   C240      1.0  0.14868  0.68431  0.45348  1.0000
  H   H415      1.0  0.05979  0.58797  0.11201  1.0000
  H   H416      1.0  0.04851  0.62052  0.05758  1.0000
  H   H417      1.0  0.09369  0.65038  0.41811  1.0000
  H   H418      1.0  0.20074  0.68728  0.32848  1.0000
  C   C241      1.0  0.07194  0.63761  0.02658  1.0000
  H   H419      1.0  0.00057  0.52012  0.19714  1.0000
  C   C242      1.0  0.24327  0.59766  0.05574  1.0000
  H   H420      1.0  0.17926  0.55774  0.99632  1.0000
  H   H421      1.0  0.11629  0.61157  0.44325  1.0000
  H   H422      1.0  0.24685  0.63088  0.44636  1.0000
  H   H423      1.0  0.10201  0.61323  0.45897  1.0000
  H   H424      1.0  0.08146  0.58103  0.44037  1.0000
  N   N14       1.0  0.14819  0.65944  0.99817  1.0000
  H   H425      1.0  0.09994  0.57377  0.43165  1.0000
  C   C243      1.0  0.03163  0.50921  0.01371  1.0000
  H   H426      1.0  0.00297  0.52954  0.10948  1.0000
  C   C244      1.0  0.12573  0.53128  0.44099  1.0000
  C   C245      1.0  0.22143  0.61858  0.47381  1.0000
  H   H427      1.0  0.17381  0.68831  0.00373  1.0000
  C   C246      1.0  0.18607  0.62486  0.43659  1.0000
  C   C247      1.0  0.18022  0.70080  0.47680  1.0000
  C   C248      1.0  0.04460  0.51526  0.00003  1.0000
  H   H428      1.0  0.10217  0.52193  0.44866  1.0000
  H   H429      1.0  0.09646  0.53000  0.98881  1.0000
  H   H430      1.0  0.13682  0.57422  0.44724  1.0000
  H   H431      1.0  0.19017  0.51511  0.99873  1.0000
  H   H432      1.0  0.04595  0.52495  0.99297  1.0000
  H   H433      1.0  0.08254  0.50936  0.47309  1.0000
  C   C249      1.0  0.24451  0.71443  0.00447  1.0000
  N   N15       1.0  0.17561  0.61438  0.44836  1.0000
  C   C250      1.0  0.08686  0.50277  0.46575  1.0000
  H   H434      1.0  0.24530  0.69270  0.12644  1.0000
  C   C251      1.0  0.17731  0.60558  0.47263  1.0000
  H   H435      1.0  0.10231  0.54034  0.47427  1.0000
  C   C252      1.0  0.16485  0.68312  0.47550  1.0000
  H   H436      1.0  0.12948  0.67758  0.47168  1.0000
  H   H437      1.0  0.23908  0.68604  0.24234  1.0000
  H   H438      1.0  0.00154  0.56735  0.22369  1.0000
  H   H439      1.0  0.11082  0.51362  0.43253  1.0000
  C   C253      1.0  0.07970  0.60361  0.98421  1.0000
  C   C254      1.0  0.24409  0.66548  0.16556  1.0000
  H   H440      1.0  0.07840  0.55648  0.42946  1.0000
  H   H441      1.0  0.19633  0.60765  0.45695  1.0000
  C   C255      1.0  0.23615  0.69406  0.23483  1.0000
  H   H442      1.0  0.18261  0.71054  0.47240  1.0000
  H   H443      1.0  0.24613  0.63848  0.19929  1.0000
  H   H444      1.0  0.24596  0.58152  0.46722  1.0000
  H   H445      1.0  0.20289  0.64629  0.46021  1.0000
  C   C256      1.0  0.11917  0.57642  0.45669  1.0000
  H   H446      1.0  0.07419  0.56730  0.46649  1.0000
  C   C257      1.0  0.18814  0.60058  0.46587  1.0000
  H   H447      1.0  0.19456  0.62515  0.47170  1.0000
  H   H448      1.0  0.14224  0.68071  0.99049  1.0000
  H   H449      1.0  0.12849  0.67101  0.99348  1.0000
  H   H450      1.0  0.13274  0.53568  0.44950  1.0000
  H   H451      1.0  0.14476  0.64255  0.98847  1.0000
  H   H452      1.0  0.11356  0.61544  0.47668  1.0000
  C   C258      1.0  0.14297  0.61462  0.47842  1.0000
  N   N16       1.0  0.15213  0.67758  0.47833  1.0000
  S   S57       1.0  0.05241  0.50284  0.16957  1.0000
  H   H453      1.0  0.07518  0.50435  0.40645  1.0000
  Fe  Fe28      1.0  0.24875  0.62351  0.10185  1.0000
  C   C259      1.0  0.11030  0.56484  0.98166  1.0000
  H   H454      1.0  0.24905  0.60118  0.99838  1.0000
  H   H455      1.0  0.12201  0.51505  0.47296  1.0000
  H   H456      1.0  0.24879  0.66865  0.99229  1.0000
  H   H457      1.0  0.16559  0.62133  0.47927  1.0000
  H   H458      1.0  0.24505  0.69808  0.35658  1.0000
  H   H459      1.0  0.16965  0.59780  0.48046  1.0000
  H   H460      1.0  0.19212  0.57801  0.98309  1.0000
  H   H461      1.0  0.04771  0.51213  0.98101  1.0000
  C   C260      1.0  0.07478  0.50315  0.42944  1.0000
  Fe  Fe29      1.0  0.14047  0.63859  0.88492  1.0000
  S   S58       1.0  0.14609  0.65590  0.85244  1.0000
  S   S59       1.0  0.14780  0.62324  0.87998  1.0000
  Fe  Fe30      1.0  0.12258  0.64586  0.92661  1.0000
  S   S60       1.0  0.12672  0.66393  0.89604  1.0000
  H   H462      1.0  0.11987  0.55543  0.61148  1.0000
  Fe  Fe31      1.0  0.12664  0.65446  0.86029  1.0000
  S   S61       1.0  0.11774  0.65731  0.82276  1.0000
  Fe  Fe32      1.0  0.14595  0.66377  0.89021  1.0000
  S   S62       1.0  0.16249  0.67607  0.89549  1.0000
  S   S63       1.0  0.12129  0.63678  0.89141  1.0000
  S   S64       1.0  0.14148  0.64613  0.92202  1.0000
  Fe  Fe33      1.0  0.06839  0.52160  0.61695  1.0000
  C   C261      1.0  0.15428  0.64484  0.49098  1.0000
  S   S65       1.0  0.08370  0.52537  0.57729  1.0000
  Fe  Fe34      1.0  0.05300  0.53485  0.64603  1.0000
  S   S66       1.0  0.04605  0.52093  0.68728  1.0000
  S   S67       1.0  0.04942  0.55260  0.63916  1.0000
  Fe  Fe35      1.0  0.06481  0.52007  0.68264  1.0000
  S   S68       1.0  0.07520  0.51974  0.71745  1.0000
  H   H463      1.0  0.24327  0.69361  0.55667  1.0000
  H   H464      1.0  0.18762  0.69163  0.82244  1.0000
  S   S69       1.0  0.07165  0.53470  0.64254  1.0000
  S   S70       1.0  0.04995  0.52283  0.61774  1.0000
  Fe  Fe36      1.0  0.06673  0.61828  0.67764  1.0000
  S   S71       1.0  0.07753  0.61299  0.64213  1.0000
  S   S72       1.0  0.04668  0.61576  0.68635  1.0000
  Fe  Fe37      1.0  0.08769  0.62398  0.70602  1.0000
  S   S73       1.0  0.09934  0.61859  0.67212  1.0000
  S   S74       1.0  0.09530  0.62643  0.74487  1.0000
  Fe  Fe38      1.0  0.09193  0.62867  0.63957  1.0000
  S   S75       1.0  0.10660  0.63953  0.59960  1.0000
  Fe  Fe39      1.0  0.08421  0.60351  0.67680  1.0000
  S   S76       1.0  0.08588  0.58483  0.68376  1.0000
  S   S77       1.0  0.08078  0.63492  0.67327  1.0000
  S   S78       1.0  0.07290  0.60800  0.71248  1.0000
  Fe  Fe40      1.0  0.10598  0.56880  0.87134  1.0000
  S   S79       1.0  0.08904  0.55545  0.88080  1.0000
  S   S80       1.0  0.10652  0.58793  0.85896  1.0000
  Fe  Fe41      1.0  0.11982  0.55092  0.87797  1.0000
  S   S81       1.0  0.10357  0.53565  0.88754  1.0000
  S   S82       1.0  0.13918  0.55063  0.87286  1.0000
  Fe  Fe42      1.0  0.09843  0.54657  0.85086  1.0000
  S   S83       1.0  0.08784  0.54345  0.81723  1.0000
  Fe  Fe43      1.0  0.09496  0.54555  0.91663  1.0000
  S   S84       1.0  0.08059  0.54017  0.95892  1.0000
  S   S85       1.0  0.11524  0.56085  0.83966  1.0000
  S   S86       1.0  0.11134  0.55988  0.90890  1.0000
  Fe  Fe44      1.0  0.22612  0.58695  0.88450  1.0000
  S   S87       1.0  0.23282  0.60648  0.86969  1.0000
  Fe  Fe45      1.0  0.20016  0.58765  0.89837  1.0000
  S   S88       1.0  0.20545  0.60745  0.88606  1.0000
  S   S89       1.0  0.18032  0.57901  0.91558  1.0000
  Fe  Fe46      1.0  0.21814  0.60576  0.84821  1.0000
  S   S90       1.0  0.21884  0.61780  0.80600  1.0000
  Fe  Fe47      1.0  0.21957  0.60633  0.90890  1.0000
  H   H465      1.0  0.23289  0.66695  0.52738  1.0000
  S   S91       1.0  0.21237  0.58603  0.85941  1.0000
  C   C262      1.0  0.23903  0.66427  0.62997  1.0000
  C   C263      1.0  0.14887  0.67699  0.53248  1.0000
  Fe  Fe48      1.0  0.23619  0.63752  0.61669  1.0000
  S   S92       1.0  0.22381  0.61948  0.63157  1.0000
  S   S93       1.0  0.22927  0.65309  0.62243  1.0000
  Fe  Fe49      1.0  0.23796  0.61444  0.65087  1.0000
  S   S94       1.0  0.23653  0.60238  0.69355  1.0000
  Fe  Fe50      1.0  0.23370  0.61675  0.59068  1.0000
  C   C264      1.0  0.22152  0.69187  0.58469  1.0000
  H   H466      1.0  0.11735  0.56221  0.70829  1.0000
  S   S95       1.0  0.23789  0.71038  0.66043  1.0000
  S   S96       1.0  0.22922  0.73142  0.93806  1.0000
  C   C265      1.0  0.03843  0.60268  0.65034  1.0000
  H   H467      1.0  0.99997  0.57896  0.73662  1.0000
  C   C266      1.0  0.03574  0.60682  0.67466  1.0000
  H   H468      1.0  0.04743  0.60477  0.63809  1.0000
  H   H469      1.0  0.19657  0.72633  0.84455  1.0000
  H   H470      1.0  0.18376  0.65907  0.83819  1.0000
  H   H471      1.0  0.09478  0.52964  0.66102  1.0000
  C   C267      1.0  0.10773  0.57210  0.48099  1.0000
  H   H472      1.0  0.20447  0.73343  0.80789  1.0000
  C   C268      1.0  0.23947  0.72645  0.80197  1.0000
  H   H473      1.0  0.08752  0.57440  0.91248  1.0000
  H   H474      1.0  0.23667  0.69531  0.84002  1.0000
  H   H475      1.0  0.09925  0.51587  0.70010  1.0000
  C   C269      1.0  0.22848  0.68903  0.85408  1.0000
  H   H476      1.0  0.17164  0.54641  0.91594  1.0000
  H   H477      1.0  0.13371  0.60456  0.97132  1.0000
  H   H478      1.0  0.02696  0.55361  0.74744  1.0000
  C   C270      1.0  0.09416  0.53620  0.49033  1.0000
  C   C271      1.0  0.00253  0.57343  0.75397  1.0000
  H   H479      1.0  0.15241  0.53248  0.97005  1.0000
  H   H480      1.0  0.02083  0.57855  0.73314  1.0000
  H   H481      1.0  0.01720  0.51741  0.61905  1.0000
  H   H482      1.0  0.00383  0.57851  0.76988  1.0000
  H   H483      1.0  0.22548  0.67246  0.64461  1.0000
  C   C272      1.0  0.22390  0.61352  0.77483  1.0000
  H   H484      1.0  0.14558  0.64049  0.48895  1.0000
  C   C273      1.0  0.22764  0.61704  0.72323  1.0000
  C   C274      1.0  0.23175  0.60691  0.72447  1.0000
  C   C275      1.0  0.23205  0.60019  0.75089  1.0000
  C   C276      1.0  0.22817  0.60349  0.77600  1.0000
  H   H485      1.0  0.02618  0.53112  0.62034  1.0000
  H   H486      1.0  0.23522  0.59234  0.75192  1.0000
  H   H487      1.0  0.22838  0.59821  0.79627  1.0000
  C   C277      1.0  0.17559  0.54666  0.95710  1.0000
  H   H488      1.0  0.01592  0.54327  0.74151  1.0000
  H   H489      1.0  0.22573  0.56919  0.48459  1.0000
  C   C278      1.0  0.22411  0.61102  0.52940  1.0000
  C   C279      1.0  0.22680  0.62304  0.51606  1.0000
  H   H490      1.0  0.16780  0.67891  0.49383  1.0000
  H   H491      1.0  0.16163  0.69925  0.48699  1.0000
  H   H492      1.0  0.14274  0.67499  0.57796  1.0000
  H   H493      1.0  0.22999  0.62940  0.52701  1.0000
  H   H494      1.0  0.11336  0.53952  0.69011  1.0000
  C   C280      1.0  0.15053  0.55956  0.88314  1.0000
  C   C281      1.0  0.16232  0.56019  0.87072  1.0000
  C   C282      1.0  0.17157  0.56656  0.87930  1.0000
  C   C283      1.0  0.16917  0.57219  0.90106  1.0000
  C   C284      1.0  0.15740  0.57173  0.91316  1.0000
  C   C285      1.0  0.14817  0.56561  0.90405  1.0000
  H   H495      1.0  0.16429  0.55558  0.85451  1.0000
  H   H496      1.0  0.18051  0.56672  0.86981  1.0000
  H   H497      1.0  0.15539  0.57604  0.92997  1.0000
  H   H498      1.0  0.13920  0.56527  0.91384  1.0000
  C   C286      1.0  0.08436  0.53658  0.78981  1.0000
  C   C287      1.0  0.09024  0.52867  0.78002  1.0000
  C   C288      1.0  0.08721  0.52358  0.75830  1.0000
  C   C289      1.0  0.07839  0.52641  0.74540  1.0000
  C   C290      1.0  0.07259  0.53443  0.75496  1.0000
  C   C291      1.0  0.07543  0.53929  0.77719  1.0000
  H   H499      1.0  0.09708  0.52638  0.78936  1.0000
  S   S97       1.0  0.24666  0.60993  0.61169  1.0000
  H   H500      1.0  0.06579  0.53677  0.74552  1.0000
  H   H501      1.0  0.07065  0.54518  0.78480  1.0000
  C   C292      1.0  0.08340  0.52866  0.54082  1.0000
  C   C293      1.0  0.09392  0.53412  0.51955  1.0000
  H   H502      1.0  0.00822  0.54605  0.64444  1.0000
  H   H503      1.0  0.22509  0.70289  0.80564  1.0000
  C   C294      1.0  0.07341  0.52717  0.50331  1.0000
  C   C295      1.0  0.07311  0.52537  0.53246  1.0000
  H   H504      1.0  0.10194  0.53667  0.52576  1.0000
  C   C296      1.0  0.12518  0.55574  0.62716  1.0000
  H   H505      1.0  0.08963  0.54970  0.65882  1.0000
  H   H506      1.0  0.06496  0.52112  0.54850  1.0000
  H   H507      1.0  0.14132  0.56121  0.59358  1.0000
  C   C297      1.0  0.05960  0.56155  0.65131  1.0000
  C   C298      1.0  0.06319  0.57369  0.63911  1.0000
  C   C299      1.0  0.07142  0.58083  0.64865  1.0000
  C   C300      1.0  0.07580  0.57594  0.67100  1.0000
  C   C301      1.0  0.07220  0.56379  0.68315  1.0000
  C   C302      1.0  0.06418  0.55660  0.67323  1.0000
  H   H508      1.0  0.05972  0.57755  0.62204  1.0000
  H   H509      1.0  0.07437  0.59011  0.63853  1.0000
  H   H510      1.0  0.07545  0.55992  0.70052  1.0000
  H   H511      1.0  0.06139  0.54723  0.68298  1.0000
  C   C303      1.0  0.17352  0.68801  0.89826  1.0000
  C   C304      1.0  0.18393  0.68606  0.90470  1.0000
  C   C305      1.0  0.19284  0.69543  0.90632  1.0000
  Fe  Fe51      1.0  0.04435  0.50847  0.65883  1.0000
  C   C306      1.0  0.21785  0.69359  0.84997  1.0000
  C   C307      1.0  0.17205  0.69945  0.89426  1.0000
  H   H512      1.0  0.18520  0.67726  0.90812  1.0000
  H   H513      1.0  0.20080  0.69378  0.91104  1.0000
  H   H514      1.0  0.16412  0.70117  0.88949  1.0000
  C   C308      1.0  0.10878  0.64660  0.50298  1.0000
  C   C309      1.0  0.11835  0.64466  0.51339  1.0000
  C   C310      1.0  0.11747  0.64223  0.54298  1.0000
  C   C311      1.0  0.10688  0.64120  0.56278  1.0000
  C   C312      1.0  0.09718  0.64266  0.55242  1.0000
  C   C313      1.0  0.09818  0.64549  0.52277  1.0000
  H   H515      1.0  0.19300  0.56690  0.94609  1.0000
  H   H516      1.0  0.12504  0.64109  0.55060  1.0000
  H   H517      1.0  0.08900  0.64205  0.56720  1.0000
  H   H518      1.0  0.09068  0.64693  0.51515  1.0000
  C   C314      1.0  0.11169  0.64849  0.80123  1.0000
  C   C315      1.0  0.10714  0.65377  0.77925  1.0000
  C   C316      1.0  0.10213  0.64722  0.76201  1.0000
  C   C317      1.0  0.10147  0.63517  0.76640  1.0000
  C   C318      1.0  0.10609  0.62989  0.78824  1.0000
  C   C319      1.0  0.11119  0.63647  0.80534  1.0000
  H   H519      1.0  0.10740  0.66302  0.77568  1.0000
  H   H520      1.0  0.09860  0.65150  0.74559  1.0000
  H   H521      1.0  0.10577  0.62062  0.79198  1.0000
  H   H522      1.0  0.11468  0.63224  0.82189  1.0000
  C   C320      1.0  0.13734  0.61316  0.87151  1.0000
  C   C321      1.0  0.13488  0.60115  0.88473  1.0000
  C   C322      1.0  0.12567  0.59321  0.88013  1.0000
  C   C323      1.0  0.11902  0.59729  0.86215  1.0000
  C   C324      1.0  0.12182  0.60922  0.84805  1.0000
  C   C325      1.0  0.13090  0.61718  0.85295  1.0000
  H   H523      1.0  0.13980  0.59803  0.89929  1.0000
  H   H524      1.0  0.12358  0.58401  0.89102  1.0000
  H   H525      1.0  0.11671  0.61236  0.83405  1.0000
  H   H526      1.0  0.13280  0.62647  0.84264  1.0000
  N   N17       1.0  0.08071  0.58505  0.80038  1.0000
  C   C326      1.0  0.07317  0.57788  0.82941  1.0000
  C   C327      1.0  0.07924  0.57830  0.77824  1.0000
  C   C328      1.0  0.09328  0.58697  0.80208  1.0000
  C   C329      1.0  0.07836  0.59699  0.79182  1.0000
  C   C330      1.0  0.06553  0.59722  0.79272  1.0000
  C   C331      1.0  0.07381  0.58374  0.85429  1.0000
  C   C332      1.0  0.10280  0.59266  0.77358  1.0000
  C   C333      1.0  0.06684  0.57054  0.78160  1.0000
  C   C334      1.0  0.06591  0.56688  0.75434  1.0000
  C   C335      1.0  0.06404  0.60975  0.78901  1.0000
  C   C336      1.0  0.06527  0.57597  0.88209  1.0000
  C   C337      1.0  0.11502  0.59369  0.77849  1.0000
  H   H527      1.0  0.07551  0.56931  0.83502  1.0000
  H   H528      1.0  0.06382  0.57545  0.82953  1.0000
  H   H529      1.0  0.08227  0.58441  0.75643  1.0000
  H   H530      1.0  0.08493  0.57203  0.77832  1.0000
  H   H531      1.0  0.09500  0.57846  0.81194  1.0000
  H   H532      1.0  0.09504  0.59286  0.81609  1.0000
  H   H533      1.0  0.08163  0.60276  0.80493  1.0000
  H   H534      1.0  0.08348  0.60163  0.76961  1.0000
  H   H535      1.0  0.05940  0.59183  0.81316  1.0000
  H   H536      1.0  0.06297  0.59402  0.77493  1.0000
  H   H537      1.0  0.08265  0.58512  0.85801  1.0000
  H   H538      1.0  0.07160  0.59234  0.84990  1.0000
  H   H539      1.0  0.10218  0.60164  0.76400  1.0000
  H   H540      1.0  0.10201  0.58734  0.75799  1.0000
  H   H541      1.0  0.06503  0.56241  0.79902  1.0000
  H   H542      1.0  0.05986  0.57500  0.78692  1.0000
  H   H543      1.0  0.06672  0.57470  0.73700  1.0000
  H   H544      1.0  0.07293  0.56259  0.74758  1.0000
  H   H545      1.0  0.16151  0.68446  0.97004  1.0000
  H   H546      1.0  0.06625  0.61340  0.80659  1.0000
  H   H547      1.0  0.06976  0.61557  0.76841  1.0000
  H   H548      1.0  0.05483  0.60971  0.78912  1.0000
  H   H549      1.0  0.06739  0.56735  0.88785  1.0000
  H   H550      1.0  0.06595  0.58034  0.89952  1.0000
  H   H551      1.0  0.05613  0.57450  0.88007  1.0000
  H   H552      1.0  0.11666  0.59982  0.79203  1.0000
  H   H553      1.0  0.11596  0.58495  0.78906  1.0000
  H   H554      1.0  0.12171  0.59708  0.75780  1.0000
  C   C338      1.0  0.10206  0.55870  0.69036  1.0000
  C   C339      1.0  0.01385  0.57022  0.74221  1.0000
  H   H555      1.0  0.09253  0.55465  0.69979  1.0000
  H   H556      1.0  0.00438  0.55642  0.72713  1.0000
  H   H557      1.0  0.24245  0.67946  0.57777  1.0000
  H   H558      1.0  0.09476  0.56104  0.59303  1.0000
  H   H559      1.0  0.07898  0.58908  0.93149  1.0000
  H   H560      1.0  0.17354  0.55541  0.95470  1.0000
  H   H561      1.0  0.24596  0.74873  0.53187  1.0000
  Fe  Fe52      1.0  0.24271  0.72540  0.62126  1.0000
  H   H562      1.0  0.19652  0.58828  0.48707  1.0000
  H   H563      1.0  0.12676  0.54695  0.63435  1.0000
  H   H564      1.0  0.20311  0.51952  0.96913  1.0000
  H   H565      1.0  0.15353  0.54721  0.94963  1.0000
  H   H566      1.0  0.13449  0.60808  0.48258  1.0000
  H   H567      1.0  0.09177  0.51739  0.75142  1.0000
  C   C340      1.0  0.24189  0.68420  0.55653  1.0000
  C   C341      1.0  0.09894  0.55382  0.64690  1.0000
  C   C342      1.0  0.21888  0.60659  0.48708  1.0000
  H   H568      1.0  0.17239  0.64216  0.93985  1.0000
  H   H569      1.0  0.14713  0.65432  0.51918  1.0000
  H   H570      1.0  0.23562  0.62995  0.97285  1.0000
  C   C343      1.0  0.08393  0.53248  0.48207  1.0000
  C   C344      1.0  0.08360  0.58396  0.94449  1.0000
  C   C345      1.0  0.08334  0.57250  0.93560  1.0000
  N   N18       1.0  0.10662  0.55302  0.66738  1.0000
  C   C346      1.0  0.09240  0.60228  0.97647  1.0000
  H   H571      1.0  0.10647  0.56305  0.75537  1.0000
  H   H572      1.0  0.00252  0.50433  0.66598  1.0000
  C   C347      1.0  0.10541  0.51935  0.67859  1.0000
  H   H573      1.0  0.14381  0.61684  0.49864  1.0000
  H   H574      1.0  0.23870  0.59286  0.51667  1.0000
  H   H575      1.0  0.07416  0.56732  0.93983  1.0000
  C   C348      1.0  0.15398  0.65645  0.49887  1.0000
  C   C349      1.0  0.22335  0.61456  0.97109  1.0000
  H   H576      1.0  0.17768  0.60936  0.49118  1.0000
  H   H577      1.0  0.00526  0.52445  0.71874  1.0000
  H   H578      1.0  0.09421  0.62000  0.85347  1.0000
  H   H579      1.0  0.22040  0.62808  0.74738  1.0000
  H   H580      1.0  0.16131  0.65679  0.94565  1.0000
  C   C350      1.0  0.22367  0.62030  0.74841  1.0000
  Fe  Fe53      1.0  0.24542  0.72375  0.87173  1.0000
  S   S98       1.0  0.24616  0.73886  0.64585  1.0000
  H   H581      1.0  0.22741  0.72391  0.49556  1.0000
  H   H582      1.0  0.07369  0.59760  0.97628  1.0000
  H   H583      1.0  0.11452  0.52025  0.68062  1.0000
  S   S99       1.0  0.23317  0.72549  0.72554  1.0000
  H   H584      1.0  0.10355  0.51290  0.66596  1.0000
  H   H585      1.0  0.10667  0.54856  0.72714  1.0000
  N   N19       1.0  0.18871  0.54816  0.95088  1.0000
  H   H586      1.0  0.05732  0.56062  0.75786  1.0000
  H   H587      1.0  0.00100  0.50600  0.76158  1.0000
  H   H588      1.0  0.13583  0.67070  0.51113  1.0000
  H   H589      1.0  0.21764  0.70216  0.49649  1.0000
  C   C351      1.0  0.23959  0.58419  0.48247  1.0000
  H   H590      1.0  0.11124  0.57125  0.96121  1.0000
  H   H591      1.0  0.24795  0.58329  0.51697  1.0000
  C   C352      1.0  0.00515  0.50337  0.71869  1.0000
  H   H592      1.0  0.09227  0.57500  0.59709  1.0000
  H   H593      1.0  0.16697  0.63463  0.97716  1.0000
  H   H594      1.0  0.24312  0.64048  0.72206  1.0000
  H   H595      1.0  0.18116  0.58547  0.50307  1.0000
  H   H596      1.0  0.21628  0.67571  0.51081  1.0000
  H   H597      1.0  0.01401  0.50943  0.71359  1.0000
  C   C353      1.0  0.19163  0.53769  0.96780  1.0000
  C   C354      1.0  0.00193  0.51238  0.67323  1.0000
  C   C355      1.0  0.10564  0.54029  0.68154  1.0000
  H   H598      1.0  0.13469  0.61316  0.93633  1.0000
  C   C356      1.0  0.14403  0.67787  0.50566  1.0000
  H   H599      1.0  0.21774  0.59354  0.52523  1.0000
  C   C357      1.0  0.09970  0.56637  0.62929  1.0000
  C   C358      1.0  0.16898  0.54070  0.93796  1.0000
  H   H600      1.0  0.16264  0.65999  0.50223  1.0000
  H   H601      1.0  0.21654  0.67161  0.94832  1.0000
  H   H602      1.0  0.20354  0.55997  0.95730  1.0000
  C   C359      1.0  0.22998  0.57315  0.49942  1.0000
  H   H603      1.0  0.08801  0.56705  0.94769  1.0000
  S   S100      1.0  0.23849  0.57503  0.88544  1.0000
  H   H604      1.0  0.22739  0.62227  0.70293  1.0000
  H   H605      1.0  0.17081  0.65618  0.96940  1.0000
  C   C360      1.0  0.14800  0.58388  0.82684  1.0000
  H   H606      1.0  0.15135  0.57595  0.83184  1.0000
  H   H607      1.0  0.14144  0.58402  0.84594  1.0000
  H   H608      1.0  0.14359  0.58323  0.80948  1.0000
  C   C361      1.0  0.01730  0.52502  0.62851  1.0000
  C   C362      1.0  0.21728  0.68413  0.51703  1.0000
  S   S101      1.0  0.10951  0.63571  0.96998  1.0000
  H   H609      1.0  0.07877  0.58159  0.96726  1.0000
  N   N20       1.0  0.12682  0.65238  0.67328  1.0000
  C   C363      1.0  0.13865  0.65914  0.67434  1.0000
  C   C364      1.0  0.12725  0.65025  0.64407  1.0000
  C   C365      1.0  0.11839  0.65992  0.67864  1.0000
  C   C366      1.0  0.12230  0.64093  0.69606  1.0000
  C   C367      1.0  0.13018  0.63227  0.69627  1.0000
  C   C368      1.0  0.13939  0.66204  0.70311  1.0000
  C   C369      1.0  0.10586  0.65518  0.67577  1.0000
  C   C370      1.0  0.13884  0.64842  0.62743  1.0000
  C   C371      1.0  0.13714  0.64364  0.60193  1.0000
  C   C372      1.0  0.12519  0.62175  0.72232  1.0000
  C   C373      1.0  0.15194  0.66800  0.70222  1.0000
  C   C374      1.0  0.09859  0.66409  0.67904  1.0000
  H   H610      1.0  0.14158  0.66760  0.65748  1.0000
  H   H611      1.0  0.14543  0.65437  0.66934  1.0000
  H   H612      1.0  0.11999  0.64258  0.64550  1.0000
  H   H613      1.0  0.12563  0.65783  0.62955  1.0000
  H   H614      1.0  0.12202  0.66890  0.66393  1.0000
  H   H615      1.0  0.11717  0.66107  0.70063  1.0000
  H   H616      1.0  0.12023  0.64258  0.71752  1.0000
  H   H617      1.0  0.11383  0.63599  0.69401  1.0000
  H   H618      1.0  0.13914  0.63647  0.69690  1.0000
  H   H619      1.0  0.13054  0.62874  0.67728  1.0000
  H   H620      1.0  0.13398  0.66817  0.70799  1.0000
  H   H621      1.0  0.13646  0.65396  0.72097  1.0000
  H   H622      1.0  0.10128  0.64699  0.69270  1.0000
  H   H623      1.0  0.10594  0.65331  0.65478  1.0000
  H   H624      1.0  0.14554  0.65698  0.61926  1.0000
  H   H625      1.0  0.14240  0.64223  0.64080  1.0000
  H   H626      1.0  0.13091  0.63478  0.60923  1.0000
  H   H627      1.0  0.13364  0.64958  0.58758  1.0000
  H   H628      1.0  0.14563  0.64289  0.58973  1.0000
  H   H629      1.0  0.11638  0.61686  0.72206  1.0000
  H   H630      1.0  0.13105  0.61572  0.72204  1.0000
  H   H631      1.0  0.12452  0.62466  0.74230  1.0000
  H   H632      1.0  0.15528  0.67633  0.68508  1.0000
  H   H633      1.0  0.15218  0.67008  0.72291  1.0000
  H   H634      1.0  0.15776  0.66207  0.69863  1.0000
  H   H635      1.0  0.08961  0.66044  0.67746  1.0000
  H   H636      1.0  0.09793  0.66604  0.70015  1.0000
  H   H637      1.0  0.10254  0.67238  0.66195  1.0000
  Fe  Fe54      1.0  0.24342  0.72382  0.68373  1.0000
  H   H638      1.0  0.13604  0.57322  0.60326  1.0000
  H   H639      1.0  0.04383  0.53194  0.73759  1.0000
  H   H640      1.0  0.10491  0.50571  0.51019  1.0000
  C   C375      1.0  0.08783  0.57316  0.50151  1.0000
  C   C376      1.0  0.18933  0.59254  0.49275  1.0000
  C   C377      1.0  0.24604  0.71973  0.55013  1.0000
  H   H641      1.0  0.18211  0.69176  0.96723  1.0000
  C   C378      1.0  0.08297  0.55983  0.51650  1.0000
  H   H642      1.0  0.19150  0.55836  0.90772  1.0000
  C   C379      1.0  0.16488  0.64007  0.95883  1.0000
  C   C380      1.0  0.11744  0.60168  0.95852  1.0000
  H   H643      1.0  0.18874  0.73049  0.81849  1.0000
  C   C381      1.0  0.07283  0.55767  0.54269  1.0000
  C   C382      1.0  0.24788  0.72006  0.80381  1.0000
  H   H644      1.0  0.24536  0.63778  0.76980  1.0000
  H   H645      1.0  0.10994  0.53413  0.64226  1.0000
  C   C383      1.0  0.09188  0.56592  0.60873  1.0000
  H   H646      1.0  0.08041  0.57696  0.49792  1.0000
  H   H647      1.0  0.09106  0.57723  0.51752  1.0000
  H   H648      1.0  0.15710  0.63491  0.95421  1.0000
  S   S102      1.0  0.23154  0.72710  0.58980  1.0000
  H   H649      1.0  0.05251  0.58719  0.67637  1.0000
  C   C384      1.0  0.21699  0.64656  0.55298  1.0000
  H   H650      1.0  0.09936  0.59620  0.49982  1.0000
  C   C385      1.0  0.24555  0.59021  0.50252  1.0000
  H   H651      1.0  0.08986  0.55619  0.52399  1.0000
  H   H652      1.0  0.07975  0.55478  0.50211  1.0000
  C   C386      1.0  0.24238  0.68242  0.64479  1.0000
  H   H653      1.0  0.22167  0.72856  0.54199  1.0000
  C   C387      1.0  0.23518  0.72821  0.77762  1.0000
  C   C388      1.0  0.20743  0.55297  0.90930  1.0000
  H   H654      1.0  0.10158  0.59134  0.91891  1.0000
  H   H655      1.0  0.09468  0.62925  0.87770  1.0000
  H   H656      1.0  0.15658  0.63882  0.50792  1.0000
  C   C389      1.0  0.19397  0.55883  0.96002  1.0000
  H   H657      1.0  0.17744  0.58413  0.82192  1.0000
  H   H658      1.0  0.21194  0.71110  0.77020  1.0000
  H   H659      1.0  0.06970  0.54809  0.55322  1.0000
  H   H660      1.0  0.07567  0.56223  0.55836  1.0000
  H   H661      1.0  0.06542  0.56076  0.53651  1.0000
  H   H662      1.0  0.21360  0.65633  0.58385  1.0000
  C   C390      1.0  0.01761  0.59324  0.65673  1.0000
  H   H663      1.0  0.22897  0.68805  0.87650  1.0000
  C   C391      1.0  0.11920  0.55952  0.65320  1.0000
  H   H664      1.0  0.06543  0.52426  0.49721  1.0000
  S   S103      1.0  0.21342  0.58671  0.92477  1.0000
  C   C392      1.0  0.19392  0.55057  0.91923  1.0000
  H   H665      1.0  0.21865  0.68779  0.81158  1.0000
  C   C393      1.0  0.01435  0.52089  0.66097  1.0000
  H   H666      1.0  0.08337  0.60809  0.93097  1.0000
  H   H667      1.0  0.02106  0.51638  0.66650  1.0000
  H   H668      1.0  0.20820  0.55995  0.86451  1.0000
  C   C394      1.0  0.02944  0.59609  0.64133  1.0000
  H   H669      1.0  0.03169  0.59316  0.62219  1.0000
  H   H670      1.0  0.21163  0.68471  0.62912  1.0000
  H   H671      1.0  0.10670  0.61534  0.88571  1.0000
  C   C395      1.0  0.15809  0.59498  0.81733  1.0000
  H   H672      1.0  0.16420  0.58850  0.85467  1.0000
  H   H673      1.0  0.15664  0.59944  0.85709  1.0000
  C   C396      1.0  0.21726  0.69571  0.81844  1.0000
  H   H674      1.0  0.22407  0.69832  0.76047  1.0000
  H   H675      1.0  0.01522  0.52881  0.66927  1.0000
  H   H676      1.0  0.02907  0.53590  0.71168  1.0000
  H   H677      1.0  0.19018  0.54323  0.91080  1.0000
  H   H678      1.0  0.15456  0.60253  0.80942  1.0000
  H   H679      1.0  0.19507  0.71635  0.79275  1.0000
  H   H680      1.0  0.22881  0.73332  0.77618  1.0000
  H   H681      1.0  0.17780  0.63966  0.78132  1.0000
  H   H682      1.0  0.23890  0.68892  0.65309  1.0000
  C   C397      1.0  0.16342  0.59703  0.84233  1.0000
  H   H683      1.0  0.16461  0.59399  0.79933  1.0000
  H   H684      1.0  0.16244  0.60542  0.89155  1.0000
  H   H685      1.0  0.21874  0.70193  0.85666  1.0000
  H   H686      1.0  0.09291  0.55992  0.74540  1.0000
  C   C398      1.0  0.02438  0.54986  0.73045  1.0000
  H   H687      1.0  0.00592  0.59526  0.69328  1.0000
  H   H688      1.0  0.19066  0.50826  0.96963  1.0000
  C   C399      1.0  0.02391  0.60395  0.69010  1.0000
  H   H689      1.0  0.21490  0.70593  0.72159  1.0000
  H   H690      1.0  0.05744  0.58582  0.70841  1.0000
  H   H691      1.0  0.21224  0.68532  0.77292  1.0000
  C   C400      1.0  0.22899  0.68720  0.52522  1.0000
  C   C401      1.0  0.23277  0.72294  0.51040  1.0000
  C   C402      1.0  0.23910  0.72340  0.75516  1.0000
  C   C403      1.0  0.17141  0.61125  0.88330  1.0000
  H   H692      1.0  0.17077  0.61765  0.80002  1.0000
  H   H693      1.0  0.17933  0.59784  0.87193  1.0000
  H   H694      1.0  0.17092  0.62030  0.87416  1.0000
  H   H695      1.0  0.18528  0.61803  0.90211  1.0000
  H   H696      1.0  0.17070  0.61457  0.92479  1.0000
  C   C404      1.0  0.21457  0.69487  0.76277  1.0000
  C   C405      1.0  0.18831  0.52596  0.95962  1.0000
  H   H697      1.0  0.09463  0.60311  0.88928  1.0000
  H   H698      1.0  0.20264  0.67371  0.82686  1.0000
  N   N21       1.0  0.17487  0.60626  0.83427  1.0000
  C   C406      1.0  0.17898  0.60672  0.86084  1.0000
  C   C407      1.0  0.17655  0.61167  0.90883  1.0000
  H   H699      1.0  0.15586  0.68498  0.52987  1.0000
  H   H700      1.0  0.15260  0.66933  0.53678  1.0000
  C   C408      1.0  0.21140  0.69112  0.60972  1.0000
  C   C409      1.0  0.21267  0.69645  0.73286  1.0000
  C   C410      1.0  0.18417  0.60337  0.81344  1.0000
  C   C411      1.0  0.17298  0.61791  0.82058  1.0000
  C   C412      1.0  0.18549  0.59060  0.82144  1.0000
  H   H701      1.0  0.18270  0.60512  0.79173  1.0000
  H   H702      1.0  0.18740  0.58856  0.84255  1.0000
  H   H703      1.0  0.19109  0.62788  0.79806  1.0000
  H   H704      1.0  0.03900  0.56746  0.67432  1.0000
  H   H705      1.0  0.22781  0.68032  0.84930  1.0000
  C   C413      1.0  0.18354  0.62874  0.81383  1.0000
  H   H706      1.0  0.20342  0.69239  0.73394  1.0000
  H   H707      1.0  0.20392  0.59452  0.79995  1.0000
  H   H708      1.0  0.19600  0.57953  0.80557  1.0000
  H   H709      1.0  0.17735  0.60283  0.91905  1.0000
  C   C414      1.0  0.04186  0.57232  0.71201  1.0000
  H   H710      1.0  0.21220  0.69989  0.61425  1.0000
  C   C415      1.0  0.10787  0.55786  0.71564  1.0000
  H   H711      1.0  0.21839  0.69214  0.72031  1.0000
  C   C416      1.0  0.18038  0.64006  0.80138  1.0000
  C   C417      1.0  0.19551  0.58882  0.79982  1.0000
  H   H712      1.0  0.16522  0.61964  0.83391  1.0000
  H   H713      1.0  0.18812  0.61220  0.85529  1.0000
  H   H714      1.0  0.24800  0.60932  0.95557  1.0000
  H   H715      1.0  0.13182  0.66817  0.56238  1.0000
  H   H716      1.0  0.23781  0.65840  0.69846  1.0000
  H   H717      1.0  0.03096  0.57726  0.68400  1.0000
  H   H718      1.0  0.00735  0.56194  0.66787  1.0000
  H   H719      1.0  0.19453  0.67707  0.80060  1.0000
  H   H720      1.0  0.19290  0.60931  0.81085  1.0000
  H   H721      1.0  0.18807  0.64767  0.79661  1.0000
  H   H722      1.0  0.21988  0.64787  0.52957  1.0000
  H   H723      1.0  0.17306  0.64145  0.81688  1.0000
  Fe  Fe55      1.0  0.24026  0.71845  0.93658  1.0000
  H   H724      1.0  0.04468  0.59108  0.70658  1.0000
  C   C418      1.0  0.19498  0.67687  0.82276  1.0000
  C   C419      1.0  0.20748  0.70162  0.78034  1.0000
  N   N22       1.0  0.20636  0.69878  0.81212  1.0000
  H   H725      1.0  0.18639  0.62980  0.83319  1.0000
  H   H726      1.0  0.02263  0.56917  0.65067  1.0000
  H   H727      1.0  0.17599  0.67038  0.83892  1.0000
  H   H728      1.0  0.19418  0.59090  0.77803  1.0000
  C   C420      1.0  0.03350  0.56917  0.69315  1.0000
  S   S104      1.0  0.23170  0.71000  0.90690  1.0000
  N   N23       1.0  0.02271  0.55910  0.70701  1.0000
  C   C421      1.0  0.01611  0.56055  0.66005  1.0000
  H   H729      1.0  0.02372  0.55251  0.62762  1.0000
  C   C422      1.0  0.18403  0.66782  0.84247  1.0000
  H   H730      1.0  0.19867  0.70037  0.77610  1.0000
  C   C423      1.0  0.09661  0.50435  0.50366  1.0000
  C   C424      1.0  0.13922  0.67596  0.55887  1.0000
  C   C425      1.0  0.12905  0.60964  0.95832  1.0000
  C   C426      1.0  0.19544  0.68919  0.82792  1.0000
  C   C427      1.0  0.04960  0.58484  0.69996  1.0000
  C   C428      1.0  0.01952  0.55305  0.68481  1.0000
  C   C429      1.0  0.01525  0.55437  0.63635  1.0000
  H   H731      1.0  0.21069  0.54607  0.92143  1.0000
  C   C430      1.0  0.11083  0.60838  0.93957  1.0000
  H   H732      1.0  0.18406  0.66703  0.86514  1.0000
  C   C431      1.0  0.23475  0.67300  0.64013  1.0000
  C   C432      1.0  0.13708  0.56428  0.61173  1.0000
  H   H733      1.0  0.01079  0.57019  0.70165  1.0000
  H   H734      1.0  0.13586  0.68397  0.55640  1.0000
  C   C433      1.0  0.21674  0.65827  0.56031  1.0000
  H   H735      1.0  0.22968  0.69506  0.59084  1.0000
  H   H736      1.0  0.02694  0.54984  0.67477  1.0000
  H   H737      1.0  0.04765  0.56624  0.71308  1.0000
  H   H738      1.0  0.03716  0.57172  0.73405  1.0000
  H   H739      1.0  0.13693  0.65820  0.96958  1.0000
  H   H740      1.0  0.10298  0.56822  0.68137  1.0000
  H   H741      1.0  0.19385  0.68827  0.85110  1.0000
  C   C434      1.0  0.20530  0.70969  0.82206  1.0000
  H   H742      1.0  0.15048  0.66860  0.95418  1.0000
  S   S105      1.0  0.24495  0.63527  0.57427  1.0000
  C   C435      1.0  0.13659  0.68249  0.95179  1.0000
  C   C436      1.0  0.01494  0.59715  0.68140  1.0000
  C   C437      1.0  0.24265  0.71864  0.50389  1.0000
  C   C438      1.0  0.09715  0.61183  0.89365  1.0000
  H   H743      1.0  0.13062  0.57285  0.48437  1.0000
  H   H744      1.0  0.23585  0.68708  0.50665  1.0000
  H   H745      1.0  0.11231  0.61755  0.94176  1.0000
  H   H746      1.0  0.14112  0.68618  0.50278  1.0000
  H   H747      1.0  0.11543  0.60909  0.91725  1.0000
  H   H748      1.0  0.04093  0.54866  0.70388  1.0000
  H   H749      1.0  0.10085  0.54874  0.63106  1.0000
  H   H750      1.0  0.18662  0.70926  0.82884  1.0000
  H   H751      1.0  0.10386  0.57347  0.72695  1.0000
  H   H752      1.0  0.01595  0.56477  0.76041  1.0000
  C   C439      1.0  0.10383  0.53118  0.66371  1.0000
  H   H753      1.0  0.23446  0.66273  0.56243  1.0000
  H   H754      1.0  0.11935  0.59415  0.95030  1.0000
  H   H755      1.0  0.20997  0.68702  0.86440  1.0000
  H   H756      1.0  0.12643  0.64514  0.49862  1.0000
  S   S106      1.0  0.06285  0.50647  0.65690  1.0000
  H   H757      1.0  0.15133  0.53508  0.93368  1.0000
  C   C440      1.0  0.24591  0.65903  0.70602  1.0000
  C   C441      1.0  0.03327  0.54287  0.72068  1.0000
  N   N24       1.0  0.09787  0.60297  0.94558  1.0000
  H   H758      1.0  0.02164  0.60712  0.70883  1.0000
  C   C442      1.0  0.09631  0.59089  0.94051  1.0000
  C   C443      1.0  0.19518  0.71506  0.81544  1.0000
  H   H759      1.0  0.09514  0.62003  0.92884  1.0000
  H   H760      1.0  0.20811  0.64047  0.56098  1.0000
  H   H761      1.0  0.01304  0.56016  0.61880  1.0000
  H   H762      1.0  0.23076  0.69648  0.52621  1.0000
  C   C444      1.0  0.09303  0.61095  0.92586  1.0000
  H   H763      1.0  0.17129  0.54175  0.97968  1.0000
  C   C445      1.0  0.13750  0.67491  0.97962  1.0000
  H   H764      1.0  0.11368  0.59463  0.48508  1.0000
  H   H765      1.0  0.08192  0.61722  0.88353  1.0000
  H   H766      1.0  0.12469  0.55836  0.66849  1.0000
  Fe  Fe56      1.0  0.22154  0.72371  0.90572  1.0000
  H   H767      1.0  0.10561  0.56231  0.48683  1.0000
  H   H768      1.0  0.22101  0.69855  0.56621  1.0000
  H   H769      1.0  0.21363  0.71665  0.81285  1.0000
  C   C446      1.0  0.19136  0.70691  0.90214  1.0000
  H   H770      1.0  0.14289  0.56474  0.62637  1.0000
  C   C447      1.0  0.10244  0.56397  0.73709  1.0000
  H   H771      1.0  0.24073  0.67026  0.95706  1.0000
  H   H772      1.0  0.22299  0.64238  0.56331  1.0000
  H   H773      1.0  0.09686  0.57190  0.64322  1.0000
  C   C448      1.0  0.22618  0.67317  0.94106  1.0000
  C   C449      1.0  0.03759  0.53693  0.74536  1.0000
  C   C450      1.0  0.09161  0.62009  0.87618  1.0000
  H   H774      1.0  0.21173  0.56163  0.91184  1.0000
  C   C451      1.0  0.22947  0.72549  0.53682  1.0000
  S   S107      1.0  0.00663  0.58496  0.64386  1.0000
  S   S108      1.0  0.22595  0.60568  0.56373  1.0000
  N   N25       1.0  0.22998  0.67947  0.55221  1.0000
  H   H775      1.0  0.21196  0.67631  0.57638  1.0000
  S   S109      1.0  0.23521  0.73743  0.86950  1.0000
  H   H776      1.0  0.20388  0.70790  0.84554  1.0000
  H   H777      1.0  0.10971  0.57465  0.50014  1.0000
  C   C452      1.0  0.19634  0.72706  0.82202  1.0000
  H   H778      1.0  0.09799  0.53692  0.70047  1.0000
  H   H779      1.0  0.20861  0.69103  0.48543  1.0000
  C   C453      1.0  0.21697  0.69352  0.49137  1.0000
  H   H780      1.0  0.20113  0.53971  0.96698  1.0000
  H   H781      1.0  0.19141  0.59770  0.50805  1.0000
  C   C454      1.0  0.18083  0.70875  0.89637  1.0000
  H   H782      1.0  0.13205  0.68932  0.95632  1.0000
  H   H783      1.0  0.01208  0.54516  0.69489  1.0000
  H   H784      1.0  0.08265  0.56156  0.62053  1.0000
  C   C455      1.0  0.16613  0.67787  0.97790  1.0000
  H   H785      1.0  0.17948  0.71751  0.89323  1.0000
  H   H786      1.0  0.17079  0.53213  0.93683  1.0000
  S   S110      1.0  0.22621  0.61898  0.93362  1.0000
  H   H787      1.0  0.22176  0.67362  0.59724  1.0000
  H   H788      1.0  0.04225  0.54361  0.75439  1.0000
  C   C456      1.0  0.21997  0.60285  0.51493  1.0000
  C   C457      1.0  0.22096  0.67972  0.57798  1.0000
  C   C458      1.0  0.15576  0.53875  0.94862  1.0000
  H   H789      1.0  0.22957  0.74943  0.51202  1.0000
  H   H790      1.0  0.20288  0.68845  0.60463  1.0000
  H   H791      1.0  0.14544  0.68695  0.93744  1.0000
  H   H792      1.0  0.01093  0.52972  0.62161  1.0000
  H   H793      1.0  0.23249  0.68490  0.97935  1.0000
  H   H794      1.0  0.12007  0.56917  0.64691  1.0000
  H   H795      1.0  0.19166  0.52695  0.93653  1.0000
  H   H796      1.0  0.21051  0.59846  0.97647  1.0000
  S   S111      1.0  0.24457  0.70813  0.97526  1.0000
  H   H797      1.0  0.20806  0.54454  0.87426  1.0000
  C   C459      1.0  0.01250  0.56370  0.71880  1.0000
  H   H798      1.0  0.22109  0.55569  0.87083  1.0000
  H   H799      1.0  0.10875  0.57081  0.61631  1.0000
  H   H800      1.0  0.23015  0.68272  0.93136  1.0000
  C   C460      1.0  0.16271  0.65151  0.96512  1.0000
  H   H801      1.0  0.24399  0.66036  0.72781  1.0000
  C   C461      1.0  0.23608  0.72389  0.55679  1.0000
  H   H802      1.0  0.21020  0.66182  0.55102  1.0000
  H   H803      1.0  0.13152  0.67699  0.94080  1.0000
  C   C462      1.0  0.22908  0.66697  0.54979  1.0000
  C   C463      1.0  0.22527  0.62680  0.48853  1.0000
  H   H804      1.0  0.23637  0.73021  0.81905  1.0000
  C   C464      1.0  0.21138  0.55330  0.87780  1.0000
  Fe  Fe57      1.0  0.24416  0.74351  0.90176  1.0000
  H   H805      1.0  0.24357  0.61708  0.80042  1.0000
  H   H806      1.0  0.20971  0.68351  0.53467  1.0000
  H   H807      1.0  0.03016  0.53072  0.76232  1.0000
  H   H808      1.0  0.18025  0.69701  0.49916  1.0000
  S   S112      1.0  0.20217  0.71929  0.90380  1.0000
  H   H809      1.0  0.22321  0.57536  0.51475  1.0000
  C   C465      1.0  0.19339  0.51668  0.97530  1.0000
  H   H810      1.0  0.16943  0.67442  0.95978  1.0000
  H   H811      1.0  0.15255  0.60147  0.48308  1.0000
  H   H812      1.0  0.09993  0.58527  0.95528  1.0000
  C   C466      1.0  0.14350  0.66499  0.97427  1.0000
  H   H813      1.0  0.12754  0.61711  0.96730  1.0000
  C   C467      1.0  0.24728  0.71674  0.75723  1.0000
  C   C468      1.0  0.23120  0.66876  0.96593  1.0000
  H   H814      1.0  0.22719  0.65917  0.97434  1.0000
  H   H815      1.0  0.09327  0.51215  0.50620  1.0000
  H   H816      1.0  0.17868  0.52244  0.96602  1.0000
  H   H817      1.0  0.22816  0.66840  0.92447  1.0000
  H   H818      1.0  0.07956  0.61281  0.97482  1.0000
  H   H819      1.0  0.24895  0.62489  0.74124  1.0000
  H   H820      1.0  0.24562  0.62879  0.81781  1.0000
  H   H821      1.0  0.21451  0.74988  0.48498  1.0000
  H   H822      1.0  0.24877  0.59255  0.82925  1.0000
  H   H823      1.0  0.23371  0.56655  0.51120  1.0000
  H   H824      1.0  0.10760  0.55584  0.97879  1.0000
  C   C469      1.0  0.24929  0.71708  0.52381  1.0000
  H   H825      1.0  0.08320  0.50287  0.55815  1.0000
  H   H826      1.0  0.11352  0.52495  0.48207  1.0000
  H   H827      1.0  0.23371  0.76372  0.99450  1.0000
  H   H828      1.0  0.24413  0.75722  0.22418  1.0000
  H   H829      1.0  0.22389  0.76280  0.45866  1.0000
  C   C470      1.0  0.24312  0.76841  0.98859  1.0000
  H   H830      1.0  0.24504  0.76982  0.46079  1.0000
  H   H831      1.0  0.24785  0.75373  0.01206  1.0000
  H   H832      1.0  0.24457  0.77389  0.00362  1.0000
  H   H833      1.0  0.24725  0.77628  0.32836  1.0000
  H   H834      1.0  0.24880  0.76966  0.19349  1.0000
  H   H835      1.0  0.24220  0.76182  0.53590  1.0000
  C   C471      1.0  0.24247  0.76542  0.48404  1.0000
  H   H836      1.0  0.23871  0.77157  0.49477  1.0000
  H   H837      1.0  0.24536  0.77417  0.96661  1.0000
  H   H838      1.0  0.21829  0.76348  0.49493  1.0000
  C   C472      1.0  0.23224  0.75444  0.48932  1.0000
  H   H839      1.0  0.24678  0.75527  0.58384  1.0000
  H   H840      1.0  0.24826  0.75404  0.97528  1.0000
  H   H841      1.0  0.24738  0.77814  0.84974  1.0000
  C   C473      1.0  0.22160  0.75792  0.48149  1.0000
  H   H842      1.0  0.49241  0.11762  0.29636  1.0000
  H   H843      1.0  0.48699  0.05458  0.10335  1.0000
  N   N26       1.0  0.49550  0.09522  0.37477  1.0000
  H   H844      1.0  0.47760  0.08479  0.38428  1.0000
  S   S113      1.0  0.44308  0.00953  0.12925  1.0000
  H   H845      1.0  0.47950  0.01133  0.06678  1.0000
  S   S114      1.0  0.49934  0.07685  0.11291  1.0000
  C   C474      1.0  0.49656  0.07882  0.45064  1.0000
  H   H846      1.0  0.48316  0.08030  0.42844  1.0000
  C   C475      1.0  0.49180  0.10949  0.26150  1.0000
  H   H847      1.0  0.43811  0.02654  0.19025  1.0000
  Fe  Fe58      1.0  0.48555  0.06937  0.15464  1.0000
  S   S115      1.0  0.47374  0.05022  0.16995  1.0000
  S   S116      1.0  0.48017  0.08643  0.15380  1.0000
  H   H848      1.0  0.47814  0.12717  0.35415  1.0000
  H   H849      1.0  0.48984  0.09356  0.43683  1.0000
  C   C476      1.0  0.45287  0.02043  0.13913  1.0000
  C   C477      1.0  0.45723  0.01787  0.16314  1.0000
  C   C478      1.0  0.46376  0.02703  0.17186  1.0000
  C   C479      1.0  0.46642  0.03890  0.15626  1.0000
  C   C480      1.0  0.46266  0.04136  0.13132  1.0000
  C   C481      1.0  0.45584  0.03225  0.12308  1.0000
  H   H850      1.0  0.45526  0.00886  0.17552  1.0000
  H   H851      1.0  0.46668  0.02490  0.19103  1.0000
  H   H852      1.0  0.46474  0.05033  0.11864  1.0000
  H   H853      1.0  0.45266  0.03439  0.10431  1.0000
  H   H854      1.0  0.48813  0.07675  0.37805  1.0000
  H   H855      1.0  0.48033  0.10742  0.35046  1.0000
  H   H856      1.0  0.49631  0.11071  0.39090  1.0000
  C   C482      1.0  0.49002  0.06150  0.05842  1.0000
  H   H857      1.0  0.48516  0.12619  0.38291  1.0000
  C   C483      1.0  0.49010  0.10474  0.38304  1.0000
  H   H858      1.0  0.41748  0.08915  0.14359  1.0000
  H   H859      1.0  0.42633  0.02223  0.17451  1.0000
  H   H860      1.0  0.49053  0.07663  0.47221  1.0000
  H   H861      1.0  0.42341  0.02679  0.20713  1.0000
  H   H862      1.0  0.41021  0.07368  0.15577  1.0000
  H   H863      1.0  0.49118  0.04312  0.13864  1.0000
  C   C484      1.0  0.49225  0.02749  0.10846  1.0000
  H   H864      1.0  0.49023  0.03086  0.06426  1.0000
  H   H865      1.0  0.48214  0.10085  0.40110  1.0000
  H   H866      1.0  0.46842  0.08830  0.08529  1.0000
  C   C485      1.0  0.48950  0.05158  0.08386  1.0000
  Fe  Fe59      1.0  0.49392  0.09163  0.17725  1.0000
  C   C486      1.0  0.49115  0.02367  0.08092  1.0000
  C   C487      1.0  0.48040  0.01344  0.08703  1.0000
  H   H867      1.0  0.48146  0.06378  0.06109  1.0000
  C   C488      1.0  0.48518  0.08612  0.33970  1.0000
  H   H868      1.0  0.47274  0.07684  0.10701  1.0000
  S   S117      1.0  0.49259  0.10649  0.07359  1.0000
  C   C489      1.0  0.49836  0.03720  0.18574  1.0000
  H   H869      1.0  0.49356  0.01977  0.12308  1.0000
  H   H870      1.0  0.48360  0.02856  0.11907  1.0000
  H   H871      1.0  0.43638  0.08500  0.14666  1.0000
  C   C490      1.0  0.48641  0.11269  0.35963  1.0000
  H   H872      1.0  0.48430  0.09476  0.32880  1.0000
  C   C491      1.0  0.49158  0.08590  0.42898  1.0000
  H   H873      1.0  0.46635  0.07839  0.35131  1.0000
  H   H874      1.0  0.49361  0.12360  0.02265  1.0000
  H   H875      1.0  0.48235  0.10675  0.26721  1.0000
  H   H876      1.0  0.46404  0.07280  0.23096  1.0000
  H   H877      1.0  0.49191  0.05873  0.03832  1.0000
  H   H878      1.0  0.48243  0.04396  0.08463  1.0000
  C   C492      1.0  0.47990  0.12098  0.37175  1.0000
  H   H879      1.0  0.48879  0.03626  0.19222  1.0000
  S   S118      1.0  0.49821  0.07405  0.18091  1.0000
  H   H880      1.0  0.49297  0.08448  0.32645  1.0000
  H   H881      1.0  0.49894  0.02075  0.07200  1.0000
  H   H882      1.0  0.44948  0.07495  0.23852  1.0000
  H   H883      1.0  0.46304  0.07321  0.08506  1.0000
  H   H884      1.0  0.46059  0.08435  0.20743  1.0000
  Fe  Fe60      1.0  0.49460  0.09402  0.11286  1.0000
  C   C493      1.0  0.48639  0.08548  0.37058  1.0000
  C   C494      1.0  0.47452  0.07684  0.33948  1.0000
  H   H885      1.0  0.47141  0.11591  0.38698  1.0000
  H   H886      1.0  0.42099  0.07948  0.12170  1.0000
  H   H887      1.0  0.47406  0.07738  0.31714  1.0000
  N   N27       1.0  0.44066  0.06287  0.16884  1.0000
  C   C495      1.0  0.44395  0.06984  0.18938  1.0000
  C   C496      1.0  0.42984  0.06543  0.16073  1.0000
  C   C497      1.0  0.43788  0.04994  0.18393  1.0000
  C   C498      1.0  0.45062  0.06527  0.14271  1.0000
  C   C499      1.0  0.45480  0.07792  0.12310  1.0000
  C   C500      1.0  0.45353  0.06663  0.20384  1.0000
  C   C501      1.0  0.43210  0.04109  0.16887  1.0000
  C   C502      1.0  0.42831  0.07811  0.15855  1.0000
  C   C503      1.0  0.41864  0.08018  0.14401  1.0000
  C   C504      1.0  0.46538  0.07909  0.09871  1.0000
  C   C505      1.0  0.45707  0.07522  0.22123  1.0000
  C   C506      1.0  0.42985  0.02841  0.18636  1.0000
  H   H888      1.0  0.43608  0.06869  0.20698  1.0000
  H   H889      1.0  0.44689  0.07940  0.17890  1.0000
  H   H890      1.0  0.42931  0.06317  0.14027  1.0000
  H   H891      1.0  0.42180  0.05969  0.17689  1.0000
  H   H892      1.0  0.43195  0.04816  0.20560  1.0000
  H   H893      1.0  0.44601  0.04743  0.18714  1.0000
  H   H894      1.0  0.45832  0.06284  0.14876  1.0000
  H   H895      1.0  0.44820  0.05960  0.12875  1.0000
  H   H896      1.0  0.45738  0.08449  0.13486  1.0000
  H   H897      1.0  0.44782  0.08007  0.11313  1.0000
  H   H898      1.0  0.45031  0.05770  0.21868  1.0000
  H   H899      1.0  0.46146  0.06682  0.18793  1.0000
  H   H900      1.0  0.43776  0.04188  0.14766  1.0000
  H   H901      1.0  0.42356  0.04245  0.16600  1.0000
  H   H902      1.0  0.42579  0.07945  0.18024  1.0000
  S   S119      1.0  0.49014  0.09888  0.21727  1.0000
  C   C507      1.0  0.49792  0.11717  0.01609  1.0000
  H   H903      1.0  0.47232  0.01579  0.09663  1.0000
  H   H904      1.0  0.47516  0.06787  0.34919  1.0000
  H   H905      1.0  0.49423  0.11818  0.34262  1.0000
  H   H906      1.0  0.48128  0.00553  0.10170  1.0000
  H   H907      1.0  0.49759  0.07051  0.44521  1.0000
  H   H908      1.0  0.47823  0.00289  0.16507  1.0000
  C   C508      1.0  0.49753  0.11564  0.27831  1.0000
  H   H909      1.0  0.49686  0.06950  0.05681  1.0000
  H   H910      1.0  0.49746  0.02866  0.28100  1.0000
  H   H911      1.0  0.49570  0.02449  0.16205  1.0000
  C   C509      1.0  0.49811  0.10697  0.23726  1.0000
  C   C510      1.0  0.49881  0.10771  0.03696  1.0000
  H   H912      1.0  0.49424  0.01858  0.59342  1.0000
  C   C511      1.0  0.49240  0.04740  0.58559  1.0000
  H   H913      1.0  0.48384  0.10949  0.75659  1.0000
  H   H914      1.0  0.46001  0.11139  0.69259  1.0000
  S   S120      1.0  0.43949  0.00921  0.63098  1.0000
  C   C512      1.0  0.48898  0.12320  0.65126  1.0000
  Fe  Fe61      1.0  0.49422  0.09092  0.67213  1.0000
  H   H915      1.0  0.47436  0.01612  0.55987  1.0000
  H   H916      1.0  0.47984  0.15880  0.59709  1.0000
  H   H917      1.0  0.48378  0.16247  0.62785  1.0000
  H   H918      1.0  0.48571  0.03200  0.63626  1.0000
  Fe  Fe62      1.0  0.48536  0.06945  0.64792  1.0000
  S   S121      1.0  0.47456  0.04998  0.66177  1.0000
  S   S122      1.0  0.48025  0.08660  0.64861  1.0000
  Fe  Fe63      1.0  0.49468  0.09454  0.60762  1.0000
  H   H919      1.0  0.47360  0.02993  0.59081  1.0000
  C   C513      1.0  0.44946  0.02036  0.63959  1.0000
  C   C514      1.0  0.45510  0.01781  0.66126  1.0000
  C   C515      1.0  0.46256  0.02698  0.66790  1.0000
  C   C516      1.0  0.46475  0.03884  0.65267  1.0000
  C   C517      1.0  0.45925  0.04137  0.63074  1.0000
  C   C518      1.0  0.45158  0.03223  0.62452  1.0000
  H   H920      1.0  0.45357  0.00879  0.67320  1.0000
  H   H921      1.0  0.46672  0.02485  0.68491  1.0000
  H   H922      1.0  0.46072  0.05040  0.61887  1.0000
  H   H923      1.0  0.44723  0.03437  0.60788  1.0000
  C   C519      1.0  0.47815  0.12139  0.67638  1.0000
  C   C520      1.0  0.46756  0.11253  0.67429  1.0000
  H   H924      1.0  0.46952  0.10384  0.67507  1.0000
  H   H925      1.0  0.49200  0.11497  0.65486  1.0000
  S   S123      1.0  0.49129  0.09940  0.71022  1.0000
  H   H926      1.0  0.48925  0.14241  0.60202  1.0000
  C   C521      1.0  0.49923  0.03829  0.67085  1.0000
  H   H927      1.0  0.48002  0.11789  0.69699  1.0000
  H   H928      1.0  0.49359  0.02803  0.56168  1.0000
  H   H929      1.0  0.49782  0.05529  0.58930  1.0000
  H   H930      1.0  0.46507  0.11561  0.65425  1.0000
  H   H931      1.0  0.49377  0.11807  0.78956  1.0000
  S   S124      1.0  0.49485  0.10901  0.56925  1.0000
  H   H932      1.0  0.47572  0.12974  0.67728  1.0000
  C   C522      1.0  0.49118  0.02644  0.58525  1.0000
  H   H933      1.0  0.48970  0.03467  0.68077  1.0000
  H   H934      1.0  0.48644  0.06395  0.52599  1.0000
  H   H935      1.0  0.48595  0.04367  0.54902  1.0000
  H   H936      1.0  0.49725  0.02518  0.63313  1.0000
  H   H937      1.0  0.47600  0.00514  0.58881  1.0000
  H   H938      1.0  0.48592  0.12349  0.63163  1.0000
  C   C523      1.0  0.47766  0.02257  0.59619  1.0000
  H   H939      1.0  0.47808  0.06000  0.56261  1.0000
  H   H940      1.0  0.47506  0.01897  0.61962  1.0000
  H   H941      1.0  0.49581  0.00806  0.54845  1.0000
  H   H942      1.0  0.47999  0.00494  0.65971  1.0000
  H   H943      1.0  0.49217  0.00441  0.72267  1.0000
  H   H944      1.0  0.46281  0.01006  0.59221  1.0000
  H   H945      1.0  0.47805  0.14080  0.63307  1.0000
  C   C524      1.0  0.47245  0.01289  0.58336  1.0000
  H   H946      1.0  0.49527  0.04046  0.75145  1.0000
  C   C525      1.0  0.48699  0.06171  0.54843  1.0000
  C   C526      1.0  0.49180  0.05086  0.55417  1.0000
  C   C527      1.0  0.49514  0.03364  0.62582  1.0000
  H   H947      1.0  0.49722  0.05549  0.73178  1.0000
  H   H948      1.0  0.48352  0.04613  0.59957  1.0000
  H   H949      1.0  0.49569  0.05201  0.76961  1.0000
  S   S125      1.0  0.49829  0.07332  0.67419  1.0000
  H   H950      1.0  0.49281  0.06939  0.55202  1.0000
  H   H951      1.0  0.49880  0.05110  0.63428  1.0000
  N   N28       1.0  0.49719  0.03690  0.59395  1.0000
  C   C528      1.0  0.49299  0.10985  0.75471  1.0000
  S   S126      1.0  0.49893  0.07731  0.60579  1.0000
  C   C529      1.0  0.48641  0.15862  0.60977  1.0000
  C   C530      1.0  0.48700  0.14595  0.62068  1.0000
  H   H952      1.0  0.49182  0.14775  0.65908  1.0000
  N   N29       1.0  0.49898  0.13371  0.64743  1.0000
  H   H953      1.0  0.49499  0.13303  0.69247  1.0000
  C   C531      1.0  0.49900  0.10532  0.73371  1.0000
  H   H954      1.0  0.49503  0.16410  0.59585  1.0000
  C   C532      1.0  0.49863  0.11474  0.77356  1.0000
  C   C533      1.0  0.49578  0.14528  0.63956  1.0000
  H   H955      1.0  0.43221  0.48891  0.19046  1.0000
  H   H956      1.0  0.42043  0.49611  0.19329  1.0000
  C   C534      1.0  0.43062  0.48463  0.09777  1.0000
  S   S127      1.0  0.48303  0.47712  0.16877  1.0000
  H   H957      1.0  0.47952  0.44609  0.25400  1.0000
  H   H958      1.0  0.44912  0.47524  0.10511  1.0000
  H   H959      1.0  0.46521  0.48055  0.06077  1.0000
  H   H960      1.0  0.48239  0.46746  0.25098  1.0000
  H   H961      1.0  0.47402  0.49082  0.07490  1.0000
  C   C535      1.0  0.48800  0.44896  0.23757  1.0000
  C   C536      1.0  0.41823  0.48639  0.09754  1.0000
  C   C537      1.0  0.46699  0.48254  0.08055  1.0000
  C   C538      1.0  0.49146  0.47833  0.28345  1.0000
  H   H962      1.0  0.49448  0.48637  0.29045  1.0000
  C   C539      1.0  0.48606  0.46784  0.33597  1.0000
  H   H963      1.0  0.48201  0.47760  0.28505  1.0000
  H   H964      1.0  0.48037  0.48529  0.22597  1.0000
  C   C540      1.0  0.43913  0.49432  0.13131  1.0000
  H   H965      1.0  0.48641  0.45992  0.35161  1.0000
  H   H966      1.0  0.47674  0.46787  0.33787  1.0000
  H   H967      1.0  0.43374  0.48211  0.07771  1.0000
  C   C541      1.0  0.49200  0.46754  0.30592  1.0000
  H   H968      1.0  0.48643  0.45203  0.21632  1.0000
  C   C542      1.0  0.47921  0.48990  0.15243  1.0000
  C   C543      1.0  0.46948  0.49308  0.16671  1.0000
  H   H969      1.0  0.44101  0.48609  0.14199  1.0000
  H   H970      1.0  0.45818  0.48490  0.11995  1.0000
  H   H971      1.0  0.42962  0.47668  0.11515  1.0000
  H   H972      1.0  0.46461  0.48788  0.18790  1.0000
  C   C544      1.0  0.40967  0.47480  0.09962  1.0000
  H   H973      1.0  0.49755  0.45535  0.26557  1.0000
  H   H974      1.0  0.42086  0.48613  0.15466  1.0000
  C   C545      1.0  0.49642  0.45874  0.24413  1.0000
  C   C546      1.0  0.45591  0.48364  0.10003  1.0000
  H   H975      1.0  0.49181  0.44128  0.23748  1.0000
  H   H976      1.0  0.40098  0.47636  0.09872  1.0000
  H   H977      1.0  0.41279  0.47109  0.08163  1.0000
  H   H978      1.0  0.40861  0.46832  0.12008  1.0000
  H   H979      1.0  0.48726  0.45932  0.30219  1.0000
  N   N30       1.0  0.43955  0.49487  0.10045  1.0000
  C   C547      1.0  0.49202  0.47007  0.24139  1.0000
  C   C548      1.0  0.49749  0.49134  0.23529  1.0000
  H   H980      1.0  0.49307  0.47335  0.21807  1.0000
  C   C549      1.0  0.42897  0.49616  0.17957  1.0000
  C   C550      1.0  0.48515  0.49260  0.23296  1.0000
  C   C551      1.0  0.42744  0.49460  0.15064  1.0000
  H   H981      1.0  0.41454  0.48991  0.11526  1.0000
  H   H982      1.0  0.47981  0.49283  0.25378  1.0000
  N   N31       1.0  0.49794  0.47968  0.25307  1.0000
  H   H983      1.0  0.49062  0.47575  0.34136  1.0000
  H   H984      1.0  0.45212  0.49384  0.06357  1.0000
  H   H985      1.0  0.47017  0.47530  0.09176  1.0000
  H   H986      1.0  0.49296  0.49441  0.11387  1.0000
  C   C552      1.0  0.45163  0.49420  0.08599  1.0000
  H   H987      1.0  0.41852  0.49266  0.07743  1.0000
  C   C553      1.0  0.48546  0.49673  0.12512  1.0000
  H   H988      1.0  0.45830  0.50233  0.08450  1.0000
  H   H989      1.0  0.44609  0.50168  0.13253  1.0000
  H   H990      1.0  0.42394  0.50189  0.14128  1.0000
  H   H991      1.0  0.43631  0.50224  0.04623  1.0000
  H   H992      1.0  0.48621  0.48078  0.48151  1.0000
  C   C554      1.0  0.48086  0.48241  0.53774  1.0000
  C   C555      1.0  0.48625  0.45778  0.61132  1.0000
  S   S128      1.0  0.48280  0.47688  0.66439  1.0000
  H   H993      1.0  0.46907  0.48672  0.60245  1.0000
  H   H994      1.0  0.49828  0.49071  0.50895  1.0000
  H   H995      1.0  0.44619  0.49879  0.57555  1.0000
  H   H996      1.0  0.48525  0.46661  0.50469  1.0000
  C   C556      1.0  0.46799  0.49143  0.65870  1.0000
  H   H997      1.0  0.49731  0.47656  0.53189  1.0000
  C   C557      1.0  0.45068  0.49269  0.58630  1.0000
  H   H998      1.0  0.47439  0.47376  0.54271  1.0000
  N   N32       1.0  0.48141  0.48618  0.56467  1.0000
  H   H999      1.0  0.48143  0.46160  0.57199  1.0000
  C   C558      1.0  0.46907  0.48525  0.58097  1.0000
  H   H1000     1.0  0.46118  0.48392  0.67241  1.0000
  C   C559      1.0  0.49063  0.47583  0.49556  1.0000
  C   C560      1.0  0.47961  0.49054  0.65191  1.0000
  H   H1001     1.0  0.47747  0.48859  0.52359  1.0000
  C   C561      1.0  0.49259  0.48171  0.51928  1.0000
  H   H1002     1.0  0.47116  0.46282  0.60254  1.0000
  H   H1003     1.0  0.49586  0.45992  0.60248  1.0000
  C   C562      1.0  0.48833  0.50034  0.63429  1.0000
  H   H1004     1.0  0.48619  0.48092  0.60406  1.0000
  H   H1005     1.0  0.48439  0.45966  0.63251  1.0000
  C   C563      1.0  0.46503  0.50189  0.64735  1.0000
  H   H1006     1.0  0.49585  0.47919  0.57442  1.0000
  H   H1007     1.0  0.49712  0.40043  0.90460  1.0000
  C   C564      1.0  0.48056  0.46486  0.59146  1.0000
  H   H1008     1.0  0.49733  0.49983  0.62914  1.0000
  C   C565      1.0  0.48646  0.47824  0.58385  1.0000
  H   H1009     1.0  0.48261  0.44823  0.61430  1.0000
  H   H1010     1.0  0.46338  0.47628  0.58486  1.0000
  C   C566      1.0  0.48825  0.49891  0.55781  1.0000
  H   H1011     1.0  0.44510  0.48357  0.59166  1.0000
  H   H1012     1.0  0.45174  0.49507  0.60626  1.0000
  H   H1013     1.0  0.46112  0.49184  0.54667  1.0000
  C   C567      1.0  0.46262  0.49382  0.56666  1.0000
  H   H1014     1.0  0.49919  0.47560  0.48244  1.0000
  H   H1015     1.0  0.45601  0.50235  0.65221  1.0000
  Fe  Fe64      1.0  0.45390  0.53125  0.11903  1.0000
  S   S129      1.0  0.43416  0.52752  0.13111  1.0000
  Fe  Fe65      1.0  0.45649  0.55713  0.11497  1.0000
  S   S130      1.0  0.43726  0.55572  0.12627  1.0000
  S   S131      1.0  0.47022  0.57409  0.10374  1.0000
  Fe  Fe66      1.0  0.43651  0.53971  0.16004  1.0000
  S   S132      1.0  0.42508  0.53577  0.20549  1.0000
  Fe  Fe67      1.0  0.43637  0.54392  0.09637  1.0000
  S   S133      1.0  0.42405  0.54542  0.06690  1.0000
  S   S134      1.0  0.45594  0.54195  0.15038  1.0000
  S   S135      1.0  0.45578  0.54678  0.08250  1.0000
  H   H1016     1.0  0.44339  0.58783  0.25725  1.0000
  Fe  Fe68      1.0  0.42248  0.56601  0.34048  1.0000
  S   S136      1.0  0.41152  0.57908  0.34352  1.0000
  S   S137      1.0  0.43309  0.56526  0.29707  1.0000
  Fe  Fe69      1.0  0.42098  0.56063  0.40591  1.0000
  S   S138      1.0  0.40980  0.57310  0.41309  1.0000
  H   H1017     1.0  0.26326  0.59383  0.45359  1.0000
  Fe  Fe70      1.0  0.40017  0.56596  0.38359  1.0000
  S   S139      1.0  0.38029  0.56050  0.39310  1.0000
  Fe  Fe71      1.0  0.42193  0.58513  0.37268  1.0000
  S   S140      1.0  0.42909  0.60404  0.37084  1.0000
  S   S141      1.0  0.41046  0.55226  0.37908  1.0000
  S   S142      1.0  0.43380  0.57330  0.36688  1.0000
  H   H1018     1.0  0.45843  0.50522  0.16485  1.0000
  H   H1019     1.0  0.26085  0.59611  0.28694  1.0000
  H   H1020     1.0  0.30823  0.61261  0.28389  1.0000
  H   H1021     1.0  0.26591  0.62720  0.01872  1.0000
  H   H1022     1.0  0.44632  0.58989  0.20910  1.0000
  Fe  Fe72      1.0  0.40605  0.73062  0.18740  1.0000
  S   S143      1.0  0.42484  0.73077  0.18230  1.0000
  Fe  Fe73      1.0  0.39830  0.70398  0.20302  1.0000
  S   S144      1.0  0.41676  0.70232  0.20001  1.0000
  S   S145      1.0  0.38394  0.68701  0.21403  1.0000
  Fe  Fe74      1.0  0.41862  0.71658  0.22315  1.0000
  S   S146      1.0  0.43087  0.71975  0.25155  1.0000
  Fe  Fe75      1.0  0.42126  0.71676  0.15970  1.0000
  S   S147      1.0  0.43419  0.71670  0.11978  1.0000
  S   S148      1.0  0.39978  0.71714  0.22974  1.0000
  S   S149      1.0  0.40281  0.71765  0.16139  1.0000
  Fe  Fe76      1.0  0.34542  0.65757  0.12795  1.0000
  S   S150      1.0  0.34958  0.64010  0.12876  1.0000
  S   S151      1.0  0.35874  0.67503  0.11894  1.0000
  Fe  Fe77      1.0  0.31938  0.64702  0.13746  1.0000
  S   S152      1.0  0.32148  0.62879  0.13949  1.0000
  S   S153      1.0  0.30197  0.65142  0.14232  1.0000
  Fe  Fe78      1.0  0.33379  0.63308  0.16646  1.0000
  S   S154      1.0  0.33162  0.61931  0.20736  1.0000
  Fe  Fe79      1.0  0.33682  0.63748  0.10158  1.0000
  S   S155      1.0  0.34148  0.63091  0.06164  1.0000
  S   S156      1.0  0.33049  0.65075  0.16722  1.0000
  S   S157      1.0  0.33390  0.65555  0.09803  1.0000
  Fe  Fe80      1.0  0.33568  0.62270  0.35931  1.0000
  S   S158      1.0  0.32288  0.60520  0.36977  1.0000
  S   S159      1.0  0.34439  0.63425  0.31470  1.0000
  Fe  Fe81      1.0  0.33261  0.62294  0.42250  1.0000
  H   H1023     1.0  0.38384  0.73481  0.29980  1.0000
  H   H1024     1.0  0.43159  0.60409  0.30919  1.0000
  Fe  Fe82      1.0  0.33201  0.60032  0.40431  1.0000
  S   S160      1.0  0.33626  0.58251  0.41084  1.0000
  Fe  Fe83      1.0  0.31151  0.61175  0.40145  1.0000
  S   S161      1.0  0.29316  0.61417  0.40199  1.0000
  S   S162      1.0  0.34558  0.61752  0.39155  1.0000
  S   S163      1.0  0.32399  0.62966  0.38885  1.0000
  H   H1025     1.0  0.27452  0.73333  0.99219  1.0000
  C   C568      1.0  0.39279  0.73407  0.29086  1.0000
  S   S164      1.0  0.26749  0.62340  0.08514  1.0000
  C   C569      1.0  0.45563  0.59424  0.19783  1.0000
  C   C570      1.0  0.44279  0.69481  0.27835  1.0000
  H   H1026     1.0  0.46805  0.60351  0.99736  1.0000
  C   C571      1.0  0.28012  0.60568  0.39758  1.0000
  C   C572      1.0  0.27833  0.59379  0.39767  1.0000
  C   C573      1.0  0.26742  0.58744  0.39576  1.0000
  C   C574      1.0  0.25822  0.59290  0.39382  1.0000
  C   C575      1.0  0.26017  0.60480  0.39336  1.0000
  C   C576      1.0  0.27104  0.61115  0.39492  1.0000
  H   H1027     1.0  0.28648  0.67538  0.21359  1.0000
  H   H1028     1.0  0.41902  0.73868  0.33258  1.0000
  H   H1029     1.0  0.25340  0.70058  0.32023  1.0000
  H   H1030     1.0  0.27237  0.62037  0.39436  1.0000
  C   C577      1.0  0.33211  0.62717  0.03976  1.0000
  C   C578      1.0  0.32033  0.62736  0.04640  1.0000
  C   C579      1.0  0.31338  0.62502  0.02757  1.0000
  C   C580      1.0  0.31811  0.62249  0.00186  1.0000
  C   C581      1.0  0.32980  0.62195  0.99561  1.0000
  C   C582      1.0  0.33675  0.62431  0.01442  1.0000
  H   H1031     1.0  0.31659  0.62944  0.06590  1.0000
  C   C583      1.0  0.28815  0.74446  0.28401  1.0000
  H   H1032     1.0  0.33017  0.67145  0.41337  1.0000
  H   H1033     1.0  0.34583  0.62408  0.00912  1.0000
  C   C584      1.0  0.33487  0.62376  0.23713  1.0000
  C   C585      1.0  0.33189  0.61537  0.26344  1.0000
  C   C586      1.0  0.33450  0.61857  0.28753  1.0000
  C   C587      1.0  0.34031  0.63015  0.28534  1.0000
  C   C588      1.0  0.34321  0.63856  0.25908  1.0000
  C   C589      1.0  0.34046  0.63540  0.23505  1.0000
  H   H1034     1.0  0.32757  0.60635  0.26514  1.0000
  H   H1035     1.0  0.33219  0.61204  0.30766  1.0000
  H   H1036     1.0  0.34762  0.64757  0.25718  1.0000
  H   H1037     1.0  0.34282  0.64193  0.21485  1.0000
  C   C590      1.0  0.29263  0.64379  0.12566  1.0000
  C   C591      1.0  0.29598  0.63555  0.11167  1.0000
  C   C592      1.0  0.28826  0.62935  0.09906  1.0000
  C   C593      1.0  0.27720  0.63146  0.10020  1.0000
  C   C594      1.0  0.27401  0.63996  0.11338  1.0000
  C   C595      1.0  0.28166  0.64603  0.12630  1.0000
  H   H1038     1.0  0.30451  0.63395  0.11046  1.0000
  H   H1039     1.0  0.29084  0.62290  0.08850  1.0000
  H   H1040     1.0  0.26572  0.64199  0.11333  1.0000
  H   H1041     1.0  0.27908  0.65253  0.13654  1.0000
  C   C596      1.0  0.37647  0.68388  0.18811  1.0000
  C   C597      1.0  0.37697  0.69266  0.16417  1.0000
  C   C598      1.0  0.37121  0.68991  0.14355  1.0000
  C   C599      1.0  0.36500  0.67834  0.14647  1.0000
  C   C600      1.0  0.36423  0.66959  0.17072  1.0000
  C   C601      1.0  0.36989  0.67237  0.19148  1.0000
  H   H1042     1.0  0.38170  0.70160  0.16159  1.0000
  H   H1043     1.0  0.37162  0.69680  0.12523  1.0000
  H   H1044     1.0  0.35939  0.66066  0.17333  1.0000
  H   H1045     1.0  0.36924  0.66551  0.20996  1.0000
  C   C602      1.0  0.42252  0.71585  0.34783  1.0000
  C   C603      1.0  0.43349  0.72226  0.33022  1.0000
  C   C604      1.0  0.43577  0.72369  0.30061  1.0000
  C   C605      1.0  0.42708  0.71883  0.28837  1.0000
  C   C606      1.0  0.41596  0.71281  0.30588  1.0000
  H   H1046     1.0  0.44527  0.71602  0.06353  1.0000
  H   H1047     1.0  0.44027  0.72593  0.33943  1.0000
  H   H1048     1.0  0.44439  0.72838  0.28715  1.0000
  H   H1049     1.0  0.34940  0.60241  0.24751  1.0000
  H   H1050     1.0  0.25203  0.61473  0.00738  1.0000
  C   C607      1.0  0.43112  0.72150  0.08676  1.0000
  H   H1051     1.0  0.39684  0.58459  0.45813  1.0000
  H   H1052     1.0  0.30915  0.64163  0.35552  1.0000
  C   C608      1.0  0.48016  0.68566  0.41258  1.0000
  H   H1053     1.0  0.28058  0.74270  0.16815  1.0000
  H   H1054     1.0  0.36031  0.61735  0.20371  1.0000
  H   H1055     1.0  0.41655  0.72803  0.10347  1.0000
  H   H1056     1.0  0.47100  0.56543  0.27912  1.0000
  Fe  Fe84      1.0  0.25195  0.72644  0.17752  1.0000
  C   C609      1.0  0.35001  0.66445  0.00933  1.0000
  C   C610      1.0  0.36893  0.56794  0.39574  1.0000
  C   C611      1.0  0.35769  0.56123  0.39841  1.0000
  C   C612      1.0  0.34802  0.56600  0.40266  1.0000
  C   C613      1.0  0.34932  0.57770  0.40386  1.0000
  C   C614      1.0  0.36063  0.58470  0.40038  1.0000
  C   C615      1.0  0.37045  0.57981  0.39637  1.0000
  Fe  Fe85      1.0  0.49844  0.63777  0.40078  1.0000
  H   H1057     1.0  0.33939  0.56050  0.40527  1.0000
  H   H1058     1.0  0.36176  0.59373  0.40156  1.0000
  H   H1059     1.0  0.37911  0.58512  0.39425  1.0000
  C   C616      1.0  0.45234  0.60601  0.43210  1.0000
  C   C617      1.0  0.44636  0.59506  0.43024  1.0000
  C   C618      1.0  0.43899  0.59444  0.41191  1.0000
  C   C619      1.0  0.43752  0.60476  0.39557  1.0000
  C   C620      1.0  0.44316  0.61569  0.39831  1.0000
  C   C621      1.0  0.45065  0.61632  0.41641  1.0000
  H   H1060     1.0  0.44757  0.58706  0.44256  1.0000
  H   H1061     1.0  0.43454  0.58596  0.41035  1.0000
  H   H1062     1.0  0.44194  0.62368  0.38595  1.0000
  H   H1063     1.0  0.45581  0.57949  0.17895  1.0000
  C   C622      1.0  0.42670  0.54970  0.02903  1.0000
  C   C623      1.0  0.41754  0.55212  0.01711  1.0000
  H   H1064     1.0  0.37150  0.54399  0.45275  1.0000
  H   H1065     1.0  0.25710  0.59143  0.03495  1.0000
  C   C624      1.0  0.46594  0.50289  0.15365  1.0000
  C   C625      1.0  0.43742  0.55038  0.01061  1.0000
  H   H1066     1.0  0.40921  0.55164  0.03109  1.0000
  H   H1067     1.0  0.27616  0.57992  0.45409  1.0000
  H   H1068     1.0  0.25471  0.70367  0.02301  1.0000
  H   H1069     1.0  0.44459  0.54864  0.01932  1.0000
  C   C626      1.0  0.42726  0.54425  0.23048  1.0000
  C   C627      1.0  0.43736  0.55329  0.22530  1.0000
  C   C628      1.0  0.43892  0.55955  0.24595  1.0000
  C   C629      1.0  0.43039  0.55701  0.27193  1.0000
  C   C630      1.0  0.42023  0.54803  0.27704  1.0000
  C   C631      1.0  0.41872  0.54167  0.25649  1.0000
  H   H1070     1.0  0.44404  0.55537  0.20554  1.0000
  H   H1071     1.0  0.44683  0.56634  0.24185  1.0000
  H   H1072     1.0  0.41360  0.54591  0.29690  1.0000
  H   H1073     1.0  0.41089  0.53468  0.26081  1.0000
  C   C632      1.0  0.47722  0.57533  0.13087  1.0000
  C   C633      1.0  0.48792  0.58360  0.12472  1.0000
  C   C634      1.0  0.28122  0.60383  0.19717  1.0000
  C   C635      1.0  0.47230  0.56808  0.15848  1.0000
  H   H1074     1.0  0.29847  0.60062  0.18679  1.0000
  H   H1075     1.0  0.29819  0.72406  0.17171  1.0000
  H   H1076     1.0  0.46371  0.56223  0.16387  1.0000
  H   H1077     1.0  0.39110  0.52914  0.42176  1.0000
  H   H1078     1.0  0.47105  0.72566  0.35155  1.0000
  C   C636      1.0  0.45716  0.59132  0.05510  1.0000
  C   C637      1.0  0.36650  0.58777  0.98675  1.0000
  H   H1079     1.0  0.28747  0.71097  0.19382  1.0000
  H   H1080     1.0  0.43385  0.74501  0.12301  1.0000
  C   C638      1.0  0.45832  0.58925  0.17204  1.0000
  H   H1081     1.0  0.47190  0.74561  0.01480  1.0000
  H   H1082     1.0  0.43503  0.68816  0.32304  1.0000
  H   H1083     1.0  0.25364  0.62558  0.41740  1.0000
  C   C639      1.0  0.28210  0.66741  0.20818  1.0000
  H   H1084     1.0  0.29038  0.60522  0.34234  1.0000
  S   S165      1.0  0.46791  0.66216  0.42505  1.0000
  H   H1085     1.0  0.36093  0.58313  0.00863  1.0000
  H   H1086     1.0  0.36779  0.59729  0.98593  1.0000
  H   H1087     1.0  0.45315  0.59204  0.15701  1.0000
  C   C640      1.0  0.27660  0.61834  0.99303  1.0000
  H   H1088     1.0  0.37393  0.60266  0.25585  1.0000
  C   C641      1.0  0.39458  0.72796  0.41034  1.0000
  H   H1089     1.0  0.48938  0.63353  0.29004  1.0000
  H   H1090     1.0  0.27763  0.59650  0.18855  1.0000
  H   H1091     1.0  0.28023  0.60053  0.22031  1.0000
  H   H1092     1.0  0.26179  0.60503  0.04470  1.0000
  C   C642      1.0  0.47982  0.59363  0.01239  1.0000
  N   N33       1.0  0.39993  0.68969  0.07519  1.0000
  C   C643      1.0  0.39110  0.69603  0.06658  1.0000
  C   C644      1.0  0.39497  0.67648  0.08198  1.0000
  C   C645      1.0  0.40216  0.69262  0.10208  1.0000
  C   C646      1.0  0.41148  0.69364  0.05294  1.0000
  C   C647      1.0  0.41115  0.69245  0.02271  1.0000
  C   C648      1.0  0.39470  0.70963  0.05990  1.0000
  C   C649      1.0  0.41048  0.68633  0.11571  1.0000
  C   C650      1.0  0.38628  0.67184  0.06523  1.0000
  C   C651      1.0  0.38301  0.65840  0.07237  1.0000
  C   C652      1.0  0.38528  0.56082  0.47083  1.0000
  C   C653      1.0  0.38528  0.71493  0.04999  1.0000
  C   C654      1.0  0.41004  0.68799  0.14552  1.0000
  H   H1093     1.0  0.38275  0.69285  0.08365  1.0000
  H   H1094     1.0  0.38880  0.69393  0.04739  1.0000
  H   H1095     1.0  0.40217  0.67197  0.07933  1.0000
  H   H1096     1.0  0.38995  0.67296  0.10482  1.0000
  H   H1097     1.0  0.39372  0.69061  0.11843  1.0000
  H   H1098     1.0  0.40617  0.70217  0.09826  1.0000
  H   H1099     1.0  0.41583  0.70294  0.05127  1.0000
  H   H1100     1.0  0.41764  0.68855  0.05953  1.0000
  H   H1101     1.0  0.40503  0.69708  0.01425  1.0000
  H   H1102     1.0  0.40861  0.68304  0.02293  1.0000
  H   H1103     1.0  0.39590  0.71261  0.07903  1.0000
  H   H1104     1.0  0.40288  0.71327  0.04263  1.0000
  H   H1105     1.0  0.41966  0.69014  0.10268  1.0000
  H   H1106     1.0  0.40820  0.67674  0.11769  1.0000
  H   H1107     1.0  0.37802  0.67453  0.07113  1.0000
  H   H1108     1.0  0.38990  0.67525  0.04193  1.0000
  H   H1109     1.0  0.37662  0.65534  0.06059  1.0000
  H   H1110     1.0  0.39087  0.65512  0.06618  1.0000
  H   H1111     1.0  0.37888  0.65463  0.09554  1.0000
  C   C655      1.0  0.40047  0.73597  0.31129  1.0000
  H   H1112     1.0  0.26411  0.61216  0.24313  1.0000
  C   C656      1.0  0.43802  0.50669  0.08654  1.0000
  H   H1113     1.0  0.38396  0.71265  0.03011  1.0000
  H   H1114     1.0  0.37688  0.71168  0.06676  1.0000
  H   H1115     1.0  0.38807  0.72466  0.04555  1.0000
  H   H1116     1.0  0.40123  0.68364  0.16008  1.0000
  H   H1117     1.0  0.41658  0.68411  0.15421  1.0000
  H   H1118     1.0  0.41213  0.69749  0.14473  1.0000
  H   H1119     1.0  0.28526  0.58945  0.39957  1.0000
  S   S166      1.0  0.31937  0.60537  0.43751  1.0000
  C   C657      1.0  0.25525  0.59281  0.14660  1.0000
  C   C658      1.0  0.43807  0.72002  0.06208  1.0000
  H   H1120     1.0  0.43274  0.74433  0.35443  1.0000
  H   H1121     1.0  0.46017  0.66922  0.37189  1.0000
  H   H1122     1.0  0.43403  0.61008  0.27148  1.0000
  C   C659      1.0  0.36379  0.60718  0.30429  1.0000
  H   H1123     1.0  0.30433  0.62534  0.03280  1.0000
  H   H1124     1.0  0.40903  0.73449  0.30182  1.0000
  C   C660      1.0  0.40822  0.68219  0.28493  1.0000
  H   H1125     1.0  0.36287  0.59036  0.25617  1.0000
  C   C661      1.0  0.49705  0.63198  0.29664  1.0000
  H   H1126     1.0  0.27208  0.57673  0.99504  1.0000
  C   C662      1.0  0.47188  0.50937  0.12577  1.0000
  C   C663      1.0  0.33653  0.66122  0.02170  1.0000
  C   C664      1.0  0.25183  0.60937  0.46802  1.0000
  C   C665      1.0  0.37037  0.56222  0.99009  1.0000
  H   H1127     1.0  0.49087  0.50394  0.18976  1.0000
  H   H1128     1.0  0.44092  0.72210  0.01680  1.0000
  C   C666      1.0  0.28051  0.58491  0.46718  1.0000
  H   H1129     1.0  0.28745  0.66090  0.20985  1.0000
  H   H1130     1.0  0.39613  0.72925  0.33159  1.0000
  H   H1131     1.0  0.25883  0.64543  0.16975  1.0000
  C   C667      1.0  0.49900  0.63460  0.32197  1.0000
  H   H1132     1.0  0.48642  0.51126  0.09025  1.0000
  C   C668      1.0  0.27256  0.74340  0.46623  1.0000
  C   C669      1.0  0.42323  0.69775  0.00191  1.0000
  H   H1133     1.0  0.26694  0.75109  0.29342  1.0000
  H   H1134     1.0  0.26996  0.73364  0.06094  1.0000
  H   H1135     1.0  0.45147  0.63228  0.04509  1.0000
  H   H1136     1.0  0.27118  0.63588  0.19586  1.0000
  C   C670      1.0  0.25537  0.60009  0.03557  1.0000
  H   H1137     1.0  0.28396  0.74011  0.06587  1.0000
  H   H1138     1.0  0.45000  0.51214  0.04381  1.0000
  H   H1139     1.0  0.40518  0.70636  0.34909  1.0000
  H   H1140     1.0  0.28048  0.74097  0.47097  1.0000
  C   C671      1.0  0.48841  0.55609  0.06076  1.0000
  H   H1141     1.0  0.33237  0.64710  0.98976  1.0000
  S   S167      1.0  0.26653  0.71758  0.17887  1.0000
  H   H1142     1.0  0.26765  0.67984  0.08480  1.0000
  H   H1143     1.0  0.28799  0.60119  0.98790  1.0000
  H   H1144     1.0  0.24941  0.60960  0.24073  1.0000
  C   C672      1.0  0.48910  0.54206  0.16160  1.0000
  H   H1145     1.0  0.45215  0.56557  0.39648  1.0000
  C   C673      1.0  0.44604  0.68397  0.36847  1.0000
  C   C674      1.0  0.43588  0.68939  0.37951  1.0000
  C   C675      1.0  0.47781  0.67152  0.34835  1.0000
  H   H1146     1.0  0.49174  0.58930  0.10344  1.0000
  H   H1147     1.0  0.49025  0.66556  0.46013  1.0000
  N   N34       1.0  0.37715  0.66193  0.29295  1.0000
  C   C676      1.0  0.37037  0.67117  0.29423  1.0000
  C   C677      1.0  0.39018  0.66761  0.28297  1.0000
  C   C678      1.0  0.37388  0.65581  0.27095  1.0000
  C   C679      1.0  0.37408  0.65277  0.32100  1.0000
  C   C680      1.0  0.37518  0.65728  0.34758  1.0000
  C   C681      1.0  0.35683  0.66662  0.30340  1.0000
  C   C682      1.0  0.38057  0.64654  0.26425  1.0000
  C   C683      1.0  0.39485  0.67882  0.29234  1.0000
  H   H1148     1.0  0.29861  0.61512  0.19122  1.0000
  C   C684      1.0  0.36977  0.64734  0.37484  1.0000
  C   C685      1.0  0.35105  0.67667  0.30635  1.0000
  C   C686      1.0  0.37680  0.64142  0.24084  1.0000
  H   H1149     1.0  0.37276  0.67761  0.27301  1.0000
  H   H1150     1.0  0.37280  0.67650  0.30885  1.0000
  H   H1151     1.0  0.39515  0.66108  0.28937  1.0000
  H   H1152     1.0  0.39305  0.67047  0.25919  1.0000
  H   H1153     1.0  0.37516  0.66246  0.25058  1.0000
  H   H1154     1.0  0.36449  0.65111  0.27757  1.0000
  H   H1155     1.0  0.36504  0.64719  0.32537  1.0000
  H   H1156     1.0  0.37974  0.64655  0.31995  1.0000
  H   H1157     1.0  0.37063  0.66432  0.34957  1.0000
  H   H1158     1.0  0.38453  0.66057  0.34671  1.0000
  H   H1159     1.0  0.35356  0.66272  0.28725  1.0000
  H   H1160     1.0  0.35381  0.65994  0.32420  1.0000
  H   H1161     1.0  0.37870  0.63910  0.28332  1.0000
  H   H1162     1.0  0.39016  0.65043  0.25689  1.0000
  S   S168      1.0  0.33777  0.63645  0.44682  1.0000
  H   H1163     1.0  0.47824  0.59793  0.06510  1.0000
  H   H1164     1.0  0.30372  0.62494  0.33587  1.0000
  H   H1165     1.0  0.47707  0.50469  0.21036  1.0000
  H   H1166     1.0  0.31597  0.65600  0.33164  1.0000
  H   H1167     1.0  0.36022  0.64404  0.37753  1.0000
  H   H1168     1.0  0.37396  0.63993  0.37437  1.0000
  H   H1169     1.0  0.37099  0.65063  0.39362  1.0000
  H   H1170     1.0  0.35364  0.68352  0.28579  1.0000
  H   H1171     1.0  0.38592  0.59522  0.06458  1.0000
  H   H1172     1.0  0.35359  0.68069  0.32313  1.0000
  H   H1173     1.0  0.36729  0.63708  0.24752  1.0000
  H   H1174     1.0  0.37874  0.64845  0.22082  1.0000
  H   H1175     1.0  0.38163  0.63476  0.23654  1.0000
  N   N35       1.0  0.29435  0.68891  0.14049  1.0000
  C   C687      1.0  0.29199  0.67600  0.15473  1.0000
  C   C688      1.0  0.30646  0.69297  0.12047  1.0000
  C   C689      1.0  0.29441  0.69539  0.16355  1.0000
  C   C690      1.0  0.28531  0.69177  0.12498  1.0000
  C   C691      1.0  0.27932  0.68212  0.11225  1.0000
  C   C692      1.0  0.28030  0.67046  0.17819  1.0000
  C   C693      1.0  0.29731  0.70902  0.15363  1.0000
  C   C694      1.0  0.30879  0.68699  0.09578  1.0000
  C   C695      1.0  0.32167  0.69117  0.07919  1.0000
  Fe  Fe86      1.0  0.27467  0.72871  0.13423  1.0000
  H   H1176     1.0  0.27347  0.66349  0.22388  1.0000
  H   H1177     1.0  0.29942  0.67421  0.16357  1.0000
  H   H1178     1.0  0.29179  0.67072  0.13901  1.0000
  H   H1179     1.0  0.30855  0.70250  0.10985  1.0000
  H   H1180     1.0  0.31311  0.69185  0.13277  1.0000
  H   H1181     1.0  0.30073  0.69305  0.17591  1.0000
  H   H1182     1.0  0.28569  0.69266  0.17914  1.0000
  H   H1183     1.0  0.27803  0.69377  0.13938  1.0000
  H   H1184     1.0  0.28917  0.70006  0.10767  1.0000
  H   H1185     1.0  0.27591  0.66214  0.17427  1.0000
  H   H1186     1.0  0.28560  0.67803  0.10095  1.0000
  H   H1187     1.0  0.27407  0.67606  0.17751  1.0000
  C   C696      1.0  0.25562  0.60700  0.00547  1.0000
  H   H1188     1.0  0.29118  0.71189  0.14144  1.0000
  H   H1189     1.0  0.30638  0.71282  0.14016  1.0000
  H   H1190     1.0  0.30678  0.67729  0.10346  1.0000
  H   H1191     1.0  0.30355  0.68937  0.08060  1.0000
  H   H1192     1.0  0.32428  0.70088  0.07046  1.0000
  H   H1193     1.0  0.32733  0.68860  0.09319  1.0000
  H   H1194     1.0  0.32313  0.68704  0.06118  1.0000
  H   H1195     1.0  0.48218  0.61516  0.35040  1.0000
  H   H1196     1.0  0.48390  0.54036  0.11091  1.0000
  H   H1197     1.0  0.48898  0.70414  0.40175  1.0000
  C   C697      1.0  0.27280  0.68711  0.09128  1.0000
  C   C698      1.0  0.48906  0.57695  0.17338  1.0000
  C   C699      1.0  0.44213  0.75164  0.12030  1.0000
  N   N36       1.0  0.46196  0.59582  0.24486  1.0000
  C   C700      1.0  0.44948  0.59650  0.25472  1.0000
  C   C701      1.0  0.46378  0.59175  0.21760  1.0000
  C   C702      1.0  0.46414  0.58673  0.26774  1.0000
  C   C703      1.0  0.47059  0.60738  0.24087  1.0000
  C   C704      1.0  0.46885  0.61820  0.22074  1.0000
  C   C705      1.0  0.44617  0.59992  0.28323  1.0000
  C   C706      1.0  0.47646  0.58440  0.26124  1.0000
  C   C707      1.0  0.47805  0.62936  0.21854  1.0000
  C   C708      1.0  0.43406  0.60230  0.28800  1.0000
  C   C709      1.0  0.47682  0.57327  0.28209  1.0000
  H   H1198     1.0  0.44722  0.60283  0.23839  1.0000
  H   H1199     1.0  0.47299  0.59544  0.20445  1.0000
  H   H1200     1.0  0.46263  0.58205  0.22240  1.0000
  H   H1201     1.0  0.45748  0.57821  0.27219  1.0000
  H   H1202     1.0  0.46310  0.58930  0.28817  1.0000
  H   H1203     1.0  0.47074  0.60938  0.26169  1.0000
  H   H1204     1.0  0.47965  0.60682  0.23219  1.0000
  H   H1205     1.0  0.46016  0.61976  0.22859  1.0000
  H   H1206     1.0  0.46977  0.61697  0.19898  1.0000
  H   H1207     1.0  0.44584  0.59262  0.30148  1.0000
  H   H1208     1.0  0.45245  0.60795  0.28359  1.0000
  H   H1209     1.0  0.48304  0.59191  0.26310  1.0000
  H   H1210     1.0  0.47914  0.58330  0.23949  1.0000
  H   H1211     1.0  0.45655  0.60379  0.19011  1.0000
  H   H1212     1.0  0.46776  0.59235  0.16082  1.0000
  H   H1213     1.0  0.48693  0.62866  0.20868  1.0000
  H   H1214     1.0  0.47633  0.63706  0.20490  1.0000
  H   H1215     1.0  0.47785  0.63091  0.23990  1.0000
  H   H1216     1.0  0.42744  0.59453  0.28737  1.0000
  H   H1217     1.0  0.48588  0.57217  0.27798  1.0000
  H   H1218     1.0  0.47396  0.57377  0.30440  1.0000
  H   H1219     1.0  0.28185  0.64403  0.01631  1.0000
  C   C710      1.0  0.48640  0.59443  0.42966  1.0000
  C   C711      1.0  0.31231  0.66201  0.04246  1.0000
  C   C712      1.0  0.27628  0.74208  0.05865  1.0000
  C   C713      1.0  0.25653  0.60112  0.18922  1.0000
  C   C714      1.0  0.42185  0.72669  0.08470  1.0000
  H   H1220     1.0  0.29320  0.60799  0.28672  1.0000
  H   H1221     1.0  0.25872  0.59275  0.19725  1.0000
  H   H1222     1.0  0.46446  0.64311  0.02293  1.0000
  C   C715      1.0  0.29638  0.71435  0.17919  1.0000
  H   H1223     1.0  0.27905  0.69341  0.07201  1.0000
  S   S169      1.0  0.46698  0.52072  0.10639  1.0000
  C   C716      1.0  0.47331  0.60352  0.01332  1.0000
  H   H1224     1.0  0.27317  0.60533  0.45961  1.0000
  H   H1225     1.0  0.30287  0.71225  0.19107  1.0000
  H   H1226     1.0  0.38556  0.72605  0.40758  1.0000
  S   S170      1.0  0.47983  0.63679  0.39948  1.0000
  C   C717      1.0  0.37014  0.61828  0.33910  1.0000
  C   C718      1.0  0.48836  0.66606  0.00832  1.0000
  Fe  Fe87      1.0  0.48046  0.65028  0.42511  1.0000
  H   H1227     1.0  0.48308  0.59687  0.31063  1.0000
  C   C719      1.0  0.29432  0.60804  0.18274  1.0000
  S   S171      1.0  0.46195  0.60656  0.45401  1.0000
  C   C720      1.0  0.38432  0.58093  0.31593  1.0000
  H   H1228     1.0  0.41150  0.67508  0.29630  1.0000
  C   C721      1.0  0.49771  0.66599  0.98250  1.0000
  S   S172      1.0  0.43716  0.71101  0.44160  1.0000
  C   C722      1.0  0.47042  0.70134  0.41868  1.0000
  C   C723      1.0  0.27914  0.59504  0.99436  1.0000
  C   C724      1.0  0.30272  0.63217  0.26619  1.0000
  H   H1229     1.0  0.45501  0.62478  0.41838  1.0000
  H   H1230     1.0  0.36544  0.60420  0.20515  1.0000
  H   H1231     1.0  0.45418  0.58648  0.01625  1.0000
  C   C725      1.0  0.25509  0.59392  0.24906  1.0000
  H   H1232     1.0  0.46169  0.58433  0.06058  1.0000
  H   H1233     1.0  0.36356  0.58444  0.33144  1.0000
  C   C726      1.0  0.25976  0.60375  0.15626  1.0000
  H   H1234     1.0  0.37760  0.52685  0.44802  1.0000
  H   H1235     1.0  0.31094  0.65924  0.00115  1.0000
  H   H1236     1.0  0.44378  0.59374  0.03174  1.0000
  H   H1237     1.0  0.42622  0.51833  0.05057  1.0000
  H   H1238     1.0  0.43446  0.69656  0.27477  1.0000
  C   C727      1.0  0.35652  0.66507  0.03256  1.0000
  H   H1239     1.0  0.37502  0.55885  0.00589  1.0000
  H   H1240     1.0  0.37401  0.61693  0.21246  1.0000
  H   H1241     1.0  0.36609  0.66736  0.02293  1.0000
  H   H1242     1.0  0.27826  0.61867  0.16874  1.0000
  H   H1243     1.0  0.30584  0.60660  0.33443  1.0000
  C   C728      1.0  0.29788  0.60426  0.32681  1.0000
  H   H1244     1.0  0.43290  0.69428  0.36216  1.0000
  C   C729      1.0  0.46589  0.67428  0.35058  1.0000
  Fe  Fe88      1.0  0.25197  0.72463  0.11645  1.0000
  C   C730      1.0  0.41899  0.55503  0.98733  1.0000
  C   C731      1.0  0.41942  0.73016  0.05821  1.0000
  S   S173      1.0  0.49663  0.57772  0.19963  1.0000
  H   H1245     1.0  0.28638  0.57989  0.00165  1.0000
  H   H1246     1.0  0.42983  0.69348  0.00917  1.0000
  H   H1247     1.0  0.41307  0.68856  0.45212  1.0000
  H   H1248     1.0  0.41815  0.68404  0.40610  1.0000
  C   C732      1.0  0.39224  0.54030  0.45080  1.0000
  H   H1249     1.0  0.47446  0.56313  0.20100  1.0000
  H   H1250     1.0  0.25690  0.61179  0.31702  1.0000
  H   H1251     1.0  0.27686  0.61482  0.28600  1.0000
  H   H1252     1.0  0.45936  0.56256  0.36401  1.0000
  C   C733      1.0  0.25522  0.62962  0.43490  1.0000
  C   C734      1.0  0.25350  0.72764  0.29845  1.0000
  H   H1253     1.0  0.29523  0.58588  0.34783  1.0000
  H   H1254     1.0  0.27860  0.61332  0.01203  1.0000
  C   C735      1.0  0.29589  0.59135  0.32631  1.0000
  H   H1255     1.0  0.42208  0.67333  0.38810  1.0000
  Fe  Fe89      1.0  0.45497  0.72338  0.42344  1.0000
  H   H1256     1.0  0.29584  0.61137  0.15932  1.0000
  H   H1257     1.0  0.46712  0.53485  0.19992  1.0000
  H   H1258     1.0  0.37351  0.60182  0.33603  1.0000
  C   C736      1.0  0.46030  0.56387  0.38500  1.0000
  H   H1259     1.0  0.30331  0.59007  0.31090  1.0000
  C   C737      1.0  0.44309  0.69464  0.30905  1.0000
  H   H1260     1.0  0.43879  0.69567  0.39181  1.0000
  C   C738      1.0  0.42531  0.67991  0.39930  1.0000
  H   H1261     1.0  0.28505  0.62439  0.33364  1.0000
  H   H1262     1.0  0.46144  0.55563  0.39780  1.0000
  H   H1263     1.0  0.45524  0.61216  0.01993  1.0000
  C   C739      1.0  0.41373  0.71123  0.33556  1.0000
  H   H1264     1.0  0.43468  0.57290  0.03829  1.0000
  C   C740      1.0  0.25579  0.64182  0.19322  1.0000
  H   H1265     1.0  0.28760  0.58834  0.32046  1.0000
  H   H1266     1.0  0.44407  0.51385  0.09152  1.0000
  H   H1267     1.0  0.40171  0.69181  0.43555  1.0000
  H   H1268     1.0  0.42763  0.67542  0.41849  1.0000
  C   C741      1.0  0.44042  0.50976  0.05362  1.0000
  H   H1269     1.0  0.32688  0.65598  0.41479  1.0000
  H   H1270     1.0  0.46277  0.60224  0.32722  1.0000
  H   H1271     1.0  0.37421  0.57457  0.02583  1.0000
  H   H1272     1.0  0.48100  0.61319  0.05115  1.0000
  H   H1273     1.0  0.46694  0.58405  0.34422  1.0000
  H   H1274     1.0  0.46831  0.60666  0.37209  1.0000
  H   H1275     1.0  0.47202  0.61160  0.12768  1.0000
  H   H1276     1.0  0.45954  0.70450  0.36864  1.0000
  C   C742      1.0  0.48066  0.69766  0.41035  1.0000
  H   H1277     1.0  0.45611  0.61770  0.34578  1.0000
  H   H1278     1.0  0.44233  0.67578  0.36275  1.0000
  H   H1279     1.0  0.29622  0.66545  0.03330  1.0000
  C   C743      1.0  0.38723  0.52867  0.44441  1.0000
  H   H1280     1.0  0.25327  0.60914  0.39220  1.0000
  H   H1281     1.0  0.43504  0.57568  0.07240  1.0000
  H   H1282     1.0  0.26981  0.67441  0.03682  1.0000
  H   H1283     1.0  0.45066  0.70797  0.34559  1.0000
  C   C744      1.0  0.29949  0.61241  0.29697  1.0000
  C   C745      1.0  0.45833  0.70435  0.34702  1.0000
  C   C746      1.0  0.27588  0.61589  0.30785  1.0000
  C   C747      1.0  0.44054  0.57539  0.05180  1.0000
  C   C748      1.0  0.46399  0.62029  0.32772  1.0000
  H   H1284     1.0  0.44298  0.70350  0.31180  1.0000
  H   H1285     1.0  0.49605  0.64215  0.02379  1.0000
  H   H1286     1.0  0.41447  0.59305  0.47749  1.0000
  H   H1287     1.0  0.49395  0.54095  0.17824  1.0000
  H   H1288     1.0  0.49643  0.52909  0.12297  1.0000
  H   H1289     1.0  0.49128  0.58763  0.98202  1.0000
  H   H1290     1.0  0.45143  0.59129  0.07577  1.0000
  H   H1291     1.0  0.32324  0.64435  0.33045  1.0000
  H   H1292     1.0  0.45013  0.70189  0.26316  1.0000
  C   C749      1.0  0.25229  0.67204  0.03080  1.0000
  C   C750      1.0  0.45399  0.69101  0.31578  1.0000
  H   H1293     1.0  0.46151  0.58741  0.37652  1.0000
  C   C751      1.0  0.40566  0.69276  0.45353  1.0000
  H   H1294     1.0  0.45181  0.69551  0.43634  1.0000
  C   C752      1.0  0.38415  0.58766  0.05506  1.0000
  Fe  Fe90      1.0  0.43357  0.72380  0.46739  1.0000
  C   C753      1.0  0.49505  0.58802  0.32591  1.0000
  H   H1295     1.0  0.49288  0.63815  0.33459  1.0000
  C   C754      1.0  0.28628  0.62530  0.31032  1.0000
  C   C755      1.0  0.36631  0.60613  0.33403  1.0000
  H   H1296     1.0  0.27518  0.60721  0.32214  1.0000
  H   H1297     1.0  0.37108  0.61729  0.36120  1.0000
  C   C756      1.0  0.28950  0.74789  0.16310  1.0000
  C   C757      1.0  0.47082  0.57407  0.38134  1.0000
  C   C758      1.0  0.46958  0.61001  0.32701  1.0000
  C   C759      1.0  0.46703  0.68771  0.34645  1.0000
  C   C760      1.0  0.44904  0.58736  0.03656  1.0000
  H   H1298     1.0  0.44537  0.56853  0.05579  1.0000
  C   C761      1.0  0.30677  0.62973  0.31286  1.0000
  C   C762      1.0  0.31458  0.64641  0.33369  1.0000
  H   H1299     1.0  0.40905  0.70231  0.45135  1.0000
  H   H1300     1.0  0.44918  0.68101  0.38762  1.0000
  N   N37       1.0  0.46587  0.60309  0.04211  1.0000
  H   H1301     1.0  0.31561  0.62838  0.30521  1.0000
  C   C763      1.0  0.30184  0.63587  0.21479  1.0000
  C   C764      1.0  0.29559  0.62871  0.24528  1.0000
  C   C765      1.0  0.46944  0.58574  0.36364  1.0000
  H   H1302     1.0  0.30260  0.64148  0.26512  1.0000
  H   H1303     1.0  0.40187  0.54150  0.44684  1.0000
  C   C766      1.0  0.30845  0.64302  0.31149  1.0000
  C   C767      1.0  0.36501  0.61164  0.21505  1.0000
  N   N38       1.0  0.29851  0.62476  0.29661  1.0000
  H   H1304     1.0  0.48607  0.59400  0.02590  1.0000
  H   H1305     1.0  0.47131  0.57476  0.40302  1.0000
  H   H1306     1.0  0.34291  0.59784  0.29479  1.0000
  H   H1307     1.0  0.46472  0.51936  0.20234  1.0000
  H   H1308     1.0  0.25572  0.61065  0.14714  1.0000
  H   H1309     1.0  0.29993  0.64535  0.31527  1.0000
  H   H1310     1.0  0.28500  0.63414  0.30176  1.0000
  H   H1311     1.0  0.39380  0.58237  0.30624  1.0000
  H   H1312     1.0  0.31405  0.64844  0.29032  1.0000
  H   H1313     1.0  0.26606  0.57822  0.39613  1.0000
  H   H1314     1.0  0.37185  0.61318  0.28878  1.0000
  H   H1315     1.0  0.48187  0.59597  0.44986  1.0000
  H   H1316     1.0  0.41463  0.74342  0.22137  1.0000
  C   C768      1.0  0.29773  0.74750  0.13925  1.0000
  H   H1317     1.0  0.45170  0.61080  0.05690  1.0000
  H   H1318     1.0  0.26229  0.74434  0.02421  1.0000
  H   H1319     1.0  0.31203  0.63229  0.25724  1.0000
  H   H1320     1.0  0.38359  0.59825  0.29499  1.0000
  C   C769      1.0  0.43566  0.72353  0.03555  1.0000
  H   H1321     1.0  0.35853  0.60100  0.35133  1.0000
  C   C770      1.0  0.36574  0.58642  0.30783  1.0000
  C   C771      1.0  0.42630  0.72857  0.03357  1.0000
  H   H1322     1.0  0.29439  0.61930  0.24547  1.0000
  C   C772      1.0  0.32802  0.58106  0.34063  1.0000
  Fe  Fe91      1.0  0.49371  0.63804  0.46473  1.0000
  H   H1323     1.0  0.35806  0.61483  0.25528  1.0000
  H   H1324     1.0  0.34154  0.59444  0.34523  1.0000
  C   C773      1.0  0.36434  0.59863  0.26331  1.0000
  H   H1325     1.0  0.46325  0.59667  0.10525  1.0000
  H   H1326     1.0  0.32372  0.57835  0.36383  1.0000
  H   H1327     1.0  0.28692  0.63065  0.25063  1.0000
  C   C774      1.0  0.38332  0.59207  0.02456  1.0000
  H   H1328     1.0  0.35695  0.61216  0.30351  1.0000
  C   C775      1.0  0.35845  0.60710  0.24652  1.0000
  N   N39       1.0  0.45614  0.69185  0.34427  1.0000
  H   H1329     1.0  0.48920  0.57938  0.32780  1.0000
  C   C776      1.0  0.31668  0.65779  0.01562  1.0000
  C   C777      1.0  0.34719  0.59109  0.30361  1.0000
  S   S174      1.0  0.42675  0.73413  0.43439  1.0000
  H   H1330     1.0  0.27043  0.64537  0.47204  1.0000
  S   S175      1.0  0.25772  0.72552  0.33070  1.0000
  H   H1331     1.0  0.47879  0.57174  0.37143  1.0000
  H   H1332     1.0  0.35451  0.67188  0.04352  1.0000
  H   H1333     1.0  0.44332  0.68621  0.27397  1.0000
  N   N40       1.0  0.36031  0.59590  0.29544  1.0000
  H   H1334     1.0  0.30390  0.64546  0.21323  1.0000
  H   H1335     1.0  0.25118  0.68673  0.34560  1.0000
  N   N41       1.0  0.26728  0.61077  0.98370  1.0000
  H   H1336     1.0  0.32363  0.58730  0.32997  1.0000
  H   H1337     1.0  0.45282  0.68183  0.31393  1.0000
  H   H1338     1.0  0.45090  0.67448  0.44047  1.0000
  H   H1339     1.0  0.36359  0.62340  0.33614  1.0000
  C   C778      1.0  0.37922  0.58900  0.29664  1.0000
  H   H1340     1.0  0.47024  0.62803  0.32979  1.0000
  Fe  Fe92      1.0  0.43205  0.72244  0.40697  1.0000
  H   H1341     1.0  0.37874  0.62321  0.32419  1.0000
  C   C779      1.0  0.45973  0.69288  0.42969  1.0000
  S   S176      1.0  0.45007  0.73429  0.38709  1.0000
  C   C780      1.0  0.46902  0.71338  0.32503  1.0000
  H   H1342     1.0  0.42916  0.50765  0.09535  1.0000
  H   H1343     1.0  0.38143  0.58745  0.27509  1.0000
  H   H1344     1.0  0.31007  0.63332  0.20748  1.0000
  H   H1345     1.0  0.41227  0.73484  0.38573  1.0000
  H   H1346     1.0  0.39156  0.67770  0.31545  1.0000
  C   C781      1.0  0.25793  0.62147  0.19065  1.0000
  C   C782      1.0  0.27518  0.61398  0.19182  1.0000
  H   H1347     1.0  0.26135  0.62485  0.16717  1.0000
  H   H1348     1.0  0.32022  0.64594  0.47660  1.0000
  H   H1349     1.0  0.40917  0.70921  0.29660  1.0000
  H   H1350     1.0  0.41215  0.73405  0.05682  1.0000
  H   H1351     1.0  0.46128  0.62286  0.30777  1.0000
  C   C783      1.0  0.32782  0.66246  0.42776  1.0000
  H   H1352     1.0  0.37994  0.57153  0.31886  1.0000
  C   C784      1.0  0.26427  0.61908  0.31670  1.0000
  C   C785      1.0  0.28400  0.63615  0.01039  1.0000
  H   H1353     1.0  0.46178  0.69615  0.29816  1.0000
  H   H1354     1.0  0.29623  0.63416  0.20027  1.0000
  H   H1355     1.0  0.37611  0.59654  0.02528  1.0000
  H   H1356     1.0  0.38488  0.58324  0.44127  1.0000
  H   H1357     1.0  0.49347  0.56039  0.03838  1.0000
  H   H1358     1.0  0.38327  0.58285  0.33710  1.0000
  H   H1359     1.0  0.35408  0.65641  0.04847  1.0000
  Fe  Fe93      1.0  0.47566  0.62357  0.44139  1.0000
  S   S177      1.0  0.47128  0.71652  0.41469  1.0000
  C   C786      1.0  0.47650  0.61151  0.10590  1.0000
  H   H1360     1.0  0.46821  0.71395  0.30298  1.0000
  C   C787      1.0  0.25778  0.60716  0.23371  1.0000
  C   C788      1.0  0.45926  0.61247  0.03817  1.0000
  H   H1361     1.0  0.34139  0.67321  0.31241  1.0000
  C   C789      1.0  0.45925  0.68092  0.43211  1.0000
  C   C790      1.0  0.46764  0.60571  0.09172  1.0000
  C   C791      1.0  0.47375  0.60511  0.06151  1.0000
  H   H1362     1.0  0.48387  0.52289  0.16764  1.0000
  H   H1363     1.0  0.39222  0.74442  0.36852  1.0000
  H   H1364     1.0  0.28740  0.59267  0.45299  1.0000
  C   C792      1.0  0.34101  0.58685  0.33576  1.0000
  H   H1365     1.0  0.29614  0.66247  0.07044  1.0000
  H   H1366     1.0  0.47729  0.71103  0.32703  1.0000
  H   H1367     1.0  0.27570  0.59360  0.01755  1.0000
  H   H1368     1.0  0.34484  0.58361  0.29402  1.0000
  H   H1369     1.0  0.39209  0.68634  0.28089  1.0000
  H   H1370     1.0  0.48270  0.56168  0.06771  1.0000
  H   H1371     1.0  0.48070  0.62075  0.09358  1.0000
  C   C793      1.0  0.38718  0.58280  0.46192  1.0000
  N   N42       1.0  0.47974  0.59641  0.35557  1.0000
  H   H1372     1.0  0.27891  0.62048  0.20265  1.0000
  H   H1373     1.0  0.46093  0.61074  0.09147  1.0000
  H   H1374     1.0  0.41138  0.69030  0.29141  1.0000
  C   C794      1.0  0.26020  0.72510  0.27497  1.0000
  H   H1375     1.0  0.28479  0.57910  0.47965  1.0000
  N   N43       1.0  0.49725  0.54606  0.13205  1.0000
  C   C795      1.0  0.47828  0.56878  0.17968  1.0000
  H   H1376     1.0  0.29442  0.74069  0.27139  1.0000
  C   C796      1.0  0.47510  0.60728  0.35248  1.0000
  H   H1377     1.0  0.43989  0.52804  0.04967  1.0000
  H   H1378     1.0  0.49432  0.60615  0.31997  1.0000
  H   H1379     1.0  0.32688  0.57309  0.33243  1.0000
  H   H1380     1.0  0.47017  0.69011  0.36459  1.0000
  S   S178      1.0  0.42894  0.55112  0.43923  1.0000
  H   H1381     1.0  0.47638  0.61259  0.30650  1.0000
  H   H1382     1.0  0.36192  0.57795  0.30336  1.0000
  C   C797      1.0  0.46653  0.62531  0.03250  1.0000
  H   H1383     1.0  0.25439  0.71215  0.06474  1.0000
  H   H1384     1.0  0.26935  0.60671  0.14697  1.0000
  H   H1385     1.0  0.39661  0.74062  0.26992  1.0000
  C   C798      1.0  0.42741  0.55011  0.47627  1.0000
  H   H1386     1.0  0.28642  0.74805  0.35016  1.0000
  C   C799      1.0  0.26157  0.63209  0.20309  1.0000
  C   C800      1.0  0.48793  0.59736  0.32726  1.0000
  H   H1387     1.0  0.47107  0.59262  0.41346  1.0000
  H   H1388     1.0  0.35639  0.55213  0.39764  1.0000
  C   C801      1.0  0.46942  0.67724  0.42345  1.0000
  C   C802      1.0  0.29902  0.66000  0.05028  1.0000
  H   H1389     1.0  0.42849  0.60331  0.46970  1.0000
  C   C803      1.0  0.25001  0.71525  0.04888  1.0000
  C   C804      1.0  0.48993  0.54859  0.11126  1.0000
  N   N44       1.0  0.26200  0.61071  0.20147  1.0000
  C   C805      1.0  0.31640  0.66054  0.45026  1.0000
  S   S179      1.0  0.42271  0.73266  0.00094  1.0000
  N   N45       1.0  0.37818  0.58468  0.98192  1.0000
  C   C806      1.0  0.40172  0.74560  0.36706  1.0000
  H   H1390     1.0  0.26230  0.58997  0.24183  1.0000
  H   H1391     1.0  0.29469  0.65059  0.05336  1.0000
  H   H1392     1.0  0.46218  0.72877  0.32702  1.0000
  H   H1393     1.0  0.24979  0.68352  0.99362  1.0000
  S   S180      1.0  0.41947  0.71337  0.38519  1.0000
  H   H1394     1.0  0.26403  0.62716  0.30144  1.0000
  H   H1395     1.0  0.47666  0.66184  0.35310  1.0000
  H   H1396     1.0  0.38932  0.57848  0.00764  1.0000
  H   H1397     1.0  0.36255  0.55942  0.46072  1.0000
  C   C807      1.0  0.43588  0.52036  0.04259  1.0000
  H   H1398     1.0  0.34320  0.58817  0.99188  1.0000
  H   H1399     1.0  0.31474  0.65700  0.06089  1.0000
  C   C808      1.0  0.48686  0.59488  0.98215  1.0000
  C   C809      1.0  0.40350  0.73360  0.38157  1.0000
  H   H1400     1.0  0.34478  0.58028  0.34730  1.0000
  C   C810      1.0  0.26969  0.75239  0.01716  1.0000
  H   H1401     1.0  0.35252  0.65761  0.99907  1.0000
  H   H1402     1.0  0.45445  0.75110  0.03913  1.0000
  S   S181      1.0  0.25457  0.68604  0.17516  1.0000
  H   H1403     1.0  0.27273  0.63573  0.98245  1.0000
  H   H1404     1.0  0.33477  0.66649  0.03731  1.0000
  C   C811      1.0  0.26018  0.62189  0.45538  1.0000
  H   H1405     1.0  0.41191  0.68393  0.26160  1.0000
  H   H1406     1.0  0.47428  0.69226  0.32703  1.0000
  S   S182      1.0  0.25514  0.73574  0.40067  1.0000
  H   H1407     1.0  0.47421  0.53042  0.15326  1.0000
  Fe  Fe94      1.0  0.25681  0.70532  0.15827  1.0000
  H   H1408     1.0  0.48833  0.67523  0.00907  1.0000
  C   C812      1.0  0.26590  0.59740  0.47086  1.0000
  H   H1409     1.0  0.31535  0.68084  0.99517  1.0000
  H   H1410     1.0  0.48337  0.60668  0.10735  1.0000
  H   H1411     1.0  0.46980  0.62674  0.05113  1.0000
  C   C813      1.0  0.47004  0.72568  0.32980  1.0000
  H   H1412     1.0  0.36193  0.56319  0.00197  1.0000
  C   C814      1.0  0.46525  0.74775  0.00350  1.0000
  H   H1413     1.0  0.33505  0.66153  0.43804  1.0000
  S   S183      1.0  0.45186  0.73553  0.45202  1.0000
  C   C815      1.0  0.48025  0.59800  0.40644  1.0000
  H   H1414     1.0  0.36276  0.54438  0.98908  1.0000
  S   S184      1.0  0.40232  0.74843  0.17799  1.0000
  C   C816      1.0  0.38127  0.58181  0.01013  1.0000
  H   H1415     1.0  0.47420  0.62746  0.01400  1.0000
  Fe  Fe95      1.0  0.44526  0.74532  0.41736  1.0000
  H   H1416     1.0  0.39140  0.58325  0.05531  1.0000
  C   C817      1.0  0.45912  0.63401  0.02663  1.0000
  H   H1417     1.0  0.31488  0.64807  0.02280  1.0000
  C   C818      1.0  0.47971  0.53027  0.16846  1.0000
  H   H1418     1.0  0.39170  0.59864  0.01277  1.0000
  H   H1419     1.0  0.47962  0.66162  0.00667  1.0000
  H   H1420     1.0  0.47651  0.52671  0.21470  1.0000
  C   C819      1.0  0.25712  0.72670  0.24891  1.0000
  H   H1421     1.0  0.40275  0.72728  0.36838  1.0000
  H   H1422     1.0  0.27280  0.67503  0.12955  1.0000
  H   H1423     1.0  0.38480  0.56245  0.44825  1.0000
  C   C820      1.0  0.49677  0.55462  0.07974  1.0000
  H   H1424     1.0  0.29098  0.64312  0.46618  1.0000
  C   C821      1.0  0.49377  0.58450  0.14605  1.0000
  H   H1425     1.0  0.30973  0.66231  0.43873  1.0000
  H   H1426     1.0  0.39531  0.73382  0.42484  1.0000
  H   H1427     1.0  0.48909  0.68033  0.45748  1.0000
  H   H1428     1.0  0.48009  0.61199  0.00488  1.0000
  H   H1429     1.0  0.28449  0.74391  0.01508  1.0000
  H   H1430     1.0  0.25801  0.64900  0.20361  1.0000
  H   H1431     1.0  0.48210  0.67482  0.36390  1.0000
  H   H1432     1.0  0.48977  0.58844  0.38205  1.0000
  C   C822      1.0  0.27390  0.62953  0.00089  1.0000
  H   H1433     1.0  0.26295  0.62053  0.33837  1.0000
  S   S185      1.0  0.26647  0.71548  0.11353  1.0000
  H   H1434     1.0  0.26238  0.72475  0.23100  1.0000
  H   H1435     1.0  0.46217  0.67089  0.33441  1.0000
  H   H1436     1.0  0.45598  0.63335  0.00736  1.0000
  H   H1437     1.0  0.39634  0.71954  0.42034  1.0000
  H   H1438     1.0  0.37581  0.58140  0.06837  1.0000
  H   H1439     1.0  0.43817  0.52277  0.01895  1.0000
  H   H1440     1.0  0.26664  0.69169  0.10135  1.0000
  C   C823      1.0  0.48173  0.50632  0.11179  1.0000
  H   H1441     1.0  0.44415  0.75187  0.00018  1.0000
  H   H1442     1.0  0.48360  0.67556  0.32653  1.0000
  H   H1443     1.0  0.28096  0.73712  0.29862  1.0000
  H   H1444     1.0  0.27469  0.74808  0.44332  1.0000
  S   S186      1.0  0.26089  0.73862  0.13424  1.0000
  H   H1445     1.0  0.49481  0.60390  0.36924  1.0000
  H   H1446     1.0  0.29219  0.63899  0.99299  1.0000
  H   H1447     1.0  0.26892  0.62164  0.44357  1.0000
  H   H1448     1.0  0.31785  0.66708  0.46282  1.0000
  H   H1449     1.0  0.33385  0.65188  0.03451  1.0000
  C   C824      1.0  0.36861  0.54384  0.47559  1.0000
  H   H1450     1.0  0.49046  0.51175  0.21740  1.0000
  H   H1451     1.0  0.39103  0.54762  0.43502  1.0000
  H   H1452     1.0  0.48805  0.68296  0.40549  1.0000
  H   H1453     1.0  0.48286  0.54738  0.06151  1.0000
  H   H1454     1.0  0.28545  0.63045  0.02932  1.0000
  H   H1455     1.0  0.39216  0.72515  0.28739  1.0000
  H   H1456     1.0  0.26781  0.72187  0.27692  1.0000
  H   H1457     1.0  0.25960  0.58582  0.15360  1.0000
  S   S187      1.0  0.49413  0.62364  0.44209  1.0000
  H   H1458     1.0  0.25892  0.62958  0.22670  1.0000
  H   H1459     1.0  0.48423  0.55428  0.11810  1.0000
  H   H1460     1.0  0.42606  0.70735  0.99978  1.0000
  S   S188      1.0  0.29362  0.73853  0.11740  1.0000
  C   C825      1.0  0.25284  0.59201  0.28133  1.0000
  C   C826      1.0  0.48669  0.59654  0.37757  1.0000
  C   C827      1.0  0.28066  0.58332  0.98893  1.0000
  H   H1461     1.0  0.47361  0.58480  0.01968  1.0000
  C   C828      1.0  0.25017  0.71045  0.02523  1.0000
  H   H1462     1.0  0.35072  0.54199  0.44922  1.0000
  H   H1463     1.0  0.31069  0.64171  0.45603  1.0000
  H   H1464     1.0  0.47784  0.73195  0.31413  1.0000
  C   C829      1.0  0.47155  0.52766  0.19820  1.0000
  H   H1465     1.0  0.31632  0.67147  0.03935  1.0000
  H   H1466     1.0  0.48455  0.54900  0.16544  1.0000
  C   C830      1.0  0.35911  0.55079  0.47685  1.0000
  C   C831      1.0  0.26556  0.67638  0.01919  1.0000
  C   C832      1.0  0.49369  0.67386  0.46555  1.0000
  N   N46       1.0  0.40888  0.75146  0.33667  1.0000
  H   H1467     1.0  0.33495  0.68138  0.00056  1.0000
  H   H1468     1.0  0.26150  0.63838  0.42543  1.0000
  H   H1469     1.0  0.45884  0.73941  0.00552  1.0000
  H   H1470     1.0  0.48019  0.60738  0.40424  1.0000
  H   H1471     1.0  0.25032  0.58245  0.29189  1.0000
  H   H1472     1.0  0.44181  0.54211  0.47752  1.0000
  H   H1473     1.0  0.48277  0.69231  0.48016  1.0000
  H   H1474     1.0  0.26815  0.68604  0.00970  1.0000
  H   H1475     1.0  0.48990  0.66131  0.02835  1.0000
  H   H1476     1.0  0.48621  0.58495  0.43356  1.0000
  N   N47       1.0  0.32941  0.66303  0.00014  1.0000
  S   S189      1.0  0.47474  0.63664  0.46679  1.0000
  H   H1477     1.0  0.27909  0.74719  0.25155  1.0000
  H   H1478     1.0  0.25721  0.59511  0.12297  1.0000
  H   H1479     1.0  0.26871  0.67189  0.00282  1.0000
  H   H1480     1.0  0.25029  0.60594  0.44959  1.0000
  H   H1481     1.0  0.49562  0.59976  0.42342  1.0000
  C   C833      1.0  0.42040  0.74830  0.32954  1.0000
  H   H1482     1.0  0.44852  0.74692  0.12712  1.0000
  H   H1483     1.0  0.27212  0.74711  0.07234  1.0000
  H   H1484     1.0  0.40359  0.75135  0.38141  1.0000
  H   H1485     1.0  0.25026  0.66250  0.04132  1.0000
  C   C834      1.0  0.40203  0.74853  0.31563  1.0000
  H   H1486     1.0  0.29276  0.74940  0.29670  1.0000
  H   H1487     1.0  0.35311  0.67308  0.99329  1.0000
  H   H1488     1.0  0.26560  0.73519  0.47043  1.0000
  C   C835      1.0  0.43877  0.55296  0.98085  1.0000
  C   C836      1.0  0.42918  0.75193  0.34708  1.0000
  C   C837      1.0  0.28017  0.74915  0.02764  1.0000
  H   H1489     1.0  0.26133  0.62631  0.47244  1.0000
  H   H1490     1.0  0.43523  0.50471  0.17696  1.0000
  H   H1491     1.0  0.38946  0.52130  0.45800  1.0000
  C   C838      1.0  0.31250  0.64780  0.46968  1.0000
  H   H1492     1.0  0.49756  0.65674  0.98258  1.0000
  H   H1493     1.0  0.39307  0.74980  0.32182  1.0000
  H   H1494     1.0  0.39477  0.56239  0.46992  1.0000
  C   C839      1.0  0.33216  0.67607  0.98605  1.0000
  H   H1495     1.0  0.38424  0.58976  0.47091  1.0000
  C   C840      1.0  0.41388  0.75237  0.21860  1.0000
  H   H1496     1.0  0.29350  0.65721  0.47339  1.0000
  C   C841      1.0  0.34829  0.54421  0.46989  1.0000
  H   H1497     1.0  0.34207  0.54984  0.46835  1.0000
  H   H1498     1.0  0.24967  0.67663  0.04735  1.0000
  C   C842      1.0  0.48601  0.50399  0.21130  1.0000
  H   H1499     1.0  0.42475  0.75198  0.30632  1.0000
  C   C843      1.0  0.28342  0.75258  0.26390  1.0000
  Fe  Fe96      1.0  0.45484  0.53233  0.62077  1.0000
  S   S190      1.0  0.43508  0.52635  0.63732  1.0000
  Fe  Fe97      1.0  0.45434  0.55801  0.61458  1.0000
  S   S191      1.0  0.43499  0.55411  0.63083  1.0000
  S   S192      1.0  0.46549  0.57646  0.60159  1.0000
  Fe  Fe98      1.0  0.43699  0.53948  0.66430  1.0000
  S   S193      1.0  0.42927  0.53561  0.71268  1.0000
  Fe  Fe99      1.0  0.43471  0.54172  0.60217  1.0000
  S   S194      1.0  0.42190  0.54359  0.57395  1.0000
  S   S195      1.0  0.45653  0.54428  0.64958  1.0000
  S   S196      1.0  0.45416  0.54669  0.58423  1.0000
  H   H1500     1.0  0.37736  0.65060  0.53166  1.0000
  Fe  Fe100     1.0  0.41942  0.57098  0.83989  1.0000
  S   S197      1.0  0.40808  0.58334  0.84765  1.0000
  S   S198      1.0  0.42403  0.57108  0.79239  1.0000
  Fe  Fe101     1.0  0.42066  0.56573  0.90331  1.0000
  S   S199      1.0  0.40890  0.57729  0.91503  1.0000
  H   H1501     1.0  0.39717  0.52913  0.75785  1.0000
  Fe  Fe102     1.0  0.39818  0.56970  0.88780  1.0000
  S   S200      1.0  0.37829  0.56436  0.89811  1.0000
  Fe  Fe103     1.0  0.41962  0.58996  0.87374  1.0000
  S   S201      1.0  0.42591  0.60948  0.86731  1.0000
  S   S202      1.0  0.40894  0.55681  0.87943  1.0000
  S   S203      1.0  0.43195  0.57898  0.86287  1.0000
  Fe  Fe104     1.0  0.43800  0.73584  0.89599  1.0000
  S   S204      1.0  0.42712  0.73816  0.86397  1.0000
  C   C844      1.0  0.27004  0.74595  0.76575  1.0000
  H   H1502     1.0  0.30396  0.66219  0.50457  1.0000
  S   S205      1.0  0.43181  0.72029  0.93397  1.0000
  Fe  Fe105     1.0  0.40776  0.73155  0.69731  1.0000
  S   S206      1.0  0.42721  0.73522  0.68834  1.0000
  Fe  Fe106     1.0  0.40460  0.70557  0.70309  1.0000
  S   S207      1.0  0.42391  0.70692  0.69520  1.0000
  S   S208      1.0  0.39048  0.68863  0.71354  1.0000
  Fe  Fe107     1.0  0.42395  0.71913  0.72405  1.0000
  S   S209      1.0  0.43604  0.71888  0.75357  1.0000
  Fe  Fe108     1.0  0.42578  0.72290  0.66026  1.0000
  S   S210      1.0  0.43947  0.72809  0.61823  1.0000
  S   S211      1.0  0.40444  0.71633  0.73527  1.0000
  S   S212      1.0  0.40651  0.72071  0.66596  1.0000
  Fe  Fe109     1.0  0.35335  0.65961  0.62542  1.0000
  S   S213      1.0  0.35461  0.64088  0.63248  1.0000
  S   S214      1.0  0.36913  0.67516  0.61449  1.0000
  Fe  Fe110     1.0  0.32719  0.65266  0.63359  1.0000
  S   S215      1.0  0.32628  0.63340  0.64212  1.0000
  S   S216      1.0  0.31104  0.65934  0.63521  1.0000
  Fe  Fe111     1.0  0.33870  0.63714  0.66898  1.0000
  S   S217      1.0  0.33673  0.62422  0.71106  1.0000
  Fe  Fe112     1.0  0.34208  0.63882  0.60473  1.0000
  S   S218      1.0  0.34330  0.62707  0.57409  1.0000
  S   S219      1.0  0.33828  0.65601  0.66366  1.0000
  S   S220      1.0  0.34218  0.65794  0.59447  1.0000
  Fe  Fe113     1.0  0.31732  0.62004  0.87197  1.0000
  S   S221      1.0  0.31913  0.60201  0.87051  1.0000
  S   S222      1.0  0.31820  0.63359  0.83165  1.0000
  Fe  Fe114     1.0  0.31404  0.61444  0.93736  1.0000
  H   H1503     1.0  0.48481  0.50313  0.57460  1.0000
  H   H1504     1.0  0.38992  0.56775  0.83369  1.0000
  Fe  Fe115     1.0  0.33066  0.60399  0.90035  1.0000
  S   S223      1.0  0.34995  0.60378  0.88891  1.0000
  Fe  Fe116     1.0  0.30386  0.59598  0.90916  1.0000
  S   S224      1.0  0.28886  0.58081  0.91081  1.0000
  S   S225      1.0  0.32963  0.62258  0.89981  1.0000
  S   S226      1.0  0.30145  0.61391  0.90931  1.0000
  Fe  Fe117     1.0  0.25718  0.62861  0.59815  1.0000
  H   H1505     1.0  0.38449  0.72137  0.52484  1.0000
  S   S227      1.0  0.27630  0.63158  0.57855  1.0000
  H   H1506     1.0  0.27681  0.63425  0.51375  1.0000
  H   H1507     1.0  0.27239  0.56201  0.90447  1.0000
  H   H1508     1.0  0.31208  0.61003  0.53419  1.0000
  C   C845      1.0  0.27498  0.58034  0.90343  1.0000
  C   C846      1.0  0.26869  0.56953  0.90158  1.0000
  C   C847      1.0  0.38726  0.59876  0.93117  1.0000
  H   H1509     1.0  0.32335  0.65585  0.50707  1.0000
  C   C848      1.0  0.25874  0.58868  0.89428  1.0000
  C   C849      1.0  0.27003  0.59003  0.89949  1.0000
  H   H1510     1.0  0.38351  0.57095  0.50308  1.0000
  H   H1511     1.0  0.30465  0.73965  0.67258  1.0000
  H   H1512     1.0  0.38714  0.57301  0.96371  1.0000
  H   H1513     1.0  0.27482  0.59846  0.90070  1.0000
  C   C850      1.0  0.34123  0.62981  0.53917  1.0000
  C   C851      1.0  0.34168  0.64109  0.52357  1.0000
  C   C852      1.0  0.34089  0.64298  0.49513  1.0000
  H   H1514     1.0  0.25014  0.71279  0.74024  1.0000
  C   C853      1.0  0.33840  0.62226  0.49813  1.0000
  C   C854      1.0  0.33958  0.62043  0.52627  1.0000
  H   H1515     1.0  0.34288  0.64837  0.53323  1.0000
  S   S228      1.0  0.47036  0.52423  0.61050  1.0000
  C   C855      1.0  0.28813  0.64705  0.70238  1.0000
  H   H1516     1.0  0.33924  0.61168  0.53814  1.0000
  C   C856      1.0  0.33142  0.62715  0.74399  1.0000
  C   C857      1.0  0.32920  0.61819  0.76891  1.0000
  C   C858      1.0  0.32523  0.62013  0.79573  1.0000
  C   C859      1.0  0.32330  0.63101  0.79801  1.0000
  C   C860      1.0  0.32529  0.63995  0.77301  1.0000
  C   C861      1.0  0.32938  0.63805  0.74605  1.0000
  H   H1517     1.0  0.33057  0.60969  0.76742  1.0000
  H   H1518     1.0  0.32357  0.61311  0.81453  1.0000
  H   H1519     1.0  0.32378  0.64840  0.77449  1.0000
  H   H1520     1.0  0.33101  0.64501  0.72696  1.0000
  C   C862      1.0  0.30115  0.65127  0.62062  1.0000
  C   C863      1.0  0.30449  0.64318  0.60613  1.0000
  C   C864      1.0  0.29670  0.63702  0.59373  1.0000
  C   C865      1.0  0.28551  0.63886  0.59592  1.0000
  C   C866      1.0  0.28208  0.64684  0.61072  1.0000
  C   C867      1.0  0.28992  0.65308  0.62297  1.0000
  H   H1521     1.0  0.31320  0.64191  0.60370  1.0000
  H   H1522     1.0  0.29938  0.63086  0.58232  1.0000
  H   H1523     1.0  0.27352  0.64845  0.61203  1.0000
  H   H1524     1.0  0.28736  0.65943  0.63393  1.0000
  C   C868      1.0  0.38490  0.68466  0.68576  1.0000
  C   C869      1.0  0.38996  0.69100  0.65740  1.0000
  C   C870      1.0  0.38498  0.68808  0.63579  1.0000
  C   C871      1.0  0.37516  0.67853  0.64221  1.0000
  C   C872      1.0  0.37020  0.67206  0.67054  1.0000
  C   C873      1.0  0.37502  0.67518  0.69226  1.0000
  H   H1525     1.0  0.39765  0.69822  0.65211  1.0000
  H   H1526     1.0  0.38872  0.69335  0.61415  1.0000
  H   H1527     1.0  0.36261  0.66470  0.67575  1.0000
  H   H1528     1.0  0.37105  0.67025  0.71417  1.0000
  C   C874      1.0  0.42986  0.73315  0.83280  1.0000
  C   C875      1.0  0.44004  0.72959  0.82410  1.0000
  C   C876      1.0  0.44190  0.72541  0.79951  1.0000
  C   C877      1.0  0.43358  0.72472  0.78349  1.0000
  C   C878      1.0  0.42351  0.72854  0.79180  1.0000
  C   C879      1.0  0.42169  0.73278  0.81632  1.0000
  H   H1529     1.0  0.44649  0.73019  0.83626  1.0000
  H   H1530     1.0  0.44981  0.72271  0.79283  1.0000
  H   H1531     1.0  0.41708  0.72814  0.77951  1.0000
  H   H1532     1.0  0.41387  0.73568  0.82270  1.0000
  C   C880      1.0  0.43453  0.72506  0.58881  1.0000
  C   C881      1.0  0.39245  0.72826  0.60323  1.0000
  H   H1533     1.0  0.44377  0.59601  0.56121  1.0000
  H   H1534     1.0  0.25304  0.55978  0.89455  1.0000
  H   H1535     1.0  0.31785  0.67565  0.96390  1.0000
  H   H1536     1.0  0.39650  0.59315  0.96221  1.0000
  H   H1537     1.0  0.41709  0.71560  0.61330  1.0000
  H   H1538     1.0  0.25401  0.61263  0.51520  1.0000
  H   H1539     1.0  0.46229  0.61061  0.55866  1.0000
  C   C882      1.0  0.43533  0.59304  0.51718  1.0000
  C   C883      1.0  0.37031  0.57520  0.89376  1.0000
  C   C884      1.0  0.35803  0.57194  0.90367  1.0000
  C   C885      1.0  0.35154  0.58050  0.90181  1.0000
  C   C886      1.0  0.35733  0.59241  0.89021  1.0000
  C   C887      1.0  0.36956  0.59560  0.87981  1.0000
  C   C888      1.0  0.37601  0.58706  0.88129  1.0000
  C   C889      1.0  0.48536  0.51073  0.62275  1.0000
  C   C890      1.0  0.43120  0.57496  0.55657  1.0000
  H   H1540     1.0  0.37412  0.60477  0.87097  1.0000
  H   H1541     1.0  0.38542  0.58970  0.87336  1.0000
  C   C891      1.0  0.44389  0.61920  0.93453  1.0000
  C   C892      1.0  0.43433  0.60936  0.94220  1.0000
  C   C893      1.0  0.42889  0.60617  0.92156  1.0000
  C   C894      1.0  0.43244  0.61331  0.89367  1.0000
  C   C895      1.0  0.44139  0.62364  0.88657  1.0000
  C   C896      1.0  0.44731  0.62640  0.90676  1.0000
  H   H1542     1.0  0.43139  0.60398  0.96389  1.0000
  H   H1543     1.0  0.42189  0.59826  0.92736  1.0000
  H   H1544     1.0  0.44404  0.62929  0.86514  1.0000
  H   H1545     1.0  0.48553  0.52540  0.67823  1.0000
  C   C897      1.0  0.42465  0.54652  0.53607  1.0000
  C   C898      1.0  0.41716  0.55179  0.52239  1.0000
  H   H1546     1.0  0.40682  0.57207  0.61212  1.0000
  N   N48       1.0  0.37892  0.54824  0.48675  1.0000
  C   C899      1.0  0.43498  0.54497  0.48990  1.0000
  C   C900      1.0  0.43373  0.54333  0.51949  1.0000
  H   H1547     1.0  0.41017  0.55437  0.53497  1.0000
  H   H1548     1.0  0.48290  0.75158  0.62979  1.0000
  H   H1549     1.0  0.26057  0.62156  0.75439  1.0000
  H   H1550     1.0  0.43955  0.53924  0.52959  1.0000
  C   C901      1.0  0.42857  0.54576  0.73431  1.0000
  C   C902      1.0  0.42656  0.54162  0.76404  1.0000
  C   C903      1.0  0.42535  0.54922  0.78213  1.0000
  C   C904      1.0  0.42582  0.56103  0.77081  1.0000
  C   C905      1.0  0.42781  0.56516  0.74110  1.0000
  C   C906      1.0  0.42932  0.55765  0.72294  1.0000
  H   H1551     1.0  0.42597  0.53246  0.77312  1.0000
  H   H1552     1.0  0.42405  0.54592  0.80477  1.0000
  H   H1553     1.0  0.42812  0.57424  0.73203  1.0000
  H   H1554     1.0  0.43079  0.56098  0.70018  1.0000
  C   C907      1.0  0.47047  0.57859  0.63118  1.0000
  H   H1555     1.0  0.25196  0.67470  0.53085  1.0000
  H   H1556     1.0  0.48697  0.50407  0.53781  1.0000
  C   C908      1.0  0.44222  0.72898  0.56148  1.0000
  H   H1557     1.0  0.45550  0.56605  0.66128  1.0000
  H   H1558     1.0  0.37633  0.56909  0.82539  1.0000
  H   H1559     1.0  0.48620  0.59179  0.60672  1.0000
  C   C909      1.0  0.36657  0.53240  0.84570  1.0000
  N   N49       1.0  0.39367  0.68427  0.53629  1.0000
  C   C910      1.0  0.38499  0.69173  0.53785  1.0000
  C   C911      1.0  0.38738  0.67131  0.54544  1.0000
  C   C912      1.0  0.40076  0.68658  0.55721  1.0000
  C   C913      1.0  0.40200  0.68748  0.50713  1.0000
  C   C914      1.0  0.39020  0.70525  0.52947  1.0000
  C   C915      1.0  0.40962  0.67903  0.56122  1.0000
  C   C916      1.0  0.37551  0.66765  0.53813  1.0000
  C   C917      1.0  0.37119  0.65427  0.54490  1.0000
  C   C918      1.0  0.38052  0.71175  0.53053  1.0000
  C   C919      1.0  0.41560  0.68182  0.58422  1.0000
  H   H1560     1.0  0.37923  0.68930  0.55983  1.0000
  H   H1561     1.0  0.37895  0.68998  0.52431  1.0000
  H   H1562     1.0  0.39320  0.66607  0.53679  1.0000
  H   H1563     1.0  0.38526  0.66795  0.56910  1.0000
  H   H1564     1.0  0.39480  0.68523  0.57853  1.0000
  H   H1565     1.0  0.40601  0.69584  0.55082  1.0000
  H   H1566     1.0  0.40794  0.69639  0.50274  1.0000
  H   H1567     1.0  0.37140  0.52976  0.86168  1.0000
  H   H1568     1.0  0.38773  0.59147  0.92089  1.0000
  H   H1569     1.0  0.39521  0.70793  0.54444  1.0000
  C   C920      1.0  0.42120  0.59715  0.48718  1.0000
  H   H1570     1.0  0.41659  0.68094  0.54124  1.0000
  H   H1571     1.0  0.40526  0.66949  0.56780  1.0000
  H   H1572     1.0  0.36876  0.67080  0.55123  1.0000
  H   H1573     1.0  0.36669  0.52659  0.83105  1.0000
  C   C921      1.0  0.45085  0.65024  0.50457  1.0000
  H   H1574     1.0  0.38714  0.52664  0.83665  1.0000
  H   H1575     1.0  0.49213  0.51814  0.60852  1.0000
  C   C922      1.0  0.25614  0.59406  0.81028  1.0000
  H   H1576     1.0  0.36252  0.55554  0.95893  1.0000
  H   H1577     1.0  0.42052  0.69123  0.57807  1.0000
  H   H1578     1.0  0.40903  0.67994  0.60495  1.0000
  H   H1579     1.0  0.42186  0.67633  0.58693  1.0000
  N   N50       1.0  0.44582  0.68828  0.85553  1.0000
  C   C923      1.0  0.44249  0.69154  0.82777  1.0000
  C   C924      1.0  0.45755  0.69614  0.85399  1.0000
  C   C925      1.0  0.44704  0.67580  0.85968  1.0000
  C   C926      1.0  0.43658  0.68863  0.88076  1.0000
  C   C927      1.0  0.43239  0.70008  0.87887  1.0000
  C   C928      1.0  0.43086  0.68378  0.82596  1.0000
  C   C929      1.0  0.45190  0.67115  0.88524  1.0000
  C   C930      1.0  0.46040  0.70916  0.83690  1.0000
  C   C931      1.0  0.47112  0.71660  0.84242  1.0000
  C   C932      1.0  0.42136  0.69821  0.90253  1.0000
  C   C933      1.0  0.42720  0.68919  0.79958  1.0000
  C   C934      1.0  0.45269  0.65848  0.88744  1.0000
  H   H1580     1.0  0.44956  0.69120  0.80981  1.0000
  H   H1581     1.0  0.44186  0.70078  0.82265  1.0000
  H   H1582     1.0  0.45855  0.69602  0.87581  1.0000
  H   H1583     1.0  0.46484  0.69273  0.84385  1.0000
  H   H1584     1.0  0.45289  0.67489  0.84015  1.0000
  H   H1585     1.0  0.43844  0.66953  0.86292  1.0000
  H   H1586     1.0  0.42877  0.68112  0.88551  1.0000
  H   H1587     1.0  0.43975  0.68729  0.90040  1.0000
  H   H1588     1.0  0.43020  0.70317  0.85851  1.0000
  H   H1589     1.0  0.43921  0.70712  0.88174  1.0000
  H   H1590     1.0  0.43188  0.67493  0.82450  1.0000
  H   H1591     1.0  0.42360  0.68276  0.84474  1.0000
  H   H1592     1.0  0.44615  0.67127  0.90563  1.0000
  H   H1593     1.0  0.46083  0.67652  0.88286  1.0000
  H   H1594     1.0  0.46228  0.70975  0.81371  1.0000
  H   H1595     1.0  0.45307  0.71312  0.84247  1.0000
  H   H1596     1.0  0.25110  0.75063  0.80136  1.0000
  H   H1597     1.0  0.26107  0.74204  0.76459  1.0000
  C   C935      1.0  0.27117  0.60018  0.97693  1.0000
  H   H1598     1.0  0.43433  0.69091  0.77995  1.0000
  H   H1599     1.0  0.41934  0.68310  0.79766  1.0000
  H   H1600     1.0  0.42496  0.69757  0.80140  1.0000
  C   C936      1.0  0.29292  0.74611  0.64955  1.0000
  H   H1601     1.0  0.26331  0.61332  0.71651  1.0000
  H   H1602     1.0  0.44393  0.65256  0.89057  1.0000
  N   N51       1.0  0.36546  0.62562  0.80424  1.0000
  C   C937      1.0  0.35582  0.63051  0.81805  1.0000
  C   C938      1.0  0.36137  0.61237  0.80994  1.0000
  C   C939      1.0  0.37540  0.62823  0.81803  1.0000
  C   C940      1.0  0.37003  0.63136  0.77264  1.0000
  C   C941      1.0  0.36084  0.63202  0.75509  1.0000
  C   C942      1.0  0.35917  0.64392  0.81556  1.0000
  C   C943      1.0  0.38584  0.62289  0.80896  1.0000
  C   C944      1.0  0.34831  0.60701  0.81239  1.0000
  C   C945      1.0  0.34571  0.59371  0.81623  1.0000
  C   C946      1.0  0.36663  0.63914  0.72428  1.0000
  C   C947      1.0  0.34836  0.64841  0.82426  1.0000
  C   C948      1.0  0.39513  0.62579  0.82498  1.0000
  H   H1603     1.0  0.35258  0.62594  0.84122  1.0000
  H   H1604     1.0  0.34806  0.62863  0.80945  1.0000
  H   H1605     1.0  0.36670  0.60916  0.79355  1.0000
  H   H1606     1.0  0.36275  0.60795  0.83056  1.0000
  H   H1607     1.0  0.37206  0.62505  0.84171  1.0000
  H   H1608     1.0  0.37919  0.63788  0.81332  1.0000
  H   H1609     1.0  0.37550  0.64046  0.76878  1.0000
  H   H1610     1.0  0.37609  0.62668  0.76248  1.0000
  H   H1611     1.0  0.35417  0.63637  0.76379  1.0000
  H   H1612     1.0  0.35647  0.62312  0.75429  1.0000
  H   H1613     1.0  0.36483  0.64584  0.82991  1.0000
  H   H1614     1.0  0.36386  0.64906  0.79349  1.0000
  H   H1615     1.0  0.39010  0.62648  0.78585  1.0000
  H   H1616     1.0  0.38300  0.61316  0.81353  1.0000
  H   H1617     1.0  0.34270  0.60853  0.83124  1.0000
  H   H1618     1.0  0.34575  0.61090  0.79331  1.0000
  H   H1619     1.0  0.33626  0.59015  0.81833  1.0000
  H   H1620     1.0  0.35084  0.59160  0.79754  1.0000
  H   H1621     1.0  0.34784  0.58937  0.83587  1.0000
  H   H1622     1.0  0.37305  0.63493  0.71370  1.0000
  H   H1623     1.0  0.35987  0.63958  0.71222  1.0000
  H   H1624     1.0  0.37112  0.64828  0.72346  1.0000
  H   H1625     1.0  0.34301  0.64329  0.84591  1.0000
  H   H1626     1.0  0.35105  0.65780  0.82428  1.0000
  H   H1627     1.0  0.34294  0.64773  0.80882  1.0000
  H   H1628     1.0  0.39136  0.62230  0.84833  1.0000
  H   H1629     1.0  0.40239  0.62169  0.81859  1.0000
  H   H1630     1.0  0.39880  0.63545  0.81995  1.0000
  C   C949      1.0  0.30462  0.61408  0.53339  1.0000
  N   N52       1.0  0.26567  0.63762  0.72065  1.0000
  H   H1631     1.0  0.47227  0.60578  0.89255  1.0000
  C   C950      1.0  0.25263  0.68367  0.53395  1.0000
  C   C951      1.0  0.46224  0.53902  0.73140  1.0000
  H   H1632     1.0  0.35779  0.70500  0.71545  1.0000
  H   H1633     1.0  0.27448  0.60808  0.67581  1.0000
  C   C952      1.0  0.27769  0.73711  0.72833  1.0000
  H   H1634     1.0  0.47218  0.53691  0.68088  1.0000
  H   H1635     1.0  0.47291  0.70190  0.51447  1.0000
  H   H1636     1.0  0.25425  0.74455  0.57370  1.0000
  C   C953      1.0  0.48573  0.58708  0.65139  1.0000
  H   H1637     1.0  0.45863  0.54618  0.72159  1.0000
  H   H1638     1.0  0.45769  0.53066  0.72780  1.0000
  H   H1639     1.0  0.46032  0.53813  0.75470  1.0000
  H   H1640     1.0  0.41857  0.70655  0.90075  1.0000
  H   H1641     1.0  0.29782  0.65612  0.72761  1.0000
  H   H1642     1.0  0.37457  0.70911  0.55232  1.0000
  H   H1643     1.0  0.37793  0.71774  0.75507  1.0000
  H   H1644     1.0  0.44974  0.60852  0.74292  1.0000
  C   C954      1.0  0.27014  0.62045  0.69997  1.0000
  H   H1645     1.0  0.30651  0.58402  0.83610  1.0000
  H   H1646     1.0  0.45286  0.67676  0.95055  1.0000
  H   H1647     1.0  0.45311  0.58551  0.49496  1.0000
  H   H1648     1.0  0.49152  0.64996  0.58140  1.0000
  H   H1649     1.0  0.41005  0.53793  0.84912  1.0000
  H   H1650     1.0  0.28993  0.64157  0.68735  1.0000
  H   H1651     1.0  0.35251  0.74085  0.68987  1.0000
  C   C955      1.0  0.42559  0.58759  0.50411  1.0000
  H   H1652     1.0  0.39735  0.61124  0.89124  1.0000
  H   H1653     1.0  0.35222  0.72032  0.68871  1.0000
  H   H1654     1.0  0.45893  0.69227  0.51667  1.0000
  N   N53       1.0  0.47953  0.66826  0.51660  1.0000
  H   H1655     1.0  0.26971  0.75247  0.94759  1.0000
  H   H1656     1.0  0.26692  0.74619  0.50741  1.0000
  C   C956      1.0  0.45906  0.71455  0.68726  1.0000
  C   C957      1.0  0.43842  0.72665  0.53777  1.0000
  H   H1657     1.0  0.41400  0.74489  0.62107  1.0000
  C   C958      1.0  0.45826  0.65688  0.52057  1.0000
  S   S229      1.0  0.45205  0.70080  0.93536  1.0000
  H   H1658     1.0  0.38703  0.58535  0.78224  1.0000
  N   N54       1.0  0.29020  0.60711  0.79314  1.0000
  C   C959      1.0  0.29028  0.61377  0.81578  1.0000
  C   C960      1.0  0.29597  0.59719  0.80000  1.0000
  C   C961      1.0  0.29766  0.61542  0.76519  1.0000
  C   C962      1.0  0.27806  0.60256  0.78973  1.0000
  C   C963      1.0  0.26764  0.59938  0.81656  1.0000
  C   C964      1.0  0.28715  0.62577  0.80870  1.0000
  C   C965      1.0  0.30035  0.60984  0.73985  1.0000
  C   C966      1.0  0.29033  0.58797  0.82896  1.0000
  H   H1659     1.0  0.45016  0.74615  0.65010  1.0000
  H   H1660     1.0  0.48103  0.59446  0.96761  1.0000
  C   C967      1.0  0.28367  0.62996  0.83546  1.0000
  C   C968      1.0  0.30509  0.61920  0.71145  1.0000
  H   H1661     1.0  0.29910  0.61561  0.82001  1.0000
  H   H1662     1.0  0.28436  0.60839  0.83658  1.0000
  H   H1663     1.0  0.29609  0.59208  0.78370  1.0000
  H   H1664     1.0  0.30531  0.60088  0.79922  1.0000
  H   H1665     1.0  0.30621  0.61996  0.76782  1.0000
  H   H1666     1.0  0.29346  0.62255  0.75826  1.0000
  H   H1667     1.0  0.27597  0.60912  0.77342  1.0000
  H   H1668     1.0  0.27768  0.59465  0.78120  1.0000
  H   H1669     1.0  0.26658  0.60732  0.82381  1.0000
  H   H1670     1.0  0.27205  0.71298  0.73377  1.0000
  H   H1671     1.0  0.29489  0.63253  0.79395  1.0000
  H   H1672     1.0  0.27985  0.62523  0.79824  1.0000
  H   H1673     1.0  0.29242  0.60365  0.73863  1.0000
  H   H1674     1.0  0.30716  0.60498  0.74232  1.0000
  H   H1675     1.0  0.28940  0.59211  0.84695  1.0000
  H   H1676     1.0  0.39602  0.70834  0.50755  1.0000
  H   H1677     1.0  0.34220  0.66017  0.96634  1.0000
  H   H1678     1.0  0.36365  0.58777  0.94392  1.0000
  H   H1679     1.0  0.49567  0.56163  0.67805  1.0000
  C   C969      1.0  0.49803  0.62910  0.56203  1.0000
  H   H1680     1.0  0.28166  0.58273  0.82895  1.0000
  H   H1681     1.0  0.26512  0.59965  0.57721  1.0000
  H   H1682     1.0  0.27557  0.62377  0.85014  1.0000
  H   H1683     1.0  0.29081  0.63060  0.84653  1.0000
  H   H1684     1.0  0.28200  0.63879  0.82959  1.0000
  H   H1685     1.0  0.29830  0.62364  0.70634  1.0000
  H   H1686     1.0  0.31276  0.62593  0.71201  1.0000
  H   H1687     1.0  0.30788  0.61501  0.69415  1.0000
  N   N55       1.0  0.36646  0.71340  0.67092  1.0000
  C   C970      1.0  0.37883  0.71804  0.65246  1.0000
  C   C971      1.0  0.36680  0.70865  0.70132  1.0000
  C   C972      1.0  0.36064  0.70314  0.66116  1.0000
  C   C973      1.0  0.35944  0.72250  0.66894  1.0000
  C   C974      1.0  0.46060  0.72708  0.66978  1.0000
  H   H1688     1.0  0.28683  0.65534  0.69037  1.0000
  C   C975      1.0  0.34832  0.69591  0.67976  1.0000
  C   C976      1.0  0.37298  0.71748  0.71557  1.0000
  H   H1689     1.0  0.28486  0.58454  0.96613  1.0000
  C   C977      1.0  0.34252  0.68741  0.66469  1.0000
  H   H1690     1.0  0.38392  0.71148  0.65728  1.0000
  H   H1691     1.0  0.38350  0.72597  0.65747  1.0000
  H   H1692     1.0  0.37104  0.70119  0.70269  1.0000
  H   H1693     1.0  0.36623  0.69684  0.65992  1.0000
  H   H1694     1.0  0.35968  0.70619  0.63922  1.0000
  H   H1695     1.0  0.35493  0.72227  0.65153  1.0000
  H   H1696     1.0  0.39656  0.56473  0.78332  1.0000
  H   H1697     1.0  0.46824  0.66638  0.93817  1.0000
  H   H1698     1.0  0.46373  0.56668  0.70257  1.0000
  H   H1699     1.0  0.45447  0.63414  0.90084  1.0000
  H   H1700     1.0  0.34901  0.69048  0.70008  1.0000
  H   H1701     1.0  0.37605  0.67133  0.51543  1.0000
  C   C978      1.0  0.42272  0.57919  0.57779  1.0000
  C   C979      1.0  0.44911  0.59928  0.75399  1.0000
  C   C980      1.0  0.47546  0.54167  0.71882  1.0000
  C   C981      1.0  0.38017  0.72087  0.61982  1.0000
  H   H1702     1.0  0.34822  0.68162  0.65891  1.0000
  H   H1703     1.0  0.33404  0.68179  0.67901  1.0000
  H   H1704     1.0  0.34082  0.69230  0.64504  1.0000
  C   C982      1.0  0.47725  0.58539  0.90818  1.0000
  C   C983      1.0  0.25699  0.62911  0.74665  1.0000
  C   C984      1.0  0.29887  0.63235  0.51077  1.0000
  Fe  Fe118     1.0  0.25701  0.71082  0.64857  1.0000
  C   C985      1.0  0.30414  0.65306  0.51456  1.0000
  C   C986      1.0  0.31545  0.65380  0.52488  1.0000
  H   H1705     1.0  0.44698  0.55310  0.96695  1.0000
  C   C987      1.0  0.27980  0.64397  0.50540  1.0000
  C   C988      1.0  0.30900  0.62632  0.51271  1.0000
  C   C989      1.0  0.31725  0.66351  0.54037  1.0000
  H   H1706     1.0  0.26497  0.58061  0.50083  1.0000
  H   H1707     1.0  0.37167  0.56962  0.48656  1.0000
  H   H1708     1.0  0.25746  0.62985  0.69186  1.0000
  H   H1709     1.0  0.29353  0.63100  0.53279  1.0000
  H   H1710     1.0  0.40412  0.54097  0.72640  1.0000
  H   H1711     1.0  0.31947  0.69692  0.95227  1.0000
  C   C990      1.0  0.39756  0.60913  0.91394  1.0000
  H   H1712     1.0  0.44610  0.75134  0.69472  1.0000
  H   H1713     1.0  0.29685  0.65015  0.53426  1.0000
  H   H1714     1.0  0.26841  0.73292  0.72986  1.0000
  H   H1715     1.0  0.31485  0.64544  0.54021  1.0000
  H   H1716     1.0  0.25469  0.62763  0.91664  1.0000
  C   C991      1.0  0.26925  0.74833  0.97019  1.0000
  H   H1717     1.0  0.28011  0.64791  0.52358  1.0000
  H   H1718     1.0  0.46615  0.56040  0.51298  1.0000
  H   H1719     1.0  0.26363  0.68103  0.56330  1.0000
  H   H1720     1.0  0.31595  0.63145  0.51987  1.0000
  H   H1721     1.0  0.30933  0.66245  0.55762  1.0000
  H   H1722     1.0  0.32471  0.66309  0.55009  1.0000
  H   H1723     1.0  0.31920  0.67230  0.52525  1.0000
  H   H1724     1.0  0.47436  0.65281  0.50198  1.0000
  H   H1725     1.0  0.29210  0.74832  0.76003  1.0000
  S   S230      1.0  0.45179  0.62203  0.95943  1.0000
  C   C992      1.0  0.41866  0.55380  0.49264  1.0000
  C   C993      1.0  0.27485  0.73199  0.94981  1.0000
  H   H1726     1.0  0.36440  0.70714  0.75926  1.0000
  H   H1727     1.0  0.25927  0.60349  0.93824  1.0000
  H   H1728     1.0  0.47052  0.65844  0.56019  1.0000
  C   C994      1.0  0.29784  0.57934  0.83450  1.0000
  H   H1729     1.0  0.37608  0.55171  0.96162  1.0000
  H   H1730     1.0  0.30072  0.61467  0.55520  1.0000
  H   H1731     1.0  0.38843  0.53555  0.73638  1.0000
  H   H1732     1.0  0.47837  0.53412  0.72923  1.0000
  H   H1733     1.0  0.37872  0.71257  0.61297  1.0000
  C   C995      1.0  0.36780  0.55291  0.97386  1.0000
  H   H1734     1.0  0.34213  0.57792  0.90988  1.0000
  H   H1735     1.0  0.42594  0.56915  0.54660  1.0000
  H   H1736     1.0  0.35353  0.56278  0.91323  1.0000
  H   H1737     1.0  0.33356  0.61997  0.97599  1.0000
  S   S231      1.0  0.42183  0.71702  0.51232  1.0000
  H   H1738     1.0  0.46617  0.71415  0.69821  1.0000
  S   S232      1.0  0.31555  0.59591  0.93960  1.0000
  H   H1739     1.0  0.47106  0.57879  0.77043  1.0000
  C   C996      1.0  0.39645  0.68705  0.48182  1.0000
  H   H1740     1.0  0.47328  0.72572  0.82881  1.0000
  H   H1741     1.0  0.42309  0.69558  0.92376  1.0000
  H   H1742     1.0  0.45848  0.58015  0.79469  1.0000
  H   H1743     1.0  0.39910  0.72361  0.60849  1.0000
  H   H1744     1.0  0.27234  0.65787  0.48706  1.0000
  H   H1745     1.0  0.45483  0.57462  0.93179  1.0000
  H   H1746     1.0  0.34159  0.65178  0.48300  1.0000
  C   C997      1.0  0.25252  0.57771  0.89253  1.0000
  H   H1747     1.0  0.27630  0.59306  0.50086  1.0000
  C   C998      1.0  0.46028  0.60357  0.86575  1.0000
  H   H1748     1.0  0.44797  0.56251  0.54166  1.0000
  C   C999      1.0  0.29693  0.74074  0.57704  1.0000
  C   C1000     1.0  0.46998  0.59984  0.87890  1.0000
  C   C1001     1.0  0.40161  0.53124  0.85418  1.0000
  N   N56       1.0  0.46728  0.58712  0.89513  1.0000
  N   N57       1.0  0.30210  0.64523  0.49488  1.0000
  C   C1002     1.0  0.45682  0.56332  0.78549  1.0000
  H   H1749     1.0  0.46926  0.71695  0.86502  1.0000
  H   H1750     1.0  0.47700  0.70993  0.90462  1.0000
  C   C1003     1.0  0.34861  0.59085  0.96951  1.0000
  H   H1751     1.0  0.42070  0.74640  0.58408  1.0000
  C   C1004     1.0  0.36623  0.73558  0.66322  1.0000
  S   S233      1.0  0.45677  0.73495  0.88773  1.0000
  H   H1752     1.0  0.39718  0.61703  0.92204  1.0000
  H   H1753     1.0  0.49236  0.69951  0.89175  1.0000
  H   H1754     1.0  0.38295  0.53124  0.49537  1.0000
  H   H1755     1.0  0.25662  0.75031  0.72636  1.0000
  H   H1756     1.0  0.39185  0.55654  0.52144  1.0000
  H   H1757     1.0  0.29344  0.57263  0.85501  1.0000
  H   H1758     1.0  0.26872  0.61233  0.50100  1.0000
  C   C1005     1.0  0.45951  0.75068  0.64682  1.0000
  H   H1759     1.0  0.35617  0.55226  0.49816  1.0000
  H   H1760     1.0  0.45478  0.66455  0.52333  1.0000
  C   C1006     1.0  0.26577  0.61808  0.95666  1.0000
  S   S234      1.0  0.48010  0.64440  0.95984  1.0000
  N   N58       1.0  0.25584  0.60071  0.48815  1.0000
  C   C1007     1.0  0.37189  0.54551  0.82962  1.0000
  C   C1008     1.0  0.42302  0.71881  0.59232  1.0000
  H   H1761     1.0  0.46938  0.59708  0.69746  1.0000
  H   H1762     1.0  0.29176  0.73079  0.74435  1.0000
  C   C1009     1.0  0.48122  0.58645  0.62773  1.0000
  H   H1763     1.0  0.47799  0.59788  0.73589  1.0000
  H   H1764     1.0  0.48790  0.62925  0.73847  1.0000
  Fe  Fe119     1.0  0.45075  0.71992  0.92758  1.0000
  H   H1765     1.0  0.29801  0.60834  0.52630  1.0000
  H   H1766     1.0  0.47707  0.61779  0.71286  1.0000
  H   H1767     1.0  0.38718  0.55185  0.57411  1.0000
  H   H1768     1.0  0.44094  0.57328  0.50492  1.0000
  H   H1769     1.0  0.25273  0.66677  0.69155  1.0000
  H   H1770     1.0  0.26394  0.61347  0.55693  1.0000
  Fe  Fe120     1.0  0.45815  0.74683  0.91766  1.0000
  H   H1771     1.0  0.42889  0.58256  0.48924  1.0000
  C   C1010     1.0  0.38725  0.56173  0.79602  1.0000
  H   H1772     1.0  0.43189  0.59869  0.53019  1.0000
  H   H1773     1.0  0.45694  0.65085  0.54177  1.0000
  C   C1011     1.0  0.39113  0.58285  0.79988  1.0000
  H   H1774     1.0  0.48240  0.61756  0.77083  1.0000
  H   H1775     1.0  0.36806  0.72420  0.71826  1.0000
  H   H1776     1.0  0.40071  0.58444  0.79103  1.0000
  H   H1777     1.0  0.44525  0.57777  0.97765  1.0000
  H   H1778     1.0  0.28664  0.71926  0.71068  1.0000
  H   H1779     1.0  0.25489  0.59609  0.89141  1.0000
  H   H1780     1.0  0.29896  0.74796  0.53285  1.0000
  C   C1012     1.0  0.48480  0.61956  0.74720  1.0000
  H   H1781     1.0  0.34253  0.70172  0.68458  1.0000
  H   H1782     1.0  0.37166  0.55021  0.84677  1.0000
  C   C1013     1.0  0.47435  0.61474  0.73647  1.0000
  C   C1014     1.0  0.47062  0.60111  0.74633  1.0000
  N   N59       1.0  0.45943  0.59526  0.74040  1.0000
  H   H1783     1.0  0.27766  0.73757  0.92756  1.0000
  H   H1784     1.0  0.45114  0.73382  0.55860  1.0000
  H   H1785     1.0  0.26626  0.62204  0.89897  1.0000
  H   H1786     1.0  0.45125  0.58484  0.56414  1.0000
  H   H1787     1.0  0.44766  0.57777  0.75409  1.0000
  C   C1015     1.0  0.45971  0.60014  0.52829  1.0000
  C   C1016     1.0  0.25436  0.68318  0.63954  1.0000
  H   H1788     1.0  0.30146  0.74111  0.59422  1.0000
  C   C1017     1.0  0.30483  0.74818  0.54734  1.0000
  C   C1018     1.0  0.49286  0.53229  0.68005  1.0000
  H   H1789     1.0  0.49208  0.61560  0.74015  1.0000
  H   H1790     1.0  0.41608  0.56213  0.60905  1.0000
  H   H1791     1.0  0.42743  0.58324  0.59176  1.0000
  C   C1019     1.0  0.43686  0.60351  0.79647  1.0000
  C   C1020     1.0  0.42690  0.72040  0.54131  1.0000
  H   H1792     1.0  0.35321  0.53577  0.87770  1.0000
  H   H1793     1.0  0.47019  0.59863  0.76937  1.0000
  H   H1794     1.0  0.46719  0.61863  0.74464  1.0000
  H   H1795     1.0  0.41181  0.55674  0.97862  1.0000
  C   C1021     1.0  0.41267  0.56889  0.59681  1.0000
  H   H1796     1.0  0.41874  0.58569  0.56669  1.0000
  H   H1797     1.0  0.40792  0.68152  0.50622  1.0000
  S   S235      1.0  0.49587  0.63953  0.50900  1.0000
  C   C1022     1.0  0.48924  0.55876  0.62559  1.0000
  C   C1023     1.0  0.38779  0.59501  0.96247  1.0000
  H   H1798     1.0  0.37216  0.73683  0.67721  1.0000
  C   C1024     1.0  0.46404  0.57176  0.65834  1.0000
  C   C1025     1.0  0.44709  0.57877  0.51378  1.0000
  C   C1026     1.0  0.45111  0.59245  0.69721  1.0000
  H   H1799     1.0  0.36577  0.54844  0.81732  1.0000
  C   C1027     1.0  0.25310  0.63435  0.77210  1.0000
  H   H1800     1.0  0.38966  0.58853  0.81462  1.0000
  H   H1801     1.0  0.29733  0.75047  0.72271  1.0000
  Fe  Fe121     1.0  0.43546  0.73297  0.96018  1.0000
  C   C1028     1.0  0.28130  0.71680  0.73310  1.0000
  Fe  Fe122     1.0  0.49403  0.63455  0.95446  1.0000
  H   H1802     1.0  0.45745  0.61890  0.83896  1.0000
  H   H1803     1.0  0.39495  0.54321  0.49010  1.0000
  H   H1804     1.0  0.46644  0.62226  0.86258  1.0000
  N   N60       1.0  0.38410  0.54869  0.81025  1.0000
  C   C1029     1.0  0.46150  0.68178  0.93784  1.0000
  C   C1030     1.0  0.25866  0.67434  0.62967  1.0000
  H   H1805     1.0  0.41294  0.55799  0.48243  1.0000
  H   H1806     1.0  0.39281  0.67776  0.48215  1.0000
  H   H1807     1.0  0.38192  0.56361  0.78056  1.0000
  H   H1808     1.0  0.45931  0.70855  0.67299  1.0000
  C   C1031     1.0  0.38574  0.56995  0.81609  1.0000
  H   H1809     1.0  0.37823  0.70435  0.74429  1.0000
  C   C1032     1.0  0.37999  0.55078  0.56327  1.0000
  C   C1033     1.0  0.25767  0.56825  0.89597  1.0000
  C   C1034     1.0  0.44854  0.59106  0.54838  1.0000
  H   H1810     1.0  0.39554  0.55484  0.74770  1.0000
  H   H1811     1.0  0.48211  0.68460  0.52921  1.0000
  H   H1812     1.0  0.44086  0.59405  0.75138  1.0000
  N   N61       1.0  0.44055  0.58447  0.53400  1.0000
  C   C1035     1.0  0.46135  0.57671  0.77618  1.0000
  C   C1036     1.0  0.46728  0.60605  0.54512  1.0000
  S   S236      1.0  0.45391  0.73168  0.95664  1.0000
  H   H1813     1.0  0.30672  0.65498  0.69512  1.0000
  C   C1037     1.0  0.39281  0.54619  0.82719  1.0000
  H   H1814     1.0  0.41410  0.69135  0.90061  1.0000
  H   H1815     1.0  0.40152  0.55255  0.81729  1.0000
  H   H1816     1.0  0.39008  0.54771  0.84870  1.0000
  H   H1817     1.0  0.37676  0.55886  0.56106  1.0000
  C   C1038     1.0  0.48374  0.69452  0.90468  1.0000
  H   H1818     1.0  0.45736  0.56226  0.90587  1.0000
  S   S237      1.0  0.25423  0.71865  0.83291  1.0000
  H   H1819     1.0  0.47619  0.55224  0.67848  1.0000
  C   C1039     1.0  0.47021  0.67586  0.93081  1.0000
  H   H1820     1.0  0.33334  0.69412  0.93835  1.0000
  H   H1821     1.0  0.31140  0.74336  0.54021  1.0000
  H   H1822     1.0  0.35194  0.74285  0.65306  1.0000
  C   C1040     1.0  0.38406  0.54233  0.78700  1.0000
  C   C1041     1.0  0.38122  0.57075  0.48266  1.0000
  H   H1823     1.0  0.45476  0.60315  0.79147  1.0000
  H   H1824     1.0  0.46198  0.60831  0.70072  1.0000
  H   H1825     1.0  0.40328  0.54791  0.77047  1.0000
  H   H1826     1.0  0.26164  0.59047  0.53840  1.0000
  C   C1042     1.0  0.48448  0.75042  0.65127  1.0000
  C   C1043     1.0  0.41920  0.71656  0.56865  1.0000
  S   S238      1.0  0.26152  0.72519  0.60816  1.0000
  H   H1827     1.0  0.36432  0.53444  0.48701  1.0000
  H   H1828     1.0  0.37671  0.54346  0.77721  1.0000
  H   H1829     1.0  0.48002  0.55882  0.63348  1.0000
  H   H1830     1.0  0.41027  0.71179  0.57168  1.0000
  C   C1044     1.0  0.39540  0.54642  0.76230  1.0000
  H   H1831     1.0  0.40348  0.52248  0.85572  1.0000
  H   H1832     1.0  0.47789  0.60201  0.86086  1.0000
  C   C1045     1.0  0.39626  0.53743  0.74475  1.0000
  H   H1833     1.0  0.48534  0.53971  0.63484  1.0000
  H   H1834     1.0  0.49489  0.56630  0.63004  1.0000
  C   C1046     1.0  0.46380  0.69408  0.92816  1.0000
  H   H1835     1.0  0.26846  0.65502  0.69316  1.0000
  C   C1047     1.0  0.35785  0.74344  0.66744  1.0000
  H   H1836     1.0  0.40080  0.53318  0.81083  1.0000
  H   H1837     1.0  0.25627  0.58547  0.80539  1.0000
  N   N62       1.0  0.46272  0.74869  0.67496  1.0000
  C   C1048     1.0  0.39522  0.53379  0.83097  1.0000
  H   H1838     1.0  0.45497  0.60047  0.92887  1.0000
  H   H1839     1.0  0.49563  0.57509  0.91563  1.0000
  H   H1840     1.0  0.34383  0.53597  0.48686  1.0000
  H   H1841     1.0  0.45570  0.74289  0.73530  1.0000
  H   H1842     1.0  0.28496  0.62114  0.97600  1.0000
  C   C1049     1.0  0.27196  0.61655  0.67234  1.0000
  H   H1843     1.0  0.49637  0.66440  0.50375  1.0000
  C   C1050     1.0  0.35384  0.53035  0.86208  1.0000
  C   C1051     1.0  0.29903  0.65025  0.71325  1.0000
  H   H1844     1.0  0.31301  0.62521  0.49149  1.0000
  C   C1052     1.0  0.46442  0.61644  0.84858  1.0000
  H   H1845     1.0  0.28639  0.74381  0.96446  1.0000
  H   H1846     1.0  0.30100  0.64224  0.72478  1.0000
  Fe  Fe123     1.0  0.47054  0.63212  0.93894  1.0000
  S   S239      1.0  0.26221  0.72312  0.67516  1.0000
  C   C1053     1.0  0.38458  0.54882  0.53405  1.0000
  C   C1054     1.0  0.45711  0.58200  0.75006  1.0000
  H   H1847     1.0  0.46149  0.57860  0.73283  1.0000
  H   H1848     1.0  0.44154  0.64741  0.51691  1.0000
  H   H1849     1.0  0.32506  0.64819  0.92002  1.0000
  C   C1055     1.0  0.46107  0.59872  0.70850  1.0000
  S   S240      1.0  0.47829  0.64340  0.89415  1.0000
  H   H1850     1.0  0.39423  0.73693  0.60830  1.0000
  C   C1056     1.0  0.45360  0.59706  0.66492  1.0000
  H   H1851     1.0  0.25357  0.68985  0.51316  1.0000
  C   C1057     1.0  0.44700  0.59833  0.78619  1.0000
  H   H1852     1.0  0.33076  0.64015  0.94630  1.0000
  H   H1853     1.0  0.45735  0.60720  0.51410  1.0000
  H   H1854     1.0  0.43540  0.60246  0.81967  1.0000
  H   H1855     1.0  0.37537  0.57541  0.94965  1.0000
  H   H1856     1.0  0.44443  0.72965  0.51683  1.0000
  H   H1857     1.0  0.44261  0.59400  0.70672  1.0000
  H   H1858     1.0  0.26886  0.59302  0.83453  1.0000
  H   H1859     1.0  0.30051  0.72400  0.57261  1.0000
  C   C1058     1.0  0.26625  0.63208  0.69599  1.0000
  H   H1860     1.0  0.42870  0.59882  0.79243  1.0000
  H   H1861     1.0  0.47960  0.54971  0.72444  1.0000
  H   H1862     1.0  0.37168  0.73890  0.64093  1.0000
  H   H1863     1.0  0.44454  0.58898  0.79829  1.0000
  H   H1864     1.0  0.47492  0.57655  0.92342  1.0000
  H   H1865     1.0  0.27198  0.63844  0.67600  1.0000
  H   H1866     1.0  0.34841  0.53259  0.84722  1.0000
  H   H1867     1.0  0.41726  0.60216  0.50128  1.0000
  C   C1059     1.0  0.48135  0.68218  0.91385  1.0000
  H   H1868     1.0  0.37280  0.54311  0.57672  1.0000
  C   C1060     1.0  0.47504  0.70045  0.91188  1.0000
  H   H1869     1.0  0.40594  0.60689  0.91511  1.0000
  S   S241      1.0  0.49240  0.67500  0.90341  1.0000
  H   H1870     1.0  0.37372  0.72564  0.61377  1.0000
  H   H1871     1.0  0.45018  0.58282  0.70207  1.0000
  H   H1872     1.0  0.43889  0.61303  0.78582  1.0000
  H   H1873     1.0  0.45800  0.59828  0.85092  1.0000
  C   C1061     1.0  0.46863  0.57225  0.68181  1.0000
  H   H1874     1.0  0.47004  0.56288  0.84498  1.0000
  H   H1875     1.0  0.48120  0.65221  0.54284  1.0000
  H   H1876     1.0  0.25799  0.70993  0.78307  1.0000
  C   C1062     1.0  0.47842  0.54384  0.68604  1.0000
  C   C1063     1.0  0.47934  0.66074  0.54525  1.0000
  C   C1064     1.0  0.45965  0.73563  0.68920  1.0000
  H   H1877     1.0  0.45936  0.55945  0.76738  1.0000
  C   C1065     1.0  0.29290  0.72780  0.57733  1.0000
  S   S242      1.0  0.43989  0.74873  0.92282  1.0000
  C   C1066     1.0  0.47567  0.67908  0.52114  1.0000
  C   C1067     1.0  0.30253  0.74737  0.66153  1.0000
  H   H1878     1.0  0.31651  0.65100  0.96619  1.0000
  H   H1879     1.0  0.25444  0.65833  0.61642  1.0000
  C   C1068     1.0  0.47952  0.57980  0.67835  1.0000
  H   H1880     1.0  0.41796  0.58160  0.52088  1.0000
  H   H1881     1.0  0.36889  0.55240  0.52324  1.0000
  H   H1882     1.0  0.26242  0.62571  0.96072  1.0000
  H   H1883     1.0  0.27582  0.60730  0.54408  1.0000
  H   H1884     1.0  0.49278  0.53003  0.70289  1.0000
  C   C1069     1.0  0.42176  0.74962  0.60305  1.0000
  H   H1885     1.0  0.33985  0.67861  0.96724  1.0000
  H   H1886     1.0  0.26419  0.74594  0.69665  1.0000
  C   C1070     1.0  0.45616  0.58372  0.91869  1.0000
  C   C1071     1.0  0.46161  0.56669  0.50319  1.0000
  H   H1887     1.0  0.26792  0.67483  0.62565  1.0000
  H   H1888     1.0  0.28896  0.74392  0.58229  1.0000
  C   C1072     1.0  0.46477  0.56624  0.88667  1.0000
  C   C1073     1.0  0.27736  0.64034  0.72763  1.0000
  H   H1889     1.0  0.46906  0.72972  0.65351  1.0000
  H   H1890     1.0  0.46522  0.59592  0.51497  1.0000
  H   H1891     1.0  0.29907  0.57476  0.81728  1.0000
  H   H1892     1.0  0.42968  0.74760  0.60863  1.0000
  C   C1074     1.0  0.33067  0.64910  0.93499  1.0000
  H   H1893     1.0  0.39326  0.72978  0.57999  1.0000
  H   H1894     1.0  0.27933  0.63216  0.73833  1.0000
  H   H1895     1.0  0.49704  0.66956  0.54739  1.0000
  S   S243      1.0  0.30936  0.62097  0.97739  1.0000
  H   H1896     1.0  0.46829  0.57442  0.48819  1.0000
  H   H1897     1.0  0.48959  0.63061  0.57004  1.0000
  C   C1075     1.0  0.46792  0.69658  0.50300  1.0000
  H   H1898     1.0  0.26546  0.72741  0.95478  1.0000
  C   C1076     1.0  0.27154  0.58871  0.48741  1.0000
  H   H1899     1.0  0.45324  0.60639  0.65916  1.0000
  H   H1900     1.0  0.45874  0.65788  0.86798  1.0000
  H   H1901     1.0  0.46439  0.74654  0.63197  1.0000
  C   C1077     1.0  0.49834  0.58439  0.90284  1.0000
  H   H1902     1.0  0.45048  0.71143  0.70341  1.0000
  H   H1903     1.0  0.28771  0.73744  0.65114  1.0000
  C   C1078     1.0  0.37475  0.54666  0.51843  1.0000
  H   H1904     1.0  0.28727  0.72273  0.59878  1.0000
  C   C1079     1.0  0.45545  0.59161  0.93972  1.0000
  H   H1905     1.0  0.48525  0.67374  0.56806  1.0000
  H   H1906     1.0  0.28771  0.72682  0.56151  1.0000
  C   C1080     1.0  0.28238  0.72753  0.74534  1.0000
  C   C1081     1.0  0.48797  0.66629  0.56104  1.0000
  H   H1907     1.0  0.26511  0.69628  0.54615  1.0000
  H   H1908     1.0  0.49463  0.63588  0.65692  1.0000
  C   C1082     1.0  0.49154  0.54689  0.63939  1.0000
  C   C1083     1.0  0.46570  0.57950  0.87487  1.0000
  H   H1909     1.0  0.46208  0.55001  0.87343  1.0000
  H   H1910     1.0  0.45037  0.73266  0.70184  1.0000
  H   H1911     1.0  0.46489  0.73376  0.70483  1.0000
  H   H1912     1.0  0.47288  0.56485  0.89239  1.0000
  H   H1913     1.0  0.45224  0.60254  0.88251  1.0000
  C   C1084     1.0  0.48820  0.65730  0.58753  1.0000
  H   H1914     1.0  0.41261  0.74216  0.73722  1.0000
  H   H1915     1.0  0.44697  0.59174  0.65697  1.0000
  H   H1916     1.0  0.25061  0.74579  0.48672  1.0000
  H   H1917     1.0  0.45354  0.72680  0.65856  1.0000
  H   H1918     1.0  0.44837  0.58340  0.90984  1.0000
  H   H1919     1.0  0.26177  0.64431  0.50717  1.0000
  H   H1920     1.0  0.47892  0.59180  0.92103  1.0000
  H   H1921     1.0  0.48574  0.55363  0.58794  1.0000
  H   H1922     1.0  0.46759  0.50315  0.56165  1.0000
  H   H1923     1.0  0.44715  0.56076  0.79357  1.0000
  C   C1085     1.0  0.48922  0.58711  0.88698  1.0000
  H   H1924     1.0  0.37540  0.70981  0.51511  1.0000
  H   H1925     1.0  0.49411  0.66156  0.59895  1.0000
  H   H1926     1.0  0.27742  0.72453  0.76803  1.0000
  H   H1927     1.0  0.48427  0.74109  0.66013  1.0000
  H   H1928     1.0  0.49409  0.59308  0.64854  1.0000
  C   C1086     1.0  0.32681  0.69360  0.95823  1.0000
  H   H1929     1.0  0.46005  0.57481  0.53777  1.0000
  C   C1087     1.0  0.47410  0.68741  0.49465  1.0000
  S   S244      1.0  0.49689  0.62257  0.86093  1.0000
  H   H1930     1.0  0.45612  0.65541  0.90602  1.0000
  H   H1931     1.0  0.46237  0.59640  0.65417  1.0000
  H   H1932     1.0  0.47879  0.71289  0.83756  1.0000
  S   S245      1.0  0.48371  0.62152  0.93652  1.0000
  S   S246      1.0  0.43159  0.55798  0.93135  1.0000
  H   H1933     1.0  0.27192  0.73911  0.78170  1.0000
  H   H1934     1.0  0.45436  0.56017  0.85901  1.0000
  H   H1935     1.0  0.25110  0.71827  0.56548  1.0000
  H   H1936     1.0  0.49749  0.54658  0.72229  1.0000
  C   C1088     1.0  0.32582  0.65570  0.95603  1.0000
  H   H1937     1.0  0.46738  0.67654  0.53827  1.0000
  S   S247      1.0  0.24957  0.63265  0.63886  1.0000
  H   H1938     1.0  0.26056  0.74525  0.82201  1.0000
  H   H1939     1.0  0.27993  0.72524  0.95155  1.0000
  H   H1940     1.0  0.38212  0.72184  0.70318  1.0000
  C   C1089     1.0  0.37338  0.71125  0.74537  1.0000
  H   H1941     1.0  0.35027  0.52094  0.87391  1.0000
  Fe  Fe124     1.0  0.26464  0.73742  0.63585  1.0000
  H   H1942     1.0  0.25685  0.71361  0.51907  1.0000
  H   H1943     1.0  0.44390  0.59232  0.97861  1.0000
  H   H1944     1.0  0.36254  0.65187  0.54034  1.0000
  H   H1945     1.0  0.44223  0.59933  0.49914  1.0000
  H   H1946     1.0  0.46310  0.59268  0.94883  1.0000
  Fe  Fe125     1.0  0.49232  0.63352  0.89263  1.0000
  H   H1947     1.0  0.37925  0.60172  0.92982  1.0000
  C   C1090     1.0  0.45659  0.75227  0.72525  1.0000
  S   S248      1.0  0.26396  0.69487  0.64601  1.0000
  C   C1091     1.0  0.27054  0.64813  0.49198  1.0000
  C   C1092     1.0  0.46270  0.55945  0.86456  1.0000
  H   H1948     1.0  0.25998  0.64173  0.77325  1.0000
  C   C1093     1.0  0.45411  0.57054  0.52652  1.0000
  H   H1949     1.0  0.37016  0.65020  0.56779  1.0000
  H   H1950     1.0  0.25452  0.60008  0.79212  1.0000
  H   H1951     1.0  0.43522  0.56907  0.56972  1.0000
  H   H1952     1.0  0.39614  0.53118  0.87515  1.0000
  H   H1953     1.0  0.45753  0.57988  0.86810  1.0000
  H   H1954     1.0  0.38233  0.53270  0.79559  1.0000
  H   H1955     1.0  0.46061  0.55965  0.80282  1.0000
  H   H1956     1.0  0.32648  0.66462  0.94324  1.0000
  H   H1957     1.0  0.27708  0.64569  0.74342  1.0000
  C   C1094     1.0  0.25963  0.60663  0.51002  1.0000
  H   H1958     1.0  0.28448  0.70996  0.74584  1.0000
  H   H1959     1.0  0.47040  0.59946  0.55877  1.0000
  H   H1960     1.0  0.28236  0.73891  0.70557  1.0000
  C   C1095     1.0  0.25737  0.61956  0.91360  1.0000
  H   H1961     1.0  0.33970  0.65394  0.92245  1.0000
  H   H1962     1.0  0.47239  0.61785  0.83116  1.0000
  H   H1963     1.0  0.47931  0.65370  0.60224  1.0000
  H   H1964     1.0  0.43656  0.58461  0.95702  1.0000
  S   S249      1.0  0.39889  0.74629  0.69659  1.0000
  C   C1096     1.0  0.47137  0.66085  0.50402  1.0000
  C   C1097     1.0  0.25712  0.61165  0.94218  1.0000
  Fe  Fe126     1.0  0.48895  0.65501  0.91494  1.0000
  H   H1965     1.0  0.27443  0.62182  0.94071  1.0000
  H   H1966     1.0  0.49725  0.67947  0.50225  1.0000
  C   C1098     1.0  0.26389  0.68725  0.54307  1.0000
  H   H1967     1.0  0.47505  0.61267  0.53013  1.0000
  H   H1968     1.0  0.36924  0.53754  0.52894  1.0000
  C   C1099     1.0  0.25886  0.59861  0.53957  1.0000
  H   H1969     1.0  0.40749  0.56475  0.58377  1.0000
  N   N63       1.0  0.49078  0.54433  0.67096  1.0000
  C   C1100     1.0  0.27693  0.73945  0.97060  1.0000
  C   C1101     1.0  0.37810  0.57412  0.96983  1.0000
  H   H1970     1.0  0.25773  0.62286  0.80565  1.0000
  H   H1971     1.0  0.38825  0.54101  0.53746  1.0000
  C   C1102     1.0  0.49197  0.67156  0.49816  1.0000
  H   H1972     1.0  0.27903  0.62320  0.65529  1.0000
  H   H1973     1.0  0.27844  0.62136  0.70642  1.0000
  C   C1103     1.0  0.44460  0.58622  0.96472  1.0000
  C   C1104     1.0  0.47369  0.51151  0.62883  1.0000
  S   S250      1.0  0.25523  0.73064  0.90131  1.0000
  H   H1974     1.0  0.47287  0.58293  0.85486  1.0000
  H   H1975     1.0  0.27632  0.60236  0.95429  1.0000
  H   H1976     1.0  0.27151  0.68711  0.52640  1.0000
  H   H1977     1.0  0.29322  0.62696  0.50056  1.0000
  N   N64       1.0  0.27866  0.74849  0.73718  1.0000
  H   H1978     1.0  0.25112  0.61480  0.90372  1.0000
  C   C1105     1.0  0.26642  0.60517  0.55535  1.0000
  H   H1979     1.0  0.24965  0.59591  0.55270  1.0000
  C   C1106     1.0  0.32219  0.68090  0.97641  1.0000
  C   C1107     1.0  0.25167  0.71509  0.78150  1.0000
  H   H1980     1.0  0.49367  0.60337  0.97423  1.0000
  H   H1981     1.0  0.45609  0.56228  0.49117  1.0000
  S   S251      1.0  0.48522  0.58015  0.70790  1.0000
  H   H1982     1.0  0.34293  0.58825  0.95571  1.0000
  C   C1108     1.0  0.26211  0.64896  0.71270  1.0000
  H   H1983     1.0  0.48954  0.56926  0.58418  1.0000
  H   H1984     1.0  0.26376  0.61525  0.66519  1.0000
  C   C1109     1.0  0.38715  0.54043  0.48219  1.0000
  H   H1985     1.0  0.32089  0.75189  0.57120  1.0000
  H   H1986     1.0  0.49257  0.59637  0.87416  1.0000
  C   C1110     1.0  0.29191  0.64765  0.48337  1.0000
  H   H1987     1.0  0.48865  0.58137  0.87225  1.0000
  H   H1988     1.0  0.38948  0.69179  0.48206  1.0000
  H   H1989     1.0  0.49524  0.67017  0.96327  1.0000
  C   C1111     1.0  0.49151  0.56084  0.59331  1.0000
  H   H1990     1.0  0.33093  0.69934  0.97025  1.0000
  C   C1112     1.0  0.26860  0.75124  0.48493  1.0000
  H   H1991     1.0  0.43835  0.75066  0.74474  1.0000
  H   H1992     1.0  0.33706  0.61495  0.48860  1.0000
  C   C1113     1.0  0.41081  0.75067  0.73623  1.0000
  H   H1993     1.0  0.45379  0.64229  0.50159  1.0000
  C   C1114     1.0  0.33915  0.63358  0.48234  1.0000
  C   C1115     1.0  0.42956  0.55528  0.96898  1.0000
  H   H1994     1.0  0.26245  0.65382  0.72940  1.0000
  C   C1116     1.0  0.25102  0.66493  0.62471  1.0000
  H   H1995     1.0  0.26016  0.74275  0.97955  1.0000
  C   C1117     1.0  0.33291  0.65632  0.97857  1.0000
  H   H1996     1.0  0.26344  0.59293  0.97888  1.0000
  C   C1118     1.0  0.35871  0.58492  0.96648  1.0000
  H   H1997     1.0  0.35199  0.60058  0.96268  1.0000
  H   H1998     1.0  0.38785  0.60300  0.97050  1.0000
  H   H1999     1.0  0.35485  0.57530  0.97148  1.0000
  C   C1119     1.0  0.24981  0.62517  0.80067  1.0000
  H   H2000     1.0  0.46724  0.70261  0.48348  1.0000
  H   H2001     1.0  0.45146  0.65597  0.48340  1.0000
  H   H2002     1.0  0.42292  0.69643  0.98057  1.0000
  H   H2003     1.0  0.46882  0.68262  0.48285  1.0000
  H   H2004     1.0  0.25043  0.64610  0.68489  1.0000
  C   C1120     1.0  0.24994  0.64776  0.70623  1.0000
  H   H2005     1.0  0.47752  0.75228  0.69280  1.0000
  H   H2006     1.0  0.47166  0.66546  0.48201  1.0000
  H   H2007     1.0  0.46974  0.75194  0.98064  1.0000
  S   S252      1.0  0.43393  0.95544  0.14562  1.0000
  H   H2008     1.0  0.28513  0.78525  0.04904  1.0000
  H   H2009     1.0  0.49781  0.99586  0.10923  1.0000
  N   N65       1.0  0.27090  0.76785  0.26254  1.0000
  H   H2010     1.0  0.47587  0.81113  0.10765  1.0000
  H   H2011     1.0  0.30620  0.78948  0.35895  1.0000
  H   H2012     1.0  0.37089  0.81877  0.32538  1.0000
  H   H2013     1.0  0.48330  0.81142  0.36079  1.0000
  C   C1121     1.0  0.27093  0.79692  0.40719  1.0000
  Fe  Fe127     1.0  0.49087  0.94982  0.44459  1.0000
  S   S253      1.0  0.47420  0.95382  0.43716  1.0000
  C   C1122     1.0  0.40920  0.79672  0.05245  1.0000
  Fe  Fe128     1.0  0.31198  0.81360  0.41320  1.0000
  S   S254      1.0  0.46727  0.96556  0.13958  1.0000
  H   H2014     1.0  0.45732  0.87227  0.03184  1.0000
  Fe  Fe129     1.0  0.40456  0.93171  0.39197  1.0000
  S   S255      1.0  0.40952  0.91554  0.38365  1.0000
  S   S256      1.0  0.40289  0.94573  0.35490  1.0000
  Fe  Fe130     1.0  0.39602  0.90553  0.42464  1.0000
  S   S257      1.0  0.38599  0.88641  0.42746  1.0000
  Fe  Fe131     1.0  0.42207  0.91923  0.41017  1.0000
  S   S258      1.0  0.44048  0.91712  0.39763  1.0000
  S   S259      1.0  0.39028  0.92170  0.43237  1.0000
  S   S260      1.0  0.41805  0.93609  0.41628  1.0000
  Fe  Fe132     1.0  0.46179  0.85063  0.44421  1.0000
  S   S261      1.0  0.44211  0.84665  0.45652  1.0000
  S   S262      1.0  0.46927  0.87074  0.43378  1.0000
  Fe  Fe133     1.0  0.46021  0.82422  0.44660  1.0000
  S   S263      1.0  0.44065  0.81917  0.45954  1.0000
  H   H2015     1.0  0.46649  0.79148  0.28372  1.0000
  Fe  Fe134     1.0  0.44234  0.83541  0.42553  1.0000
  S   S264      1.0  0.43048  0.83517  0.39531  1.0000
  H   H2016     1.0  0.42168  0.75896  0.00141  1.0000
  C   C1123     1.0  0.26949  0.77778  0.11597  1.0000
  S   S265      1.0  0.46190  0.84015  0.41114  1.0000
  H   H2017     1.0  0.43931  0.88734  0.47355  1.0000
  Fe  Fe135     1.0  0.44420  0.81832  0.18153  1.0000
  S   S266      1.0  0.42631  0.80669  0.18976  1.0000
  S   S267      1.0  0.45722  0.82177  0.13893  1.0000
  Fe  Fe136     1.0  0.43963  0.82217  0.24181  1.0000
  S   S268      1.0  0.42114  0.81106  0.25474  1.0000
  S   S269      1.0  0.44980  0.83015  0.26999  1.0000
  Fe  Fe137     1.0  0.42850  0.79869  0.23257  1.0000
  S   S270      1.0  0.42329  0.77926  0.25331  1.0000
  Fe  Fe138     1.0  0.42027  0.81995  0.21086  1.0000
  S   S271      1.0  0.40471  0.82637  0.20232  1.0000
  S   S272      1.0  0.44712  0.80902  0.22263  1.0000
  S   S273      1.0  0.43815  0.83235  0.19965  1.0000
  H   H2018     1.0  0.44859  0.85814  0.37314  1.0000
  S   S274      1.0  0.32349  0.80121  0.41487  1.0000
  Fe  Fe139     1.0  0.33323  0.83505  0.40846  1.0000
  S   S275      1.0  0.34562  0.82340  0.40806  1.0000
  S   S276      1.0  0.33984  0.85478  0.40716  1.0000
  Fe  Fe140     1.0  0.33636  0.81535  0.37890  1.0000
  S   S277      1.0  0.34504  0.80921  0.34150  1.0000
  Fe  Fe141     1.0  0.33126  0.81065  0.44384  1.0000
  H   H2019     1.0  0.41096  0.96691  0.25387  1.0000
  S   S278      1.0  0.32482  0.82780  0.37644  1.0000
  S   S279      1.0  0.31889  0.82227  0.44520  1.0000
  Fe  Fe142     1.0  0.35011  0.79615  0.16610  1.0000
  S   S280      1.0  0.34865  0.81477  0.15381  1.0000
  S   S281      1.0  0.36684  0.79100  0.16860  1.0000
  Fe  Fe143     1.0  0.32401  0.78574  0.17914  1.0000
  S   S282      1.0  0.32058  0.80354  0.16871  1.0000
  S   S283      1.0  0.30813  0.77041  0.19722  1.0000
  Fe  Fe144     1.0  0.33580  0.80754  0.13067  1.0000
  S   S284      1.0  0.33402  0.81770  0.08852  1.0000
  Fe  Fe145     1.0  0.33358  0.80880  0.19304  1.0000
  S   S285      1.0  0.32925  0.81881  0.22604  1.0000
  S   S286      1.0  0.33852  0.78933  0.13970  1.0000
  S   S287      1.0  0.33582  0.79070  0.20642  1.0000
  C   C1124     1.0  0.43472  0.82272  0.08852  1.0000
  C   C1125     1.0  0.43566  0.76211  0.03875  1.0000
  C   C1126     1.0  0.30435  0.76175  0.17446  1.0000
  H   H2020     1.0  0.36775  0.85434  0.01032  1.0000
  H   H2021     1.0  0.42566  0.82275  0.09093  1.0000
  H   H2022     1.0  0.35562  0.90061  0.37632  1.0000
  C   C1127     1.0  0.26225  0.77238  0.28134  1.0000
  C   C1128     1.0  0.31255  0.76151  0.15036  1.0000
  H   H2023     1.0  0.43395  0.85352  0.01126  1.0000
  H   H2024     1.0  0.45662  0.94640  0.25985  1.0000
  H   H2025     1.0  0.36713  0.89363  0.01590  1.0000
  H   H2026     1.0  0.32148  0.76667  0.14550  1.0000
  C   C1129     1.0  0.34086  0.81216  0.30916  1.0000
  C   C1130     1.0  0.34437  0.80635  0.28833  1.0000
  C   C1131     1.0  0.34089  0.80829  0.26272  1.0000
  C   C1132     1.0  0.33393  0.81612  0.25771  1.0000
  C   C1133     1.0  0.33051  0.82196  0.27847  1.0000
  C   C1134     1.0  0.33395  0.81999  0.30407  1.0000
  H   H2027     1.0  0.34974  0.80029  0.29199  1.0000
  H   H2028     1.0  0.34372  0.80386  0.24674  1.0000
  H   H2029     1.0  0.32516  0.82805  0.27474  1.0000
  H   H2030     1.0  0.33125  0.82458  0.31976  1.0000
  C   C1135     1.0  0.33271  0.80214  0.01194  1.0000
  C   C1136     1.0  0.33513  0.79571  0.03611  1.0000
  C   C1137     1.0  0.33525  0.80018  0.06014  1.0000
  C   C1138     1.0  0.33295  0.81113  0.06013  1.0000
  C   C1139     1.0  0.33012  0.81732  0.03639  1.0000
  C   C1140     1.0  0.33019  0.81297  0.01222  1.0000
  H   H2031     1.0  0.33709  0.78731  0.03607  1.0000
  H   H2032     1.0  0.33733  0.79526  0.07840  1.0000
  H   H2033     1.0  0.32791  0.82556  0.03658  1.0000
  H   H2034     1.0  0.47044  0.99290  0.06170  1.0000
  C   C1141     1.0  0.41744  0.77080  0.23223  1.0000
  C   C1142     1.0  0.41844  0.75922  0.23538  1.0000
  H   H2035     1.0  0.47859  0.76576  0.33686  1.0000
  S   S288      1.0  0.46219  0.83512  0.47843  1.0000
  C   C1143     1.0  0.40708  0.76856  0.19584  1.0000
  C   C1144     1.0  0.41171  0.77544  0.21251  1.0000
  H   H2036     1.0  0.25099  0.77080  0.13699  1.0000
  H   H2037     1.0  0.29385  0.80298  0.34671  1.0000
  H   H2038     1.0  0.40253  0.77214  0.18090  1.0000
  H   H2039     1.0  0.41051  0.78419  0.21067  1.0000
  C   C1145     1.0  0.39381  0.81616  0.19496  1.0000
  C   C1146     1.0  0.38373  0.81934  0.19000  1.0000
  C   C1147     1.0  0.37514  0.81147  0.18309  1.0000
  C   C1148     1.0  0.37667  0.80044  0.18076  1.0000
  C   C1149     1.0  0.38657  0.79713  0.18663  1.0000
  C   C1150     1.0  0.39508  0.80495  0.19378  1.0000
  H   H2040     1.0  0.38262  0.82796  0.19108  1.0000
  H   H2041     1.0  0.36749  0.81408  0.17898  1.0000
  H   H2042     1.0  0.38775  0.78855  0.18525  1.0000
  H   H2043     1.0  0.40264  0.80228  0.19813  1.0000
  H   H2044     1.0  0.40482  0.85118  0.28361  1.0000
  H   H2045     1.0  0.49434  0.97834  0.35173  1.0000
  C   C1151     1.0  0.41487  0.93969  0.27711  1.0000
  H   H2046     1.0  0.30552  0.80508  0.05113  1.0000
  H   H2047     1.0  0.44709  0.80261  0.42648  1.0000
  H   H2048     1.0  0.48298  0.98424  0.08757  1.0000
  C   C1152     1.0  0.45628  0.95002  0.23770  1.0000
  C   C1153     1.0  0.43945  0.82247  0.11213  1.0000
  C   C1154     1.0  0.45121  0.82251  0.10933  1.0000
  C   C1155     1.0  0.31561  0.77775  0.30336  1.0000
  H   H2049     1.0  0.41578  0.80585  0.00731  1.0000
  C   C1156     1.0  0.45104  0.87738  0.36054  1.0000
  H   H2050     1.0  0.43400  0.82234  0.13243  1.0000
  H   H2051     1.0  0.43080  0.90628  0.31487  1.0000
  C   C1157     1.0  0.45149  0.85468  0.11751  1.0000
  C   C1158     1.0  0.43580  0.83341  0.36077  1.0000
  C   C1159     1.0  0.42791  0.82992  0.34497  1.0000
  C   C1160     1.0  0.43199  0.82875  0.31721  1.0000
  C   C1161     1.0  0.44403  0.83137  0.30477  1.0000
  C   C1162     1.0  0.45187  0.83495  0.32047  1.0000
  C   C1163     1.0  0.44780  0.83579  0.34843  1.0000
  H   H2052     1.0  0.41861  0.82807  0.35433  1.0000
  H   H2053     1.0  0.42587  0.82594  0.30534  1.0000
  H   H2054     1.0  0.46119  0.83703  0.31099  1.0000
  H   H2055     1.0  0.45396  0.83850  0.36021  1.0000
  C   C1164     1.0  0.37329  0.87796  0.42040  1.0000
  C   C1165     1.0  0.36394  0.88261  0.41533  1.0000
  C   C1166     1.0  0.35387  0.87540  0.41140  1.0000
  C   C1167     1.0  0.35296  0.86345  0.41201  1.0000
  C   C1168     1.0  0.36236  0.85882  0.41683  1.0000
  C   C1169     1.0  0.37237  0.86600  0.42113  1.0000
  C   C1170     1.0  0.31133  0.76655  0.04964  1.0000
  H   H2056     1.0  0.33419  0.84222  0.10576  1.0000
  H   H2057     1.0  0.36188  0.84968  0.41744  1.0000
  H   H2058     1.0  0.37946  0.86221  0.42511  1.0000
  H   H2059     1.0  0.26487  0.77239  0.99340  1.0000
  H   H2060     1.0  0.45543  0.77633  0.03428  1.0000
  C   C1171     1.0  0.25190  0.76359  0.20857  1.0000
  C   C1172     1.0  0.47901  0.88216  0.44188  1.0000
  C   C1173     1.0  0.47826  0.89387  0.43322  1.0000
  C   C1174     1.0  0.48573  0.90320  0.43917  1.0000
  H   H2061     1.0  0.48175  0.83241  0.02152  1.0000
  H   H2062     1.0  0.25851  0.75739  0.45614  1.0000
  C   C1175     1.0  0.46666  0.94442  0.42024  1.0000
  C   C1176     1.0  0.46839  0.93319  0.42119  1.0000
  C   C1177     1.0  0.46064  0.92496  0.41290  1.0000
  C   C1178     1.0  0.45114  0.92796  0.40376  1.0000
  C   C1179     1.0  0.45012  0.93953  0.40021  1.0000
  C   C1180     1.0  0.45797  0.94778  0.40807  1.0000
  H   H2063     1.0  0.47535  0.93067  0.42954  1.0000
  H   H2064     1.0  0.46167  0.91611  0.41498  1.0000
  H   H2065     1.0  0.44311  0.94206  0.39204  1.0000
  H   H2066     1.0  0.45689  0.95660  0.40617  1.0000
  H   H2067     1.0  0.45653  0.76875  0.17916  1.0000
  H   H2068     1.0  0.28312  0.79609  0.06726  1.0000
  C   C1181     1.0  0.32828  0.84560  0.09349  1.0000
  H   H2069     1.0  0.26197  0.78131  0.27000  1.0000
  H   H2070     1.0  0.28671  0.77374  0.35019  1.0000
  H   H2071     1.0  0.39522  0.91344  0.34324  1.0000
  H   H2072     1.0  0.39798  0.80735  0.03847  1.0000
  H   H2073     1.0  0.31463  0.76264  0.06768  1.0000
  C   C1182     1.0  0.40804  0.94733  0.31757  1.0000
  C   C1183     1.0  0.40799  0.95767  0.29815  1.0000
  C   C1184     1.0  0.47106  0.80701  0.30084  1.0000
  H   H2074     1.0  0.44760  0.89804  0.36843  1.0000
  C   C1185     1.0  0.34097  0.89753  0.35797  1.0000
  H   H2075     1.0  0.46973  0.88414  0.04991  1.0000
  C   C1186     1.0  0.41807  0.95407  0.05200  1.0000
  H   H2076     1.0  0.27468  0.76579  0.40579  1.0000
  C   C1187     1.0  0.40503  0.93573  0.05075  1.0000
  C   C1188     1.0  0.40744  0.93910  0.02071  1.0000
  C   C1189     1.0  0.41527  0.95008  0.00650  1.0000
  C   C1190     1.0  0.42032  0.95752  0.02200  1.0000
  H   H2077     1.0  0.41607  0.76733  0.34827  1.0000
  H   H2078     1.0  0.47736  0.85679  0.00055  1.0000
  H   H2079     1.0  0.42597  0.96611  0.01062  1.0000
  C   C1191     1.0  0.49419  0.96892  0.35917  1.0000
  H   H2080     1.0  0.25318  0.76675  0.28577  1.0000
  C   C1192     1.0  0.48596  0.97351  0.15928  1.0000
  C   C1193     1.0  0.47610  0.97597  0.15140  1.0000
  H   H2081     1.0  0.49441  0.96464  0.06929  1.0000
  H   H2082     1.0  0.48813  0.96531  0.15783  1.0000
  H   H2083     1.0  0.45114  0.86574  0.07815  1.0000
  N   N66       1.0  0.38381  0.81777  0.28938  1.0000
  C   C1194     1.0  0.39258  0.82757  0.29414  1.0000
  H   H2084     1.0  0.37513  0.91321  0.37481  1.0000
  C   C1195     1.0  0.39011  0.80911  0.27966  1.0000
  C   C1196     1.0  0.37794  0.82237  0.26694  1.0000
  C   C1197     1.0  0.37205  0.83238  0.27181  1.0000
  C   C1198     1.0  0.40196  0.83562  0.26723  1.0000
  C   C1199     1.0  0.38239  0.79809  0.27483  1.0000
  C   C1200     1.0  0.36690  0.83658  0.24707  1.0000
  C   C1201     1.0  0.40994  0.84546  0.27473  1.0000
  C   C1202     1.0  0.38960  0.78945  0.26798  1.0000
  S   S289      1.0  0.29276  0.80634  0.41262  1.0000
  H   H2085     1.0  0.38806  0.83324  0.30511  1.0000
  H   H2086     1.0  0.30539  0.81429  0.00282  1.0000
  H   H2087     1.0  0.39533  0.80623  0.29457  1.0000
  H   H2088     1.0  0.39663  0.81341  0.25899  1.0000
  H   H2089     1.0  0.38422  0.82539  0.24554  1.0000
  H   H2090     1.0  0.37093  0.81518  0.26520  1.0000
  H   H2091     1.0  0.37839  0.84010  0.27354  1.0000
  H   H2092     1.0  0.36480  0.82928  0.29153  1.0000
  H   H2093     1.0  0.40763  0.83055  0.25749  1.0000
  H   H2094     1.0  0.39795  0.83981  0.25100  1.0000
  H   H2095     1.0  0.37868  0.80064  0.25645  1.0000
  Fe  Fe146     1.0  0.42570  0.96409  0.17811  1.0000
  H   H2096     1.0  0.38621  0.81035  0.34585  1.0000
  H   H2097     1.0  0.36039  0.82920  0.24438  1.0000
  H   H2098     1.0  0.36240  0.84347  0.25139  1.0000
  H   H2099     1.0  0.37391  0.84035  0.22693  1.0000
  H   H2100     1.0  0.41446  0.84175  0.29045  1.0000
  H   H2101     1.0  0.41670  0.85094  0.25521  1.0000
  H   H2102     1.0  0.38411  0.78202  0.26274  1.0000
  H   H2103     1.0  0.39723  0.79382  0.24942  1.0000
  H   H2104     1.0  0.39281  0.78591  0.28646  1.0000
  C   C1203     1.0  0.30432  0.79595  0.31634  1.0000
  H   H2105     1.0  0.45091  0.78033  0.24335  1.0000
  N   N67       1.0  0.39202  0.80181  0.08440  1.0000
  C   C1204     1.0  0.39290  0.79255  0.10894  1.0000
  C   C1205     1.0  0.39886  0.81366  0.08527  1.0000
  C   C1206     1.0  0.37928  0.80152  0.08696  1.0000
  C   C1207     1.0  0.39707  0.79956  0.05618  1.0000
  H   H2106     1.0  0.44249  0.78502  0.20294  1.0000
  C   C1208     1.0  0.38658  0.77970  0.11092  1.0000
  C   C1209     1.0  0.37678  0.81186  0.06671  1.0000
  C   C1210     1.0  0.49301  0.98160  0.16928  1.0000
  H   H2107     1.0  0.45954  0.79756  0.14444  1.0000
  C   C1211     1.0  0.46634  0.80084  0.27939  1.0000
  C   C1212     1.0  0.38905  0.77104  0.13476  1.0000
  C   C1213     1.0  0.36366  0.81003  0.06947  1.0000
  H   H2108     1.0  0.38899  0.79424  0.12947  1.0000
  H   H2109     1.0  0.40220  0.79307  0.10887  1.0000
  H   H2110     1.0  0.40813  0.81366  0.08398  1.0000
  H   H2111     1.0  0.39922  0.82058  0.06613  1.0000
  H   H2112     1.0  0.37471  0.80112  0.10912  1.0000
  H   H2113     1.0  0.37466  0.79327  0.08291  1.0000
  H   H2114     1.0  0.39099  0.79222  0.05199  1.0000
  H   H2115     1.0  0.31805  0.77449  0.03567  1.0000
  C   C1214     1.0  0.36882  0.80058  0.36898  1.0000
  C   C1215     1.0  0.47334  0.98660  0.15338  1.0000
  H   H2116     1.0  0.37696  0.77857  0.11589  1.0000
  H   H2117     1.0  0.38936  0.77722  0.09080  1.0000
  H   H2118     1.0  0.38111  0.81268  0.04417  1.0000
  H   H2119     1.0  0.37991  0.82029  0.07192  1.0000
  H   H2120     1.0  0.38502  0.81683  0.11772  1.0000
  C   C1216     1.0  0.29117  0.76709  0.34387  1.0000
  H   H2121     1.0  0.32923  0.84548  0.01503  1.0000
  H   H2122     1.0  0.48219  0.79728  0.33878  1.0000
  H   H2123     1.0  0.49770  0.95937  0.23636  1.0000
  C   C1217     1.0  0.44060  0.88580  0.43031  1.0000
  H   H2124     1.0  0.47288  0.97492  0.21684  1.0000
  H   H2125     1.0  0.39855  0.77154  0.13076  1.0000
  H   H2126     1.0  0.38593  0.77290  0.15563  1.0000
  H   H2127     1.0  0.35894  0.80949  0.09159  1.0000
  H   H2128     1.0  0.36204  0.81753  0.05492  1.0000
  H   H2129     1.0  0.36007  0.80184  0.06372  1.0000
  C   C1218     1.0  0.46784  0.91494  0.01069  1.0000
  H   H2130     1.0  0.27746  0.76903  0.08638  1.0000
  H   H2131     1.0  0.46649  0.76987  0.42649  1.0000
  H   H2132     1.0  0.29645  0.78975  0.31509  1.0000
  C   C1219     1.0  0.25857  0.76755  0.12811  1.0000
  H   H2133     1.0  0.45268  0.94998  0.98449  1.0000
  H   H2134     1.0  0.48881  0.97406  0.26785  1.0000
  C   C1220     1.0  0.45049  0.76005  0.99987  1.0000
  C   C1221     1.0  0.48591  0.96589  0.06574  1.0000
  H   H2135     1.0  0.25345  0.79039  0.40378  1.0000
  C   C1222     1.0  0.48975  0.98721  0.44683  1.0000
  H   H2136     1.0  0.41972  0.84802  0.98179  1.0000
  C   C1223     1.0  0.48130  0.95603  0.05188  1.0000
  H   H2137     1.0  0.44518  0.92950  0.98377  1.0000
  H   H2138     1.0  0.48856  0.94594  0.36342  1.0000
  H   H2139     1.0  0.31879  0.75687  0.26430  1.0000
  H   H2140     1.0  0.48167  0.80731  0.07529  1.0000
  C   C1224     1.0  0.45050  0.79091  0.00978  1.0000
  H   H2141     1.0  0.46845  0.80048  0.00518  1.0000
  H   H2142     1.0  0.47893  0.93084  0.34878  1.0000
  H   H2143     1.0  0.47504  0.97642  0.02318  1.0000
  H   H2144     1.0  0.46829  0.97309  0.06021  1.0000
  H   H2145     1.0  0.47993  0.96400  0.08731  1.0000
  H   H2146     1.0  0.45492  0.96971  0.01496  1.0000
  C   C1225     1.0  0.28289  0.75492  0.35827  1.0000
  H   H2147     1.0  0.49566  0.89392  0.01683  1.0000
  C   C1226     1.0  0.48750  0.87996  0.45618  1.0000
  H   H2148     1.0  0.46439  0.95379  0.00112  1.0000
  H   H2149     1.0  0.47202  0.94824  0.33569  1.0000
  N   N68       1.0  0.46967  0.86168  0.03831  1.0000
  H   H2150     1.0  0.45061  0.95982  0.45523  1.0000
  H   H2151     1.0  0.47248  0.95616  0.04883  1.0000
  H   H2152     1.0  0.49091  0.91838  0.35701  1.0000
  H   H2153     1.0  0.49231  0.85647  0.03050  1.0000
  H   H2154     1.0  0.29284  0.80297  0.00401  1.0000
  C   C1227     1.0  0.33504  0.77720  0.38195  1.0000
  H   H2155     1.0  0.47544  0.78761  0.44054  1.0000
  C   C1228     1.0  0.44110  0.95562  0.46013  1.0000
  H   H2156     1.0  0.28649  0.75503  0.19939  1.0000
  H   H2157     1.0  0.32234  0.84931  0.10722  1.0000
  C   C1229     1.0  0.31713  0.76575  0.29828  1.0000
  H   H2158     1.0  0.44347  0.93837  0.45939  1.0000
  H   H2159     1.0  0.44826  0.94390  0.20612  1.0000
  H   H2160     1.0  0.44081  0.94804  0.29100  1.0000
  H   H2161     1.0  0.40510  0.96461  0.30616  1.0000
  C   C1230     1.0  0.41141  0.95906  0.26842  1.0000
  C   C1231     1.0  0.49555  0.95032  0.34333  1.0000
  H   H2162     1.0  0.43312  0.91723  0.03793  1.0000
  H   H2163     1.0  0.49635  0.83786  0.02447  1.0000
  H   H2164     1.0  0.48243  0.92935  0.31369  1.0000
  C   C1232     1.0  0.47983  0.87208  0.03475  1.0000
  C   C1233     1.0  0.34423  0.85037  0.04755  1.0000
  H   H2165     1.0  0.36381  0.88303  0.47353  1.0000
  H   H2166     1.0  0.32825  0.81798  0.99384  1.0000
  H   H2167     1.0  0.39760  0.91159  0.30759  1.0000
  H   H2168     1.0  0.36290  0.86700  0.04002  1.0000
  H   H2169     1.0  0.32902  0.85798  0.05499  1.0000
  H   H2170     1.0  0.48279  0.80667  0.24625  1.0000
  Fe  Fe147     1.0  0.40449  0.92489  0.45614  1.0000
  C   C1234     1.0  0.43715  0.95472  0.32777  1.0000
  C   C1235     1.0  0.49680  0.98099  0.02223  1.0000
  H   H2171     1.0  0.46430  0.93370  0.03218  1.0000
  H   H2172     1.0  0.33907  0.89630  0.33767  1.0000
  C   C1236     1.0  0.45176  0.96130  0.23474  1.0000
  C   C1237     1.0  0.45823  0.82301  0.08261  1.0000
  H   H2173     1.0  0.46738  0.82329  0.08004  1.0000
  H   H2174     1.0  0.30521  0.75982  0.35525  1.0000
  H   H2175     1.0  0.45854  0.92848  0.34252  1.0000
  C   C1238     1.0  0.25674  0.78038  0.32443  1.0000
  H   H2176     1.0  0.37906  0.95028  0.26076  1.0000
  H   H2177     1.0  0.42731  0.88631  0.34589  1.0000
  N   N69       1.0  0.44146  0.87913  0.38296  1.0000
  C   C1239     1.0  0.29340  0.79256  0.15740  1.0000
  C   C1240     1.0  0.46083  0.86549  0.02335  1.0000
  H   H2178     1.0  0.45996  0.93423  0.00048  1.0000
  C   C1241     1.0  0.46199  0.93489  0.32130  1.0000
  C   C1242     1.0  0.48786  0.89342  0.03386  1.0000
  H   H2179     1.0  0.34780  0.87011  0.47390  1.0000
  H   H2180     1.0  0.47185  0.89576  0.42181  1.0000
  H   H2181     1.0  0.31215  0.76897  0.25791  1.0000
  H   H2182     1.0  0.48912  0.94340  0.07436  1.0000
  C   C1243     1.0  0.33402  0.85243  0.99540  1.0000
  H   H2183     1.0  0.25861  0.78107  0.34505  1.0000
  H   H2184     1.0  0.40843  0.78783  0.06586  1.0000
  H   H2185     1.0  0.39754  0.82390  0.30881  1.0000
  H   H2186     1.0  0.32480  0.76354  0.30498  1.0000
  H   H2187     1.0  0.44052  0.93161  0.12443  1.0000
  C   C1244     1.0  0.45507  0.95353  0.00190  1.0000
  H   H2188     1.0  0.43371  0.95969  0.28686  1.0000
  H   H2189     1.0  0.45716  0.80122  0.28038  1.0000
  H   H2190     1.0  0.49368  0.98056  0.22986  1.0000
  C   C1245     1.0  0.45007  0.85565  0.02453  1.0000
  H   H2191     1.0  0.39678  0.81253  0.13074  1.0000
  H   H2192     1.0  0.44240  0.89220  0.32568  1.0000
  H   H2193     1.0  0.43492  0.97382  0.24045  1.0000
  H   H2194     1.0  0.29537  0.78847  0.17745  1.0000
  H   H2195     1.0  0.29931  0.80154  0.14836  1.0000
  C   C1246     1.0  0.30046  0.80620  0.32581  1.0000
  H   H2196     1.0  0.30805  0.81269  0.32770  1.0000
  H   H2197     1.0  0.29650  0.81074  0.30989  1.0000
  C   C1247     1.0  0.45698  0.92994  0.02365  1.0000
  C   C1248     1.0  0.45631  0.91669  0.02648  1.0000
  C   C1249     1.0  0.41470  0.94998  0.25767  1.0000
  H   H2198     1.0  0.33546  0.77974  0.40204  1.0000
  C   C1250     1.0  0.45282  0.96557  0.28202  1.0000
  C   C1251     1.0  0.45559  0.86628  0.36900  1.0000
  C   C1252     1.0  0.43073  0.86922  0.38821  1.0000
  C   C1253     1.0  0.30000  0.79290  0.23848  1.0000
  H   H2199     1.0  0.43831  0.95692  0.44001  1.0000
  C   C1254     1.0  0.28109  0.77782  0.24405  1.0000
  H   H2200     1.0  0.30254  0.77261  0.10019  1.0000
  C   C1255     1.0  0.47672  0.98277  0.25042  1.0000
  H   H2201     1.0  0.44200  0.91840  0.07547  1.0000
  H   H2202     1.0  0.31028  0.79952  0.29457  1.0000
  C   C1256     1.0  0.43649  0.92947  0.99632  1.0000
  C   C1257     1.0  0.43958  0.76216  0.32956  1.0000
  H   H2203     1.0  0.44943  0.91269  0.01710  1.0000
  H   H2204     1.0  0.34662  0.87906  0.40818  1.0000
  H   H2205     1.0  0.42918  0.94735  0.33727  1.0000
  H   H2206     1.0  0.48472  0.82040  0.32559  1.0000
  H   H2207     1.0  0.49121  0.93924  0.26893  1.0000
  H   H2208     1.0  0.43241  0.86065  0.39735  1.0000
  C   C1258     1.0  0.42882  0.76374  0.98204  1.0000
  H   H2209     1.0  0.45447  0.91175  0.04905  1.0000
  H   H2210     1.0  0.38387  0.92647  0.35045  1.0000
  H   H2211     1.0  0.32511  0.76807  0.34506  1.0000
  H   H2212     1.0  0.42477  0.92646  0.08471  1.0000
  H   H2213     1.0  0.42463  0.79601  0.10065  1.0000
  H   H2214     1.0  0.44455  0.84724  0.11658  1.0000
  H   H2215     1.0  0.39706  0.76937  0.31599  1.0000
  H   H2216     1.0  0.45794  0.84700  0.07168  1.0000
  C   C1259     1.0  0.44167  0.82302  0.06193  1.0000
  H   H2217     1.0  0.47404  0.94225  0.09164  1.0000
  H   H2218     1.0  0.35682  0.85517  0.47598  1.0000
  H   H2219     1.0  0.36700  0.80604  0.31343  1.0000
  Fe  Fe148     1.0  0.42953  0.96815  0.11173  1.0000
  H   H2220     1.0  0.44555  0.75626  0.09738  1.0000
  H   H2221     1.0  0.28877  0.77640  0.14607  1.0000
  C   C1260     1.0  0.42761  0.92017  0.98959  1.0000
  H   H2222     1.0  0.48726  0.95694  0.03092  1.0000
  C   C1261     1.0  0.36134  0.91028  0.33083  1.0000
  H   H2223     1.0  0.47305  0.87383  0.34025  1.0000
  H   H2224     1.0  0.36094  0.90766  0.31070  1.0000
  H   H2225     1.0  0.42649  0.90618  0.35185  1.0000
  N   N70       1.0  0.44588  0.93278  0.03753  1.0000
  C   C1262     1.0  0.44731  0.94595  0.03133  1.0000
  H   H2226     1.0  0.45873  0.88518  0.35382  1.0000
  H   H2227     1.0  0.45124  0.94965  0.04706  1.0000
  H   H2228     1.0  0.44805  0.87663  0.34111  1.0000
  H   H2229     1.0  0.42814  0.99179  0.24184  1.0000
  H   H2230     1.0  0.25752  0.75452  0.25610  1.0000
  C   C1263     1.0  0.45327  0.77870  0.01341  1.0000
  C   C1264     1.0  0.44464  0.80215  0.33477  1.0000
  H   H2231     1.0  0.37508  0.79335  0.29383  1.0000
  H   H2232     1.0  0.39114  0.94359  0.25937  1.0000
  C   C1265     1.0  0.43314  0.93100  0.08803  1.0000
  C   C1266     1.0  0.43351  0.90510  0.33511  1.0000
  H   H2233     1.0  0.46017  0.00048  0.02733  1.0000
  H   H2234     1.0  0.45759  0.80838  0.01347  1.0000
  H   H2235     1.0  0.42275  0.75551  0.25076  1.0000
  H   H2236     1.0  0.48593  0.96445  0.37587  1.0000
  H   H2237     1.0  0.39834  0.83643  0.09117  1.0000
  H   H2238     1.0  0.43669  0.77014  0.32169  1.0000
  C   C1267     1.0  0.45126  0.79544  0.42706  1.0000
  C   C1268     1.0  0.31088  0.79007  0.33667  1.0000
  H   H2239     1.0  0.40645  0.89865  0.33654  1.0000
  H   H2240     1.0  0.30875  0.77991  0.29309  1.0000
  H   H2241     1.0  0.31935  0.79668  0.33243  1.0000
  C   C1269     1.0  0.43544  0.92692  0.02872  1.0000
  C   C1270     1.0  0.43252  0.92693  0.11968  1.0000
  H   H2242     1.0  0.43518  0.96274  0.33330  1.0000
  H   H2243     1.0  0.45532  0.88270  0.40405  1.0000
  C   C1271     1.0  0.41151  0.76464  0.33246  1.0000
  C   C1272     1.0  0.40073  0.76990  0.33457  1.0000
  C   C1273     1.0  0.47442  0.85303  0.02412  1.0000
  H   H2244     1.0  0.41768  0.76920  0.31130  1.0000
  H   H2245     1.0  0.39380  0.76512  0.35435  1.0000
  C   C1274     1.0  0.46565  0.86593  0.34508  1.0000
  H   H2246     1.0  0.28741  0.79648  0.10983  1.0000
  H   H2247     1.0  0.36434  0.89170  0.41514  1.0000
  H   H2248     1.0  0.46886  0.85803  0.35174  1.0000
  H   H2249     1.0  0.32367  0.78470  0.29064  1.0000
  C   C1275     1.0  0.43559  0.89287  0.34356  1.0000
  S   S290      1.0  0.46911  0.80942  0.44208  1.0000
  H   H2250     1.0  0.49881  0.99017  0.43290  1.0000
  C   C1276     1.0  0.28924  0.78410  0.25957  1.0000
  Fe  Fe149     1.0  0.44999  0.96954  0.14012  1.0000
  C   C1277     1.0  0.47367  0.94316  0.31965  1.0000
  H   H2251     1.0  0.44489  0.89531  0.42136  1.0000
  C   C1278     1.0  0.44626  0.78543  0.41887  1.0000
  C   C1279     1.0  0.49848  0.92554  0.35625  1.0000
  C   C1280     1.0  0.48044  0.94394  0.07077  1.0000
  H   H2252     1.0  0.40733  0.78392  0.35328  1.0000
  H   H2253     1.0  0.46265  0.86544  0.32555  1.0000
  H   H2254     1.0  0.41722  0.93254  0.26914  1.0000
  H   H2255     1.0  0.45890  0.82338  0.03871  1.0000
  C   C1281     1.0  0.29285  0.75490  0.18082  1.0000
  H   H2256     1.0  0.45888  0.86610  0.38827  1.0000
  H   H2257     1.0  0.25645  0.76331  0.11128  1.0000
  H   H2258     1.0  0.43862  0.94796  0.03397  1.0000
  H   H2259     1.0  0.44206  0.95862  0.24144  1.0000
  H   H2260     1.0  0.45162  0.93158  0.07629  1.0000
  H   H2261     1.0  0.42753  0.92965  0.03791  1.0000
  H   H2262     1.0  0.27323  0.77661  0.31070  1.0000
  H   H2263     1.0  0.44418  0.95246  0.33743  1.0000
  H   H2264     1.0  0.39895  0.92737  0.06228  1.0000
  C   C1282     1.0  0.44368  0.92813  0.06937  1.0000
  N   N71       1.0  0.45667  0.97004  0.24987  1.0000
  H   H2265     1.0  0.34710  0.83689  0.00225  1.0000
  H   H2266     1.0  0.31938  0.86060  0.99886  1.0000
  C   C1283     1.0  0.35406  0.89951  0.35569  1.0000
  C   C1284     1.0  0.40403  0.78287  0.33445  1.0000
  C   C1285     1.0  0.25937  0.77055  0.22385  1.0000
  H   H2267     1.0  0.37320  0.83750  0.99117  1.0000
  H   H2268     1.0  0.39620  0.78642  0.33540  1.0000
  N   N72       1.0  0.31297  0.77827  0.33412  1.0000
  C   C1286     1.0  0.46190  0.79639  0.43455  1.0000
  H   H2269     1.0  0.46605  0.76351  0.01711  1.0000
  C   C1287     1.0  0.43946  0.89104  0.37173  1.0000
  H   H2270     1.0  0.37191  0.79561  0.38615  1.0000
  H   H2271     1.0  0.46746  0.84490  0.02784  1.0000
  S   S291      1.0  0.41684  0.95021  0.22089  1.0000
  H   H2272     1.0  0.41079  0.78801  0.31459  1.0000
  N   N73       1.0  0.48729  0.97838  0.04936  1.0000
  C   C1288     1.0  0.25048  0.75944  0.99001  1.0000
  H   H2273     1.0  0.26119  0.76388  0.32574  1.0000
  C   C1289     1.0  0.37329  0.88903  0.00589  1.0000
  H   H2274     1.0  0.30064  0.76939  0.37500  1.0000
  C   C1290     1.0  0.30279  0.76837  0.35292  1.0000
  C   C1291     1.0  0.41178  0.93846  0.30679  1.0000
  C   C1292     1.0  0.26466  0.76237  0.24321  1.0000
  H   H2275     1.0  0.44162  0.91202  0.33212  1.0000
  H   H2276     1.0  0.42870  0.86839  0.36773  1.0000
  H   H2277     1.0  0.42375  0.79728  0.13650  1.0000
  C   C1293     1.0  0.40817  0.75701  0.19883  1.0000
  H   H2278     1.0  0.45395  0.96548  0.21143  1.0000
  C   C1294     1.0  0.44066  0.95669  0.29539  1.0000
  S   S292      1.0  0.42545  0.96368  0.07026  1.0000
  C   C1295     1.0  0.47873  0.82768  0.36022  1.0000
  H   H2279     1.0  0.41733  0.87831  0.40314  1.0000
  C   C1296     1.0  0.36669  0.87853  0.99770  1.0000
  C   C1297     1.0  0.45947  0.79961  0.01796  1.0000
  C   C1298     1.0  0.45031  0.78147  0.19953  1.0000
  H   H2280     1.0  0.43377  0.94058  0.08316  1.0000
  H   H2281     1.0  0.33168  0.78331  0.32895  1.0000
  H   H2282     1.0  0.45917  0.96112  0.29015  1.0000
  H   H2283     1.0  0.43277  0.89311  0.38747  1.0000
  C   C1299     1.0  0.44568  0.87887  0.40970  1.0000
  H   H2284     1.0  0.44426  0.86963  0.42199  1.0000
  H   H2285     1.0  0.35653  0.89140  0.35207  1.0000
  H   H2286     1.0  0.37848  0.88616  0.02083  1.0000
  C   C1300     1.0  0.45169  0.77613  0.41849  1.0000
  H   H2287     1.0  0.43107  0.88466  0.43361  1.0000
  C   C1301     1.0  0.47350  0.80692  0.24881  1.0000
  H   H2288     1.0  0.45027  0.78903  0.36147  1.0000
  H   H2289     1.0  0.46954  0.78926  0.36662  1.0000
  H   H2290     1.0  0.46410  0.77710  0.33080  1.0000
  H   H2291     1.0  0.45218  0.93272  0.22989  1.0000
  H   H2292     1.0  0.42903  0.78770  0.35364  1.0000
  H   H2293     1.0  0.41343  0.76633  0.09016  1.0000
  H   H2294     1.0  0.44584  0.86521  0.98731  1.0000
  H   H2295     1.0  0.42485  0.92898  0.13243  1.0000
  H   H2296     1.0  0.45244  0.77489  0.10792  1.0000
  C   C1302     1.0  0.46722  0.78698  0.43478  1.0000
  H   H2297     1.0  0.40715  0.86170  0.38764  1.0000
  C   C1303     1.0  0.36572  0.92635  0.36654  1.0000
  H   H2298     1.0  0.33785  0.90511  0.36318  1.0000
  H   H2299     1.0  0.45202  0.78786  0.32638  1.0000
  C   C1304     1.0  0.32373  0.77699  0.34428  1.0000
  H   H2300     1.0  0.32348  0.78812  0.37414  1.0000
  C   C1305     1.0  0.41948  0.86974  0.40892  1.0000
  H   H2301     1.0  0.43673  0.97898  0.27138  1.0000
  H   H2302     1.0  0.36616  0.80811  0.37580  1.0000
  H   H2303     1.0  0.33607  0.88949  0.37516  1.0000
  C   C1306     1.0  0.45327  0.79438  0.33899  1.0000
  C   C1307     1.0  0.47282  0.79264  0.34300  1.0000
  C   C1308     1.0  0.47297  0.78196  0.33020  1.0000
  C   C1309     1.0  0.43285  0.79496  0.33388  1.0000
  H   H2304     1.0  0.46196  0.80627  0.37155  1.0000
  H   H2305     1.0  0.44305  0.80634  0.35269  1.0000
  H   H2306     1.0  0.42681  0.80077  0.33220  1.0000
  H   H2307     1.0  0.43383  0.79128  0.31502  1.0000
  H   H2308     1.0  0.28174  0.76673  0.11833  1.0000
  H   H2309     1.0  0.42053  0.86804  0.43097  1.0000
  H   H2310     1.0  0.41061  0.85135  0.41472  1.0000
  H   H2311     1.0  0.45913  0.77156  0.22633  1.0000
  C   C1310     1.0  0.26167  0.78827  0.40484  1.0000
  C   C1311     1.0  0.32382  0.77900  0.37408  1.0000
  H   H2312     1.0  0.35661  0.91728  0.33066  1.0000
  H   H2313     1.0  0.46451  0.99118  0.00514  1.0000
  S   S293      1.0  0.44636  0.76495  0.40236  1.0000
  H   H2314     1.0  0.47049  0.78637  0.09814  1.0000
  C   C1312     1.0  0.44152  0.86075  0.01010  1.0000
  H   H2315     1.0  0.47841  0.78496  0.30788  1.0000
  C   C1313     1.0  0.40897  0.86021  0.40895  1.0000
  H   H2316     1.0  0.32289  0.83815  0.08807  1.0000
  N   N74       1.0  0.46595  0.80100  0.33221  1.0000
  C   C1314     1.0  0.44003  0.98072  0.24797  1.0000
  H   H2317     1.0  0.37767  0.89969  0.31691  1.0000
  C   C1315     1.0  0.46211  0.77687  0.42703  1.0000
  H   H2318     1.0  0.44822  0.80918  0.31469  1.0000
  H   H2319     1.0  0.46211  0.81696  0.34089  1.0000
  C   C1316     1.0  0.41036  0.94303  0.06618  1.0000
  C   C1317     1.0  0.46665  0.81026  0.34872  1.0000
  H   H2320     1.0  0.41716  0.95301  0.98356  1.0000
  C   C1318     1.0  0.47572  0.97926  0.04289  1.0000
  C   C1319     1.0  0.45346  0.82317  0.05904  1.0000
  N   N75       1.0  0.35093  0.85857  0.01884  1.0000
  H   H2321     1.0  0.45294  0.97311  0.29188  1.0000
  C   C1320     1.0  0.27473  0.75828  0.28040  1.0000
  C   C1321     1.0  0.36885  0.93243  0.38910  1.0000
  C   C1322     1.0  0.29517  0.78503  0.13637  1.0000
  C   C1323     1.0  0.48887  0.84049  0.01747  1.0000
  H   H2322     1.0  0.39457  0.88996  0.32697  1.0000
  H   H2323     1.0  0.37998  0.91926  0.28520  1.0000
  H   H2324     1.0  0.44334  0.76684  0.23775  1.0000
  H   H2325     1.0  0.43153  0.91729  0.12617  1.0000
  C   C1324     1.0  0.37858  0.80492  0.34137  1.0000
  H   H2326     1.0  0.40838  0.94015  0.08915  1.0000
  C   C1325     1.0  0.30048  0.79960  0.04016  1.0000
  H   H2327     1.0  0.26546  0.77720  0.46034  1.0000
  H   H2328     1.0  0.38095  0.79708  0.33582  1.0000
  H   H2329     1.0  0.33991  0.86258  0.07327  1.0000
  H   H2330     1.0  0.33529  0.76785  0.38492  1.0000
  C   C1326     1.0  0.39276  0.90739  0.33019  1.0000
  C   C1327     1.0  0.45327  0.98135  0.24001  1.0000
  C   C1328     1.0  0.49415  0.90097  0.45374  1.0000
  H   H2331     1.0  0.46954  0.81599  0.29571  1.0000
  C   C1329     1.0  0.37457  0.81201  0.31698  1.0000
  H   H2332     1.0  0.37722  0.93933  0.38007  1.0000
  C   C1330     1.0  0.37938  0.90445  0.33328  1.0000
  C   C1331     1.0  0.37516  0.92007  0.35583  1.0000
  H   H2333     1.0  0.37529  0.89794  0.35430  1.0000
  H   H2334     1.0  0.47498  0.83402  0.34763  1.0000
  H   H2335     1.0  0.36461  0.93307  0.34913  1.0000
  H   H2336     1.0  0.41201  0.93052  0.32132  1.0000
  C   C1332     1.0  0.30928  0.75427  0.13296  1.0000
  H   H2337     1.0  0.27426  0.75466  0.35353  1.0000
  S   S294      1.0  0.44228  0.97741  0.17412  1.0000
  H   H2338     1.0  0.37941  0.89538  0.98647  1.0000
  H   H2339     1.0  0.36658  0.93328  0.29971  1.0000
  H   H2340     1.0  0.39267  0.89200  0.36260  1.0000
  N   N76       1.0  0.37392  0.91478  0.33111  1.0000
  H   H2341     1.0  0.35195  0.87443  0.03377  1.0000
  C   C1333     1.0  0.38031  0.92358  0.30297  1.0000
  H   H2342     1.0  0.35045  0.84787  0.06003  1.0000
  C   C1334     1.0  0.42798  0.76913  0.05338  1.0000
  C   C1335     1.0  0.39682  0.89629  0.33965  1.0000
  H   H2343     1.0  0.31572  0.75385  0.11479  1.0000
  H   H2344     1.0  0.33812  0.86818  0.01026  1.0000
  H   H2345     1.0  0.27888  0.76151  0.29610  1.0000
  H   H2346     1.0  0.44524  0.85093  0.04682  1.0000
  C   C1336     1.0  0.28938  0.79083  0.06125  1.0000
  H   H2347     1.0  0.32759  0.78054  0.46077  1.0000
  C   C1337     1.0  0.28311  0.78332  0.40784  1.0000
  H   H2348     1.0  0.37816  0.93663  0.25056  1.0000
  C   C1338     1.0  0.46732  0.79359  0.10539  1.0000
  C   C1339     1.0  0.46985  0.97267  0.24050  1.0000
  C   C1340     1.0  0.37619  0.93499  0.29601  1.0000
  C   C1341     1.0  0.38147  0.94175  0.26478  1.0000
  H   H2349     1.0  0.45900  0.79675  0.04098  1.0000
  H   H2350     1.0  0.37916  0.94084  0.30917  1.0000
  H   H2351     1.0  0.27115  0.78151  0.13384  1.0000
  C   C1342     1.0  0.35788  0.86949  0.02422  1.0000
  H   H2352     1.0  0.47231  0.98293  0.27219  1.0000
  H   H2353     1.0  0.38973  0.92671  0.30185  1.0000
  H   H2354     1.0  0.33930  0.84193  0.04541  1.0000
  H   H2355     1.0  0.35712  0.91992  0.37651  1.0000
  H   H2356     1.0  0.34282  0.78282  0.36501  1.0000
  C   C1343     1.0  0.43944  0.78418  0.14845  1.0000
  C   C1344     1.0  0.30130  0.77798  0.08046  1.0000
  S   S295      1.0  0.42024  0.97633  0.14443  1.0000
  C   C1345     1.0  0.33534  0.85509  0.06645  1.0000
  H   H2357     1.0  0.48664  0.87338  0.01465  1.0000
  N   N77       1.0  0.44419  0.76863  0.01046  1.0000
  H   H2358     1.0  0.30983  0.76003  0.03702  1.0000
  H   H2359     1.0  0.49151  0.99563  0.05763  1.0000
  H   H2360     1.0  0.42312  0.79498  0.01947  1.0000
  C   C1346     1.0  0.27367  0.77450  0.40569  1.0000
  C   C1347     1.0  0.47724  0.88433  0.03264  1.0000
  H   H2361     1.0  0.43943  0.79107  0.16036  1.0000
  C   C1348     1.0  0.35564  0.83951  0.00683  1.0000
  C   C1349     1.0  0.31903  0.76588  0.26688  1.0000
  H   H2362     1.0  0.31632  0.77287  0.39090  1.0000
  C   C1350     1.0  0.43994  0.76029  0.13826  1.0000
  C   C1351     1.0  0.44856  0.94055  0.22852  1.0000
  H   H2363     1.0  0.36965  0.92595  0.40763  1.0000
  C   C1352     1.0  0.47810  0.80388  0.09872  1.0000
  H   H2364     1.0  0.33664  0.85078  0.46849  1.0000
  H   H2365     1.0  0.48740  0.77751  0.34670  1.0000
  H   H2366     1.0  0.29132  0.78130  0.40938  1.0000
  H   H2367     1.0  0.29107  0.75934  0.24929  1.0000
  H   H2368     1.0  0.47299  0.81622  0.24300  1.0000
  H   H2369     1.0  0.43346  0.77574  0.06104  1.0000
  H   H2370     1.0  0.43228  0.76343  0.13389  1.0000
  H   H2371     1.0  0.46137  0.79633  0.09265  1.0000
  H   H2372     1.0  0.41551  0.80310  0.05863  1.0000
  S   S296      1.0  0.44661  0.98178  0.10424  1.0000
  H   H2373     1.0  0.40589  0.85008  0.47803  1.0000
  C   C1353     1.0  0.34295  0.86232  0.00097  1.0000
  H   H2374     1.0  0.39752  0.83318  0.12874  1.0000
  C   C1354     1.0  0.43774  0.78974  0.11905  1.0000
  H   H2375     1.0  0.28421  0.79322  0.16246  1.0000
  H   H2376     1.0  0.36190  0.93669  0.39667  1.0000
  H   H2377     1.0  0.44175  0.79048  0.02272  1.0000
  H   H2378     1.0  0.26965  0.80553  0.40787  1.0000
  S   S297      1.0  0.43532  0.82313  0.03296  1.0000
  C   C1355     1.0  0.48258  0.93605  0.32617  1.0000
  C   C1356     1.0  0.47913  0.81713  0.34774  1.0000
  H   H2379     1.0  0.29726  0.77383  0.04157  1.0000
  H   H2380     1.0  0.43625  0.96002  0.47434  1.0000
  H   H2381     1.0  0.30245  0.79797  0.09658  1.0000
  C   C1357     1.0  0.41446  0.79696  0.02152  1.0000
  H   H2382     1.0  0.30969  0.78491  0.07115  1.0000
  H   H2383     1.0  0.42909  0.93862  0.47687  1.0000
  H   H2384     1.0  0.46693  0.90547  0.01178  1.0000
  H   H2385     1.0  0.48197  0.84419  0.05686  1.0000
  C   C1358     1.0  0.43763  0.99237  0.23471  1.0000
  H   H2386     1.0  0.44732  0.85990  0.13062  1.0000
  H   H2387     1.0  0.30407  0.78355  0.13410  1.0000
  H   H2388     1.0  0.44401  0.79848  0.10974  1.0000
  H   H2389     1.0  0.46303  0.93003  0.30459  1.0000
  H   H2390     1.0  0.46072  0.90850  0.47263  1.0000
  C   C1359     1.0  0.40057  0.83065  0.10872  1.0000
  C   C1360     1.0  0.26402  0.77290  0.31123  1.0000
  C   C1361     1.0  0.29730  0.80793  0.01700  1.0000
  H   H2391     1.0  0.44453  0.75974  0.31115  1.0000
  H   H2392     1.0  0.28458  0.78919  0.27211  1.0000
  C   C1362     1.0  0.45089  0.77074  0.13092  1.0000
  H   H2393     1.0  0.45089  0.79462  0.98708  1.0000
  H   H2394     1.0  0.47743  0.99136  0.23562  1.0000
  H   H2395     1.0  0.49404  0.97545  0.00821  1.0000
  C   C1363     1.0  0.28175  0.79465  0.40874  1.0000
  H   H2396     1.0  0.26644  0.77737  0.20720  1.0000
  H   H2397     1.0  0.43895  0.78421  0.10398  1.0000
  H   H2398     1.0  0.43952  0.93784  0.24251  1.0000
  H   H2399     1.0  0.44110  0.76663  0.18838  1.0000
  H   H2400     1.0  0.48075  0.80849  0.29536  1.0000
  H   H2401     1.0  0.41587  0.84165  0.46662  1.0000
  C   C1364     1.0  0.42545  0.79161  0.12186  1.0000
  C   C1365     1.0  0.29399  0.79125  0.10680  1.0000
  C   C1366     1.0  0.39458  0.81777  0.11235  1.0000
  C   C1367     1.0  0.49498  0.88929  0.46211  1.0000
  H   H2402     1.0  0.43145  0.77704  0.16043  1.0000
  S   S298      1.0  0.40925  0.90803  0.45071  1.0000
  C   C1368     1.0  0.28019  0.77372  0.10201  1.0000
  C   C1369     1.0  0.29992  0.76973  0.06048  1.0000
  H   H2403     1.0  0.42344  0.77356  0.03888  1.0000
  C   C1370     1.0  0.46125  0.78962  0.13779  1.0000
  H   H2404     1.0  0.41878  0.78304  0.13011  1.0000
  H   H2405     1.0  0.45548  0.94000  0.31805  1.0000
  C   C1371     1.0  0.41855  0.76105  0.07938  1.0000
  H   H2406     1.0  0.47524  0.88745  0.01191  1.0000
  H   H2407     1.0  0.27065  0.75907  0.22851  1.0000
  H   H2408     1.0  0.43475  0.93817  0.98877  1.0000
  H   H2409     1.0  0.47760  0.93699  0.06020  1.0000
  C   C1372     1.0  0.47834  0.77322  0.34678  1.0000
  H   H2410     1.0  0.29321  0.76143  0.07222  1.0000
  H   H2411     1.0  0.41020  0.83206  0.10418  1.0000
  N   N78       1.0  0.45022  0.77964  0.14827  1.0000
  H   H2412     1.0  0.36109  0.79468  0.36600  1.0000
  Fe  Fe150     1.0  0.43789  0.98916  0.13864  1.0000
  N   N79       1.0  0.29123  0.78341  0.08767  1.0000
  H   H2413     1.0  0.46816  0.78722  0.14797  1.0000
  H   H2414     1.0  0.28422  0.77533  0.00457  1.0000
  C   C1373     1.0  0.48470  0.84894  0.03396  1.0000
  H   H2415     1.0  0.46995  0.80234  0.23396  1.0000
  C   C1374     1.0  0.46237  0.99193  0.02742  1.0000
  H   H2416     1.0  0.40039  0.83535  0.47475  1.0000
  C   C1375     1.0  0.44949  0.77348  0.17867  1.0000
  H   H2417     1.0  0.45857  0.76708  0.13276  1.0000
  C   C1376     1.0  0.26283  0.77695  0.40417  1.0000
  H   H2418     1.0  0.30527  0.79792  0.24997  1.0000
  H   H2419     1.0  0.35498  0.83466  0.02898  1.0000
  C   C1377     1.0  0.49035  0.99225  0.17124  1.0000
  H   H2420     1.0  0.47297  0.76961  0.36918  1.0000
  H   H2421     1.0  0.26669  0.75839  0.02978  1.0000
  H   H2422     1.0  0.46521  0.86986  0.00049  1.0000
  H   H2423     1.0  0.40868  0.79033  0.01451  1.0000
  C   C1378     1.0  0.45780  0.86247  0.08755  1.0000
  H   H2424     1.0  0.44540  0.96660  0.99232  1.0000
  H   H2425     1.0  0.48850  0.87112  0.46210  1.0000
  H   H2426     1.0  0.46593  0.98874  0.14650  1.0000
  C   C1379     1.0  0.48039  0.99468  0.16356  1.0000
  H   H2427     1.0  0.45815  0.78901  0.19153  1.0000
  H   H2428     1.0  0.27791  0.78485  0.23197  1.0000
  H   H2429     1.0  0.25373  0.77497  0.23616  1.0000
  H   H2430     1.0  0.44005  0.99426  0.21114  1.0000
  H   H2431     1.0  0.43762  0.75536  0.16092  1.0000
  H   H2432     1.0  0.38436  0.76192  0.13600  1.0000
  H   H2433     1.0  0.31696  0.77327  0.44526  1.0000
  C   C1380     1.0  0.44296  0.88215  0.45952  1.0000
  H   H2434     1.0  0.29154  0.81301  0.02649  1.0000
  H   H2435     1.0  0.29239  0.77776  0.27362  1.0000
  H   H2436     1.0  0.25898  0.78943  0.31038  1.0000
  H   H2437     1.0  0.43823  0.86712  0.02088  1.0000
  H   H2438     1.0  0.40111  0.86047  0.42475  1.0000
  C   C1381     1.0  0.35952  0.85298  0.00321  1.0000
  H   H2439     1.0  0.30562  0.78824  0.22697  1.0000
  H   H2440     1.0  0.45274  0.84920  0.01319  1.0000
  H   H2441     1.0  0.48983  0.89113  0.05489  1.0000
  H   H2442     1.0  0.47282  0.96468  0.24819  1.0000
  C   C1382     1.0  0.43802  0.77310  0.98855  1.0000
  H   H2443     1.0  0.45773  0.85107  0.12815  1.0000
  H   H2444     1.0  0.28646  0.77482  0.22734  1.0000
  S   S299      1.0  0.40006  0.92950  0.00249  1.0000
  H   H2445     1.0  0.25989  0.76095  0.14557  1.0000
  H   H2446     1.0  0.45669  0.98480  0.21641  1.0000
  H   H2447     1.0  0.29743  0.79927  0.22284  1.0000
  H   H2448     1.0  0.30628  0.79483  0.02949  1.0000
  H   H2449     1.0  0.46526  0.95209  0.22360  1.0000
  H   H2450     1.0  0.43347  0.77970  0.99460  1.0000
  H   H2451     1.0  0.30926  0.75856  0.31017  1.0000
  H   H2452     1.0  0.45456  0.98479  0.04029  1.0000
  H   H2453     1.0  0.48723  0.96400  0.32568  1.0000
  H   H2454     1.0  0.43880  0.87266  0.46955  1.0000
  H   H2455     1.0  0.47308  0.91938  0.47485  1.0000
  H   H2456     1.0  0.43825  0.78503  0.41213  1.0000
  C   C1383     1.0  0.45911  0.75597  0.01683  1.0000
  H   H2457     1.0  0.46163  0.78039  0.99673  1.0000
  N   N80       1.0  0.49495  0.94308  0.32170  1.0000
  C   C1384     1.0  0.32161  0.77197  0.46232  1.0000
  H   H2458     1.0  0.41875  0.91872  0.00359  1.0000
  H   H2459     1.0  0.48500  0.80096  0.10794  1.0000
  C   C1385     1.0  0.46418  0.85553  0.06937  1.0000
  H   H2460     1.0  0.43015  0.91172  0.99252  1.0000
  S   S300      1.0  0.49437  0.93850  0.98606  1.0000
  H   H2461     1.0  0.48427  0.87031  0.05216  1.0000
  H   H2462     1.0  0.32775  0.77165  0.25472  1.0000
  C   C1386     1.0  0.48910  0.98168  0.25054  1.0000
  H   H2463     1.0  0.47672  0.94924  0.29804  1.0000
  H   H2464     1.0  0.26745  0.78453  0.10020  1.0000
  H   H2465     1.0  0.47336  0.82467  0.38262  1.0000
  H   H2466     1.0  0.29254  0.76824  0.32073  1.0000
  H   H2467     1.0  0.45738  0.98832  0.24912  1.0000
  C   C1387     1.0  0.45401  0.96618  0.99640  1.0000
  C   C1388     1.0  0.49493  0.96329  0.33416  1.0000
  H   H2468     1.0  0.32908  0.86167  0.47577  1.0000
  H   H2469     1.0  0.46423  0.86998  0.08990  1.0000
  C   C1389     1.0  0.49007  0.98327  0.47790  1.0000
  C   C1390     1.0  0.45097  0.77459  0.22847  1.0000
  H   H2470     1.0  0.47090  0.85313  0.08012  1.0000
  H   H2471     1.0  0.28158  0.75282  0.38171  1.0000
  H   H2472     1.0  0.48771  0.83227  0.36001  1.0000
  H   H2473     1.0  0.27478  0.79827  0.46810  1.0000
  H   H2474     1.0  0.48501  0.91212  0.43238  1.0000
  H   H2475     1.0  0.45251  0.88383  0.45754  1.0000
  H   H2476     1.0  0.42497  0.75411  0.36670  1.0000
  H   H2477     1.0  0.44550  0.76420  0.34320  1.0000
  H   H2478     1.0  0.48609  0.90225  0.03055  1.0000
  S   S301      1.0  0.33257  0.79632  0.98209  1.0000
  H   H2479     1.0  0.28686  0.75722  0.02612  1.0000
  Fe  Fe151     1.0  0.44720  0.82836  0.98834  1.0000
  C   C1391     1.0  0.49038  0.98627  0.06823  1.0000
  S   S302      1.0  0.25015  0.76648  0.40256  1.0000
  H   H2480     1.0  0.48486  0.97979  0.44029  1.0000
  H   H2481     1.0  0.36403  0.83746  0.46768  1.0000
  C   C1392     1.0  0.47280  0.99140  0.04016  1.0000
  H   H2482     1.0  0.48553  0.99462  0.44372  1.0000
  H   H2483     1.0  0.32685  0.76555  0.45880  1.0000
  N   N81       1.0  0.27188  0.75775  0.98561  1.0000
  H   H2484     1.0  0.48023  0.99876  0.02685  1.0000
  H   H2485     1.0  0.25705  0.75870  0.19646  1.0000
  H   H2486     1.0  0.44796  0.92144  0.47926  1.0000
  H   H2487     1.0  0.31632  0.84559  0.46453  1.0000
  H   H2488     1.0  0.30513  0.77590  0.98463  1.0000
  H   H2489     1.0  0.44259  0.99973  0.24127  1.0000
  H   H2490     1.0  0.37330  0.87452  0.98721  1.0000
  H   H2491     1.0  0.49368  0.99597  0.99408  1.0000
  H   H2492     1.0  0.42252  0.75628  0.09491  1.0000
  C   C1393     1.0  0.43854  0.94246  0.47406  1.0000
  S   S303      1.0  0.49920  0.00242  0.18379  1.0000
  H   H2493     1.0  0.44035  0.75874  0.05434  1.0000
  H   H2494     1.0  0.49181  0.84477  0.99423  1.0000
  H   H2495     1.0  0.47493  0.91797  0.02061  1.0000
  C   C1394     1.0  0.36444  0.83539  0.98693  1.0000
  H   H2496     1.0  0.49538  0.95780  0.28735  1.0000
  H   H2497     1.0  0.47027  0.91985  0.98786  1.0000
  H   H2498     1.0  0.49423  0.98977  0.25411  1.0000
  H   H2499     1.0  0.25346  0.78888  0.47779  1.0000
  H   H2500     1.0  0.49573  0.92962  0.37366  1.0000
  H   H2501     1.0  0.43738  0.89276  0.98921  1.0000
  C   C1395     1.0  0.28754  0.77675  0.98126  1.0000
  H   H2502     1.0  0.36144  0.82571  0.99044  1.0000
  H   H2503     1.0  0.36212  0.88203  0.98192  1.0000
  C   C1396     1.0  0.26373  0.76562  0.98121  1.0000
  C   C1397     1.0  0.25729  0.75436  0.47959  1.0000
  H   H2504     1.0  0.42984  0.75408  0.03667  1.0000
  H   H2505     1.0  0.40626  0.75473  0.29420  1.0000
  H   H2506     1.0  0.41245  0.75451  0.07287  1.0000
  C   C1398     1.0  0.32481  0.85724  0.98310  1.0000
  H   H2507     1.0  0.27594  0.75915  0.48004  1.0000
  H   H2508     1.0  0.49440  0.97597  0.48000  1.0000
  S   S304      1.0  0.43684  0.95642  0.64145  1.0000
  H   H2509     1.0  0.30675  0.77278  0.81236  1.0000
  H   H2510     1.0  0.25286  0.78281  0.51445  1.0000
  C   C1399     1.0  0.40186  0.89773  0.81807  1.0000
  C   C1400     1.0  0.44055  0.80225  0.90008  1.0000
  H   H2511     1.0  0.41043  0.93759  0.58998  1.0000
  C   C1401     1.0  0.36322  0.88493  0.83907  1.0000
  C   C1402     1.0  0.47209  0.85506  0.55476  1.0000
  S   S305      1.0  0.25215  0.76281  0.90118  1.0000
  H   H2512     1.0  0.26599  0.80293  0.49535  1.0000
  C   C1403     1.0  0.43575  0.85850  0.54204  1.0000
  C   C1404     1.0  0.40381  0.75458  0.71902  1.0000
  H   H2513     1.0  0.28303  0.82853  0.83951  1.0000
  S   S306      1.0  0.47062  0.97127  0.61966  1.0000
  H   H2514     1.0  0.35346  0.89189  0.50795  1.0000
  Fe  Fe152     1.0  0.40372  0.93166  0.89245  1.0000
  S   S307      1.0  0.40873  0.91516  0.88703  1.0000
  S   S308      1.0  0.40327  0.94555  0.85361  1.0000
  Fe  Fe153     1.0  0.39417  0.90587  0.92665  1.0000
  S   S309      1.0  0.38394  0.88727  0.92646  1.0000
  Fe  Fe154     1.0  0.42024  0.91889  0.91599  1.0000
  S   S310      1.0  0.43862  0.91628  0.90822  1.0000
  S   S311      1.0  0.38867  0.92244  0.93168  1.0000
  S   S312      1.0  0.41625  0.93613  0.91883  1.0000
  Fe  Fe155     1.0  0.46450  0.85011  0.94437  1.0000
  S   S313      1.0  0.44491  0.84354  0.95757  1.0000
  S   S314      1.0  0.46859  0.87011  0.93969  1.0000
  Fe  Fe156     1.0  0.46621  0.82474  0.94400  1.0000
  S   S315      1.0  0.44684  0.81710  0.95749  1.0000
  H   H2515     1.0  0.39183  0.92577  0.80101  1.0000
  Fe  Fe157     1.0  0.44661  0.83313  0.92513  1.0000
  S   S316      1.0  0.43368  0.83243  0.89782  1.0000
  H   H2516     1.0  0.48940  0.92506  0.84907  1.0000
  C   C1405     1.0  0.45140  0.92471  0.49614  1.0000
  S   S317      1.0  0.46607  0.84040  0.90972  1.0000
  C   C1406     1.0  0.40731  0.83602  0.51190  1.0000
  Fe  Fe158     1.0  0.43852  0.81578  0.68659  1.0000
  S   S318      1.0  0.42039  0.80394  0.70130  1.0000
  S   S319      1.0  0.45038  0.81804  0.64298  1.0000
  Fe  Fe159     1.0  0.43727  0.82178  0.74448  1.0000
  S   S320      1.0  0.41886  0.81075  0.76317  1.0000
  S   S321      1.0  0.44904  0.83040  0.76865  1.0000
  Fe  Fe160     1.0  0.42497  0.79751  0.74218  1.0000
  S   S322      1.0  0.42140  0.77863  0.76615  1.0000
  Fe  Fe161     1.0  0.41591  0.81831  0.72061  1.0000
  S   S323      1.0  0.39961  0.82434  0.71790  1.0000
  S   S324      1.0  0.44360  0.80797  0.72593  1.0000
  S   S325      1.0  0.43384  0.83067  0.70341  1.0000
  Fe  Fe162     1.0  0.31289  0.81185  0.90797  1.0000
  S   S326      1.0  0.32509  0.80008  0.90778  1.0000
  Fe  Fe163     1.0  0.33276  0.83328  0.91057  1.0000
  S   S327      1.0  0.34570  0.82224  0.91015  1.0000
  S   S328      1.0  0.33789  0.85262  0.91380  1.0000
  Fe  Fe164     1.0  0.33828  0.81568  0.87644  1.0000
  S   S329      1.0  0.34968  0.81447  0.83519  1.0000
  Fe  Fe165     1.0  0.33093  0.80799  0.94155  1.0000
  H   H2517     1.0  0.37416  0.90074  0.87694  1.0000
  S   S330      1.0  0.32596  0.82739  0.87499  1.0000
  S   S331      1.0  0.31811  0.81911  0.94350  1.0000
  Fe  Fe166     1.0  0.35225  0.79741  0.65777  1.0000
  S   S332      1.0  0.34370  0.81224  0.66128  1.0000
  S   S333      1.0  0.37165  0.79972  0.64286  1.0000
  Fe  Fe167     1.0  0.32918  0.77912  0.67204  1.0000
  S   S334      1.0  0.31887  0.79246  0.67666  1.0000
  S   S335      1.0  0.32067  0.76010  0.67663  1.0000
  Fe  Fe168     1.0  0.33205  0.80394  0.63685  1.0000
  S   S336      1.0  0.32631  0.81409  0.60059  1.0000
  Fe  Fe169     1.0  0.33149  0.79925  0.70071  1.0000
  S   S337      1.0  0.32310  0.80237  0.74279  1.0000
  S   S338      1.0  0.34149  0.79006  0.63083  1.0000
  S   S339      1.0  0.34091  0.78498  0.69889  1.0000
  H   H2518     1.0  0.28832  0.82188  0.79672  1.0000
  H   H2519     1.0  0.39537  0.81578  0.78157  1.0000
  H   H2520     1.0  0.36511  0.83962  0.96434  1.0000
  C   C1407     1.0  0.49632  0.99899  0.54792  1.0000
  H   H2521     1.0  0.42669  0.96112  0.83095  1.0000
  H   H2522     1.0  0.37284  0.80416  0.76589  1.0000
  C   C1408     1.0  0.29696  0.76728  0.63321  1.0000
  C   C1409     1.0  0.30653  0.76853  0.64517  1.0000
  H   H2523     1.0  0.45124  0.90766  0.52424  1.0000
  H   H2524     1.0  0.43436  0.76714  0.62292  1.0000
  H   H2525     1.0  0.29484  0.77503  0.62226  1.0000
  H   H2526     1.0  0.31182  0.77721  0.64298  1.0000
  C   C1410     1.0  0.34239  0.81185  0.80886  1.0000
  C   C1411     1.0  0.33023  0.80771  0.81602  1.0000
  C   C1412     1.0  0.32456  0.80492  0.79540  1.0000
  C   C1413     1.0  0.33091  0.80613  0.76749  1.0000
  C   C1414     1.0  0.34310  0.81038  0.76012  1.0000
  C   C1415     1.0  0.34880  0.81339  0.78071  1.0000
  H   H2527     1.0  0.32521  0.80652  0.83759  1.0000
  H   H2528     1.0  0.31522  0.80163  0.80128  1.0000
  H   H2529     1.0  0.34810  0.81148  0.73859  1.0000
  H   H2530     1.0  0.35821  0.81673  0.77497  1.0000
  C   C1416     1.0  0.33363  0.80521  0.51407  1.0000
  C   C1417     1.0  0.33971  0.80167  0.53410  1.0000
  C   C1418     1.0  0.33751  0.80432  0.56061  1.0000
  C   C1419     1.0  0.32921  0.81059  0.56737  1.0000
  C   C1420     1.0  0.32331  0.81440  0.54704  1.0000
  C   C1421     1.0  0.32548  0.81169  0.52048  1.0000
  H   H2531     1.0  0.34610  0.79674  0.52921  1.0000
  H   H2532     1.0  0.34232  0.80157  0.57564  1.0000
  H   H2533     1.0  0.31689  0.81927  0.55204  1.0000
  H   H2534     1.0  0.45787  0.76408  0.68530  1.0000
  C   C1422     1.0  0.41382  0.76907  0.74994  1.0000
  C   C1423     1.0  0.49912  0.98956  0.63678  1.0000
  C   C1424     1.0  0.28880  0.80394  0.81744  1.0000
  C   C1425     1.0  0.43887  0.92737  0.83099  1.0000
  C   C1426     1.0  0.40124  0.76546  0.71869  1.0000
  C   C1427     1.0  0.40640  0.77278  0.73378  1.0000
  H   H2535     1.0  0.46933  0.89452  0.93437  1.0000
  C   C1428     1.0  0.27352  0.79310  0.79828  1.0000
  H   H2536     1.0  0.39565  0.76842  0.70593  1.0000
  H   H2537     1.0  0.40479  0.78135  0.73262  1.0000
  C   C1429     1.0  0.39205  0.81836  0.69548  1.0000
  C   C1430     1.0  0.38013  0.81789  0.69902  1.0000
  C   C1431     1.0  0.37378  0.81219  0.68284  1.0000
  C   C1432     1.0  0.37940  0.80713  0.66283  1.0000
  C   C1433     1.0  0.39136  0.80792  0.65871  1.0000
  C   C1434     1.0  0.39768  0.81361  0.67484  1.0000
  H   H2538     1.0  0.37574  0.82161  0.71489  1.0000
  H   H2539     1.0  0.36453  0.81160  0.68617  1.0000
  H   H2540     1.0  0.39578  0.80415  0.64305  1.0000
  H   H2541     1.0  0.40695  0.81445  0.67103  1.0000
  H   H2542     1.0  0.44311  0.80662  0.84439  1.0000
  C   C1435     1.0  0.37638  0.88878  0.83827  1.0000
  C   C1436     1.0  0.46507  0.79236  0.92933  1.0000
  H   H2543     1.0  0.45575  0.77648  0.92081  1.0000
  H   H2544     1.0  0.45772  0.79624  0.93165  1.0000
  H   H2545     1.0  0.39930  0.91763  0.78076  1.0000
  H   H2546     1.0  0.43357  0.97291  0.78765  1.0000
  C   C1437     1.0  0.43296  0.82003  0.61531  1.0000
  C   C1438     1.0  0.44478  0.82043  0.61278  1.0000
  H   H2547     1.0  0.35360  0.79311  0.79118  1.0000
  C   C1439     1.0  0.41478  0.90294  0.81547  1.0000
  H   H2548     1.0  0.31264  0.78526  0.52942  1.0000
  H   H2549     1.0  0.42706  0.81831  0.63614  1.0000
  C   C1440     1.0  0.38977  0.77453  0.64154  1.0000
  C   C1441     1.0  0.26571  0.78592  0.82808  1.0000
  C   C1442     1.0  0.43802  0.83131  0.86235  1.0000
  C   C1443     1.0  0.42947  0.82841  0.84781  1.0000
  C   C1444     1.0  0.43267  0.82778  0.81933  1.0000
  C   C1445     1.0  0.44449  0.83023  0.80502  1.0000
  C   C1446     1.0  0.45303  0.83297  0.81969  1.0000
  C   C1447     1.0  0.44982  0.83340  0.84829  1.0000
  H   H2550     1.0  0.42032  0.82674  0.85854  1.0000
  H   H2551     1.0  0.42601  0.82572  0.80823  1.0000
  H   H2552     1.0  0.46219  0.83487  0.80880  1.0000
  H   H2553     1.0  0.45650  0.83561  0.85920  1.0000
  C   C1448     1.0  0.37104  0.87785  0.92271  1.0000
  C   C1449     1.0  0.36078  0.88146  0.92153  1.0000
  C   C1450     1.0  0.35085  0.87368  0.91859  1.0000
  C   C1451     1.0  0.35088  0.86208  0.91709  1.0000
  C   C1452     1.0  0.36113  0.85846  0.91832  1.0000
  C   C1453     1.0  0.37109  0.86627  0.92104  1.0000
  H   H2554     1.0  0.36042  0.89023  0.92310  1.0000
  H   H2555     1.0  0.34305  0.87668  0.91750  1.0000
  H   H2556     1.0  0.36140  0.84964  0.91702  1.0000
  H   H2557     1.0  0.37890  0.86327  0.92193  1.0000
  H   H2558     1.0  0.34280  0.77652  0.58132  1.0000
  H   H2559     1.0  0.36615  0.87235  0.50054  1.0000
  C   C1454     1.0  0.29205  0.80561  0.76647  1.0000
  C   C1455     1.0  0.47907  0.88174  0.94477  1.0000
  C   C1456     1.0  0.47706  0.89306  0.94081  1.0000
  H   H2560     1.0  0.49407  0.93406  0.87137  1.0000
  C   C1457     1.0  0.46996  0.87559  0.55079  1.0000
  H   H2561     1.0  0.47912  0.95614  0.57460  1.0000
  H   H2562     1.0  0.42098  0.75478  0.76552  1.0000
  C   C1458     1.0  0.46775  0.93274  0.92760  1.0000
  C   C1459     1.0  0.45973  0.92459  0.91966  1.0000
  C   C1460     1.0  0.44905  0.92682  0.91630  1.0000
  C   C1461     1.0  0.47956  0.94941  0.78169  1.0000
  C   C1462     1.0  0.35885  0.88589  0.51472  1.0000
  S   S340      1.0  0.47453  0.95349  0.94294  1.0000
  C   C1463     1.0  0.38109  0.90803  0.80340  1.0000
  H   H2563     1.0  0.44488  0.97902  0.53186  1.0000
  H   H2564     1.0  0.43389  0.92707  0.81458  1.0000
  H   H2565     1.0  0.42138  0.78433  0.57934  1.0000
  H   H2566     1.0  0.48689  0.94924  0.70755  1.0000
  H   H2567     1.0  0.36182  0.86628  0.85629  1.0000
  H   H2568     1.0  0.45731  0.84058  0.66269  1.0000
  H   H2569     1.0  0.44254  0.98290  0.73705  1.0000
  H   H2570     1.0  0.35438  0.86119  0.54366  1.0000
  H   H2571     1.0  0.32791  0.77887  0.55465  1.0000
  C   C1464     1.0  0.41078  0.79078  0.83427  1.0000
  C   C1465     1.0  0.40905  0.94669  0.81675  1.0000
  C   C1466     1.0  0.40921  0.95678  0.79617  1.0000
  C   C1467     1.0  0.41372  0.95803  0.76676  1.0000
  H   H2572     1.0  0.43294  0.75735  0.97346  1.0000
  C   C1468     1.0  0.44908  0.79713  0.80176  1.0000
  H   H2573     1.0  0.40577  0.96368  0.80298  1.0000
  H   H2574     1.0  0.34829  0.76821  0.83064  1.0000
  H   H2575     1.0  0.34611  0.77075  0.79530  1.0000
  C   C1469     1.0  0.25276  0.78351  0.82831  1.0000
  C   C1470     1.0  0.40794  0.93767  0.52200  1.0000
  C   C1471     1.0  0.41294  0.94970  0.50943  1.0000
  C   C1472     1.0  0.41698  0.95731  0.52577  1.0000
  H   H2576     1.0  0.36694  0.76832  0.81379  1.0000
  H   H2577     1.0  0.30693  0.75908  0.49113  1.0000
  H   H2578     1.0  0.42070  0.96657  0.51561  1.0000
  H   H2579     1.0  0.45433  0.97793  0.49974  1.0000
  H   H2580     1.0  0.47584  0.93086  0.93079  1.0000
  C   C1473     1.0  0.49168  0.98147  0.62751  1.0000
  C   C1474     1.0  0.48002  0.98184  0.62986  1.0000
  N   N82       1.0  0.46501  0.86276  0.56665  1.0000
  H   H2581     1.0  0.46002  0.77371  0.59001  1.0000
  H   H2582     1.0  0.43040  0.76708  0.57741  1.0000
  H   H2583     1.0  0.32901  0.86443  0.96338  1.0000
  H   H2584     1.0  0.29773  0.80525  0.69455  1.0000
  H   H2585     1.0  0.49685  0.99430  0.56920  1.0000
  H   H2586     1.0  0.45023  0.94641  0.50060  1.0000
  S   S341      1.0  0.44470  0.97865  0.66934  1.0000
  C   C1475     1.0  0.48330  0.99843  0.65065  1.0000
  H   H2587     1.0  0.40948  0.77416  0.65972  1.0000
  H   H2588     1.0  0.46540  0.95004  0.56801  1.0000
  C   C1476     1.0  0.49488  0.96634  0.71432  1.0000
  H   H2589     1.0  0.44976  0.88832  0.97180  1.0000
  H   H2590     1.0  0.49213  0.94513  0.80531  1.0000
  C   C1477     1.0  0.28514  0.78186  0.90049  1.0000
  C   C1478     1.0  0.46751  0.80673  0.76157  1.0000
  H   H2591     1.0  0.37077  0.91603  0.90072  1.0000
  H   H2592     1.0  0.29202  0.78618  0.53525  1.0000
  H   H2593     1.0  0.49171  0.77878  0.92003  1.0000
  C   C1479     1.0  0.27594  0.77252  0.89943  1.0000
  C   C1480     1.0  0.29290  0.78082  0.82777  1.0000
  H   H2594     1.0  0.39519  0.93402  0.74963  1.0000
  H   H2595     1.0  0.44964  0.80775  0.89527  1.0000
  C   C1481     1.0  0.26177  0.76328  0.68638  1.0000
  C   C1482     1.0  0.29213  0.78706  0.79786  1.0000
  H   H2596     1.0  0.49648  0.94856  0.73119  1.0000
  C   C1483     1.0  0.28424  0.76518  0.97210  1.0000
  C   C1484     1.0  0.27133  0.79351  0.90853  1.0000
  H   H2597     1.0  0.42341  0.79960  0.85240  1.0000
  H   H2598     1.0  0.45055  0.75900  0.60201  1.0000
  C   C1485     1.0  0.29620  0.78644  0.55313  1.0000
  H   H2599     1.0  0.34551  0.83245  0.52437  1.0000
  H   H2600     1.0  0.40922  0.82729  0.51330  1.0000
  H   H2601     1.0  0.48292  0.96755  0.78119  1.0000
  C   C1486     1.0  0.27591  0.75721  0.71447  1.0000
  H   H2602     1.0  0.46129  0.86802  0.60605  1.0000
  H   H2603     1.0  0.30741  0.77397  0.49316  1.0000
  C   C1487     1.0  0.43995  0.79284  0.88361  1.0000
  H   H2604     1.0  0.33616  0.76903  0.54356  1.0000
  H   H2605     1.0  0.42125  0.93214  0.77122  1.0000
  H   H2606     1.0  0.44920  0.99080  0.75915  1.0000
  H   H2607     1.0  0.44087  0.96704  0.51640  1.0000
  C   C1488     1.0  0.44230  0.97187  0.77783  1.0000
  H   H2608     1.0  0.46607  0.76130  0.58765  1.0000
  C   C1489     1.0  0.44161  0.94027  0.50315  1.0000
  C   C1490     1.0  0.31802  0.76022  0.56767  1.0000
  H   H2609     1.0  0.29337  0.81656  0.70985  1.0000
  H   H2610     1.0  0.41961  0.76129  0.64217  1.0000
  H   H2611     1.0  0.29555  0.82256  0.84037  1.0000
  C   C1491     1.0  0.29781  0.77010  0.82693  1.0000
  H   H2612     1.0  0.48318  0.84966  0.48933  1.0000
  C   C1492     1.0  0.30696  0.76911  0.74421  1.0000
  C   C1493     1.0  0.48585  0.97985  0.54008  1.0000
  C   C1494     1.0  0.31887  0.76595  0.51588  1.0000
  C   C1495     1.0  0.36712  0.78160  0.76248  1.0000
  C   C1496     1.0  0.37770  0.78598  0.73588  1.0000
  C   C1497     1.0  0.37559  0.77978  0.71279  1.0000
  H   H2613     1.0  0.36457  0.77181  0.76788  1.0000
  H   H2614     1.0  0.35984  0.78446  0.75471  1.0000
  H   H2615     1.0  0.37902  0.79549  0.72671  1.0000
  H   H2616     1.0  0.38591  0.78470  0.74085  1.0000
  H   H2617     1.0  0.38324  0.78332  0.69398  1.0000
  H   H2618     1.0  0.37447  0.77016  0.72055  1.0000
  H   H2619     1.0  0.36772  0.78141  0.70601  1.0000
  N   N83       1.0  0.39408  0.82971  0.56374  1.0000
  C   C1498     1.0  0.39534  0.83484  0.53247  1.0000
  C   C1499     1.0  0.38202  0.82920  0.58104  1.0000
  C   C1500     1.0  0.40299  0.83786  0.57295  1.0000
  C   C1501     1.0  0.39652  0.81772  0.56950  1.0000
  C   C1502     1.0  0.38891  0.80810  0.55993  1.0000
  H   H2620     1.0  0.38288  0.75908  0.82676  1.0000
  C   C1503     1.0  0.40189  0.83533  0.60555  1.0000
  C   C1504     1.0  0.37164  0.82652  0.56734  1.0000
  C   C1505     1.0  0.35998  0.82283  0.58972  1.0000
  C   C1506     1.0  0.39331  0.79696  0.56399  1.0000
  H   H2621     1.0  0.46624  0.79279  0.79743  1.0000
  C   C1507     1.0  0.41150  0.84385  0.61231  1.0000
  H   H2622     1.0  0.46520  0.75745  0.72595  1.0000
  H   H2623     1.0  0.38873  0.82955  0.52452  1.0000
  H   H2624     1.0  0.37991  0.82273  0.60217  1.0000
  H   H2625     1.0  0.38181  0.83781  0.58600  1.0000
  H   H2626     1.0  0.40259  0.84715  0.56552  1.0000
  H   H2627     1.0  0.41202  0.83755  0.56293  1.0000
  H   H2628     1.0  0.40586  0.81839  0.55986  1.0000
  H   H2629     1.0  0.39520  0.81407  0.59271  1.0000
  H   H2630     1.0  0.38903  0.81098  0.53717  1.0000
  H   H2631     1.0  0.37978  0.80562  0.57334  1.0000
  H   H2632     1.0  0.49777  0.76714  0.63810  1.0000
  C   C1508     1.0  0.26965  0.75639  0.77934  1.0000
  H   H2633     1.0  0.40275  0.82640  0.61404  1.0000
  H   H2634     1.0  0.39336  0.83611  0.61748  1.0000
  H   H2635     1.0  0.37174  0.83456  0.55137  1.0000
  H   H2636     1.0  0.37195  0.81943  0.55637  1.0000
  H   H2637     1.0  0.35911  0.82962  0.60159  1.0000
  H   H2638     1.0  0.35270  0.82155  0.57933  1.0000
  H   H2639     1.0  0.35927  0.81436  0.60487  1.0000
  H   H2640     1.0  0.39295  0.79353  0.58678  1.0000
  H   H2641     1.0  0.38765  0.79010  0.55734  1.0000
  H   H2642     1.0  0.40244  0.79878  0.55091  1.0000
  H   H2643     1.0  0.44457  0.77785  0.96810  1.0000
  H   H2644     1.0  0.43803  0.76673  0.82338  1.0000
  H   H2645     1.0  0.40054  0.89880  0.79632  1.0000
  H   H2646     1.0  0.41032  0.84184  0.63577  1.0000
  H   H2647     1.0  0.42025  0.84286  0.60244  1.0000
  H   H2648     1.0  0.41106  0.85307  0.60463  1.0000
  C   C1509     1.0  0.44673  0.93743  0.91978  1.0000
  N   N84       1.0  0.48487  0.96734  0.73669  1.0000
  C   C1510     1.0  0.47314  0.96143  0.73330  1.0000
  H   H2649     1.0  0.26077  0.77061  0.69633  1.0000
  H   H2650     1.0  0.44648  0.86057  0.58487  1.0000
  H   H2651     1.0  0.26596  0.77061  0.95848  1.0000
  C   C1511     1.0  0.46124  0.76365  0.63055  1.0000
  C   C1512     1.0  0.47066  0.96559  0.70391  1.0000
  H   H2652     1.0  0.43700  0.78859  0.53476  1.0000
  H   H2653     1.0  0.44813  0.75469  0.76592  1.0000
  H   H2654     1.0  0.44954  0.75667  0.85285  1.0000
  H   H2655     1.0  0.41367  0.95319  0.48707  1.0000
  C   C1513     1.0  0.45908  0.95801  0.70259  1.0000
  C   C1514     1.0  0.44832  0.97285  0.52057  1.0000
  H   H2656     1.0  0.46599  0.96261  0.74967  1.0000
  H   H2657     1.0  0.47196  0.95179  0.73721  1.0000
  H   H2658     1.0  0.39787  0.76717  0.81080  1.0000
  H   H2659     1.0  0.48837  0.94289  0.55067  1.0000
  H   H2660     1.0  0.47773  0.98135  0.74811  1.0000
  N   N85       1.0  0.25306  0.76321  0.49395  1.0000
  H   H2661     1.0  0.47575  0.93482  0.57945  1.0000
  C   C1515     1.0  0.48249  0.84928  0.51216  1.0000
  H   H2662     1.0  0.26190  0.75674  0.58415  1.0000
  H   H2663     1.0  0.46856  0.97561  0.82182  1.0000
  H   H2664     1.0  0.46997  0.97482  0.69993  1.0000
  H   H2665     1.0  0.47762  0.96489  0.68637  1.0000
  C   C1516     1.0  0.47316  0.85533  0.52310  1.0000
  H   H2666     1.0  0.41544  0.97334  0.85351  1.0000
  H   H2667     1.0  0.46999  0.94847  0.78700  1.0000
  H   H2668     1.0  0.43861  0.91960  0.60448  1.0000
  H   H2669     1.0  0.48016  0.83990  0.52429  1.0000
  C   C1517     1.0  0.44135  0.79561  0.54337  1.0000
  C   C1518     1.0  0.35983  0.83276  0.49039  1.0000
  C   C1519     1.0  0.47868  0.96118  0.52944  1.0000
  H   H2670     1.0  0.43873  0.97356  0.86965  1.0000
  H   H2671     1.0  0.28954  0.77048  0.74469  1.0000
  H   H2672     1.0  0.45914  0.94858  0.70668  1.0000
  H   H2673     1.0  0.45162  0.95906  0.71830  1.0000
  H   H2674     1.0  0.45774  0.96074  0.68101  1.0000
  C   C1520     1.0  0.32969  0.85255  0.48413  1.0000
  H   H2675     1.0  0.46497  0.84292  0.61238  1.0000
  H   H2676     1.0  0.45080  0.79844  0.53205  1.0000
  N   N86       1.0  0.43446  0.87676  0.91019  1.0000
  C   C1521     1.0  0.42513  0.88254  0.90262  1.0000
  C   C1522     1.0  0.44136  0.88402  0.92560  1.0000
  C   C1523     1.0  0.44277  0.87699  0.88265  1.0000
  C   C1524     1.0  0.42959  0.86413  0.92779  1.0000
  H   H2677     1.0  0.27789  0.75905  0.78565  1.0000
  C   C1525     1.0  0.41866  0.87730  0.88228  1.0000
  C   C1526     1.0  0.45375  0.87249  0.88567  1.0000
  C   C1527     1.0  0.31270  0.76747  0.49132  1.0000
  H   H2678     1.0  0.31247  0.76003  0.58876  1.0000
  H   H2679     1.0  0.49524  0.97187  0.69300  1.0000
  C   C1528     1.0  0.40635  0.87911  0.88619  1.0000
  C   C1529     1.0  0.45937  0.86927  0.85882  1.0000
  H   H2680     1.0  0.42900  0.89211  0.89215  1.0000
  H   H2681     1.0  0.41857  0.88241  0.92200  1.0000
  H   H2682     1.0  0.44867  0.88028  0.93027  1.0000
  H   H2683     1.0  0.44552  0.89311  0.91172  1.0000
  H   H2684     1.0  0.44588  0.88609  0.86836  1.0000
  H   H2685     1.0  0.43817  0.87151  0.87077  1.0000
  H   H2686     1.0  0.42979  0.85788  0.91400  1.0000
  H   H2687     1.0  0.43534  0.86191  0.94176  1.0000
  H   H2688     1.0  0.41050  0.86043  0.93380  1.0000
  H   H2689     1.0  0.48491  0.98446  0.71137  1.0000
  H   H2690     1.0  0.42365  0.88166  0.85982  1.0000
  H   H2691     1.0  0.41791  0.86773  0.88565  1.0000
  H   H2692     1.0  0.45160  0.86458  0.90373  1.0000
  H   H2693     1.0  0.46041  0.87950  0.88925  1.0000
  Fe  Fe170     1.0  0.44261  0.83087  0.48901  1.0000
  H   H2694     1.0  0.28585  0.76765  0.94857  1.0000
  C   C1530     1.0  0.46210  0.97246  0.84295  1.0000
  H   H2695     1.0  0.41035  0.78726  0.81543  1.0000
  H   H2696     1.0  0.36771  0.89136  0.51273  1.0000
  C   C1531     1.0  0.46895  0.97099  0.86558  1.0000
  H   H2697     1.0  0.38906  0.77177  0.83822  1.0000
  H   H2698     1.0  0.45481  0.76761  0.64198  1.0000
  C   C1532     1.0  0.41687  0.86060  0.94698  1.0000
  H   H2699     1.0  0.29624  0.76334  0.57395  1.0000
  H   H2700     1.0  0.40090  0.87421  0.90790  1.0000
  H   H2701     1.0  0.46745  0.86659  0.86141  1.0000
  H   H2702     1.0  0.45330  0.86174  0.85530  1.0000
  H   H2703     1.0  0.46171  0.87690  0.83992  1.0000
  H   H2704     1.0  0.27607  0.76569  0.72003  1.0000
  H   H2705     1.0  0.29835  0.76592  0.84861  1.0000
  C   C1533     1.0  0.43348  0.97327  0.85380  1.0000
  H   H2706     1.0  0.34305  0.83576  0.48972  1.0000
  H   H2707     1.0  0.26764  0.77726  0.83400  1.0000
  C   C1534     1.0  0.34673  0.77472  0.81336  1.0000
  H   H2708     1.0  0.39359  0.89970  0.85907  1.0000
  H   H2709     1.0  0.38114  0.88530  0.82157  1.0000
  C   C1535     1.0  0.39072  0.91958  0.78758  1.0000
  Fe  Fe171     1.0  0.45189  0.97220  0.63186  1.0000
  H   H2710     1.0  0.43757  0.80328  0.53896  1.0000
  H   H2711     1.0  0.35661  0.82328  0.49173  1.0000
  H   H2712     1.0  0.27435  0.81272  0.81898  1.0000
  H   H2713     1.0  0.40661  0.88858  0.88313  1.0000
  H   H2714     1.0  0.43788  0.77925  0.70488  1.0000
  Fe  Fe172     1.0  0.43684  0.98910  0.63893  1.0000
  H   H2715     1.0  0.48546  0.87959  0.56816  1.0000
  H   H2716     1.0  0.43498  0.94317  0.51717  1.0000
  C   C1536     1.0  0.49511  0.90086  0.95293  1.0000
  H   H2717     1.0  0.42598  0.77914  0.85544  1.0000
  C   C1537     1.0  0.48499  0.90255  0.94492  1.0000
  C   C1538     1.0  0.33444  0.76964  0.58704  1.0000
  H   H2718     1.0  0.46716  0.99125  0.64146  1.0000
  C   C1539     1.0  0.42300  0.76286  0.59658  1.0000
  Fe  Fe173     1.0  0.42893  0.96781  0.61284  1.0000
  C   C1540     1.0  0.48279  0.94534  0.80964  1.0000
  H   H2719     1.0  0.40217  0.87570  0.87060  1.0000
  H   H2720     1.0  0.32828  0.77138  0.60464  1.0000
  C   C1541     1.0  0.48543  0.98026  0.73311  1.0000
  H   H2721     1.0  0.48514  0.97519  0.56239  1.0000
  C   C1542     1.0  0.29188  0.80013  0.74074  1.0000
  H   H2722     1.0  0.32436  0.77485  0.51366  1.0000
  H   H2723     1.0  0.44880  0.95655  0.86765  1.0000
  C   C1543     1.0  0.43833  0.93816  0.84252  1.0000
  S   S342      1.0  0.42007  0.97445  0.64932  1.0000
  C   C1544     1.0  0.48665  0.89406  0.53378  1.0000
  H   H2724     1.0  0.36293  0.75274  0.66254  1.0000
  S   S343      1.0  0.27789  0.75490  0.62144  1.0000
  H   H2725     1.0  0.46959  0.85322  0.64944  1.0000
  H   H2726     1.0  0.30511  0.76518  0.76745  1.0000
  H   H2727     1.0  0.47557  0.86441  0.50946  1.0000
  C   C1545     1.0  0.43573  0.93072  0.56717  1.0000
  C   C1546     1.0  0.47762  0.97941  0.49819  1.0000
  H   H2728     1.0  0.45752  0.97941  0.84582  1.0000
  H   H2729     1.0  0.34066  0.87373  0.50434  1.0000
  H   H2730     1.0  0.32797  0.76856  0.83218  1.0000
  H   H2731     1.0  0.46610  0.80676  0.80520  1.0000
  H   H2732     1.0  0.43331  0.90251  0.52064  1.0000
  H   H2733     1.0  0.35770  0.88578  0.85898  1.0000
  C   C1547     1.0  0.45933  0.76444  0.60078  1.0000
  H   H2734     1.0  0.32520  0.76055  0.51145  1.0000
  H   H2735     1.0  0.44805  0.78131  0.67101  1.0000
  C   C1548     1.0  0.42330  0.76941  0.95952  1.0000
  H   H2736     1.0  0.25357  0.76002  0.68041  1.0000
  H   H2737     1.0  0.26748  0.75950  0.53194  1.0000
  H   H2738     1.0  0.41363  0.96578  0.75125  1.0000
  H   H2739     1.0  0.26904  0.76661  0.66665  1.0000
  C   C1549     1.0  0.44009  0.78354  0.68171  1.0000
  H   H2740     1.0  0.42214  0.78147  0.68192  1.0000
  H   H2741     1.0  0.44968  0.84892  0.57041  1.0000
  H   H2742     1.0  0.46489  0.88103  0.56126  1.0000
  C   C1550     1.0  0.43988  0.79107  0.57534  1.0000
  H   H2743     1.0  0.40632  0.78366  0.85400  1.0000
  C   C1551     1.0  0.26236  0.77471  0.48392  1.0000
  C   C1552     1.0  0.42980  0.77929  0.66972  1.0000
  H   H2744     1.0  0.44194  0.79320  0.67885  1.0000
  H   H2745     1.0  0.49474  0.97996  0.52810  1.0000
  H   H2746     1.0  0.38744  0.92165  0.85641  1.0000
  H   H2747     1.0  0.44602  0.79226  0.78675  1.0000
  H   H2748     1.0  0.28290  0.75938  0.69425  1.0000
  H   H2749     1.0  0.42806  0.76959  0.67366  1.0000
  H   H2750     1.0  0.38523  0.79859  0.76720  1.0000
  S   S344      1.0  0.40637  0.90819  0.95530  1.0000
  C   C1553     1.0  0.46049  0.84965  0.64853  1.0000
  S   S345      1.0  0.47817  0.81250  0.93989  1.0000
  C   C1554     1.0  0.46394  0.78118  0.92330  1.0000
  H   H2751     1.0  0.45522  0.80116  0.84927  1.0000
  C   C1555     1.0  0.44264  0.94963  0.81792  1.0000
  N   N87       1.0  0.36853  0.78581  0.78863  1.0000
  C   C1556     1.0  0.37641  0.79815  0.78010  1.0000
  H   H2752     1.0  0.33497  0.78114  0.84262  1.0000
  H   H2753     1.0  0.33519  0.84999  0.60214  1.0000
  H   H2754     1.0  0.41532  0.86676  0.96024  1.0000
  H   H2755     1.0  0.44511  0.79809  0.58244  1.0000
  C   C1557     1.0  0.45467  0.94553  0.92762  1.0000
  H   H2756     1.0  0.42750  0.80296  0.81419  1.0000
  H   H2757     1.0  0.38539  0.77171  0.77893  1.0000
  H   H2758     1.0  0.31040  0.78155  0.56770  1.0000
  C   C1558     1.0  0.47580  0.79851  0.93220  1.0000
  C   C1559     1.0  0.35660  0.78630  0.80446  1.0000
  H   H2759     1.0  0.48149  0.94336  0.76838  1.0000
  H   H2760     1.0  0.36642  0.83370  0.50296  1.0000
  H   H2761     1.0  0.37236  0.77964  0.82896  1.0000
  H   H2762     1.0  0.45077  0.84591  0.61845  1.0000
  C   C1560     1.0  0.37282  0.77731  0.80827  1.0000
  H   H2763     1.0  0.38770  0.82000  0.81138  1.0000
  H   H2764     1.0  0.33254  0.78288  0.80742  1.0000
  C   C1561     1.0  0.41640  0.95307  0.55491  1.0000
  Fe  Fe174     1.0  0.42889  0.96363  0.67752  1.0000
  H   H2765     1.0  0.38167  0.90213  0.78884  1.0000
  C   C1562     1.0  0.42794  0.90674  0.53425  1.0000
  C   C1563     1.0  0.42687  0.78798  0.59237  1.0000
  C   C1564     1.0  0.34216  0.84570  0.59480  1.0000
  C   C1565     1.0  0.38526  0.77598  0.79671  1.0000
  C   C1566     1.0  0.33484  0.77699  0.82460  1.0000
  H   H2766     1.0  0.44743  0.96054  0.55937  1.0000
  H   H2767     1.0  0.44135  0.78576  0.62755  1.0000
  C   C1567     1.0  0.43215  0.78548  0.63765  1.0000
  H   H2768     1.0  0.30137  0.80985  0.76482  1.0000
  H   H2769     1.0  0.45679  0.98180  0.74097  1.0000
  H   H2770     1.0  0.44110  0.96404  0.76917  1.0000
  C   C1568     1.0  0.37844  0.80374  0.80478  1.0000
  C   C1569     1.0  0.38894  0.76801  0.81962  1.0000
  C   C1570     1.0  0.38663  0.81609  0.79338  1.0000
  H   H2771     1.0  0.35072  0.85090  0.59577  1.0000
  H   H2772     1.0  0.35691  0.78896  0.82448  1.0000
  H   H2773     1.0  0.39189  0.78456  0.78941  1.0000
  H   H2774     1.0  0.37018  0.80471  0.81749  1.0000
  H   H2775     1.0  0.38296  0.82186  0.77900  1.0000
  H   H2776     1.0  0.34016  0.83683  0.60962  1.0000
  C   C1571     1.0  0.30628  0.78050  0.55005  1.0000
  C   C1572     1.0  0.29790  0.80939  0.71255  1.0000
  C   C1573     1.0  0.44848  0.86423  0.54000  1.0000
  C   C1574     1.0  0.34545  0.85669  0.54327  1.0000
  H   H2777     1.0  0.33948  0.86176  0.55224  1.0000
  H   H2778     1.0  0.45715  0.78249  0.84215  1.0000
  H   H2779     1.0  0.42679  0.92511  0.57098  1.0000
  H   H2780     1.0  0.43193  0.79483  0.63614  1.0000
  C   C1575     1.0  0.42534  0.76770  0.62216  1.0000
  H   H2781     1.0  0.38717  0.92029  0.74598  1.0000
  H   H2782     1.0  0.33395  0.83893  0.56528  1.0000
  H   H2783     1.0  0.38247  0.79840  0.81906  1.0000
  C   C1576     1.0  0.47358  0.77621  0.91991  1.0000
  H   H2784     1.0  0.41748  0.91231  0.80324  1.0000
  C   C1577     1.0  0.34255  0.84450  0.56459  1.0000
  H   H2785     1.0  0.29076  0.76015  0.97590  1.0000
  H   H2786     1.0  0.28532  0.79820  0.83948  1.0000
  H   H2787     1.0  0.42137  0.98149  0.87625  1.0000
  N   N88       1.0  0.34484  0.85679  0.51317  1.0000
  H   H2788     1.0  0.45257  0.95356  0.93098  1.0000
  H   H2789     1.0  0.43878  0.93944  0.91665  1.0000
  H   H2790     1.0  0.39359  0.84372  0.52925  1.0000
  H   H2791     1.0  0.27778  0.76443  0.89587  1.0000
  C   C1578     1.0  0.42873  0.82172  0.59083  1.0000
  C   C1579     1.0  0.45233  0.82263  0.58565  1.0000
  H   H2792     1.0  0.41955  0.82114  0.59299  1.0000
  H   H2793     1.0  0.46147  0.82282  0.58360  1.0000
  H   H2794     1.0  0.36514  0.90460  0.85413  1.0000
  C   C1580     1.0  0.41799  0.94910  0.75750  1.0000
  H   H2795     1.0  0.42972  0.95456  0.86280  1.0000
  H   H2796     1.0  0.32617  0.85482  0.52673  1.0000
  C   C1581     1.0  0.41794  0.93907  0.77814  1.0000
  H   H2797     1.0  0.43561  0.94008  0.56061  1.0000
  H   H2798     1.0  0.46300  0.96893  0.88719  1.0000
  H   H2799     1.0  0.44638  0.80548  0.79691  1.0000
  C   C1582     1.0  0.37062  0.92182  0.88031  1.0000
  H   H2800     1.0  0.34947  0.83999  0.55876  1.0000
  H   H2801     1.0  0.37242  0.91003  0.80432  1.0000
  H   H2802     1.0  0.41884  0.77588  0.96690  1.0000
  N   N89       1.0  0.42395  0.77996  0.62198  1.0000
  H   H2803     1.0  0.47424  0.95691  0.51529  1.0000
  H   H2804     1.0  0.38763  0.76938  0.66408  1.0000
  C   C1583     1.0  0.46473  0.97259  0.54647  1.0000
  H   H2805     1.0  0.46452  0.81487  0.75619  1.0000
  S   S346      1.0  0.33604  0.80080  0.48205  1.0000
  C   C1584     1.0  0.33243  0.85112  0.51365  1.0000
  C   C1585     1.0  0.38798  0.92600  0.76079  1.0000
  H   H2806     1.0  0.44362  0.93812  0.85830  1.0000
  H   H2807     1.0  0.32995  0.84158  0.52433  1.0000
  H   H2808     1.0  0.27200  0.78742  0.78366  1.0000
  H   H2809     1.0  0.45483  0.85509  0.65669  1.0000
  C   C1586     1.0  0.28391  0.81496  0.81680  1.0000
  H   H2810     1.0  0.44809  0.92754  0.82157  1.0000
  C   C1587     1.0  0.42110  0.97341  0.86856  1.0000
  H   H2811     1.0  0.43479  0.80798  0.89440  1.0000
  H   H2812     1.0  0.48126  0.95128  0.82366  1.0000
  C   C1588     1.0  0.44813  0.82451  0.56114  1.0000
  H   H2813     1.0  0.47721  0.80919  0.75614  1.0000
  C   C1589     1.0  0.47869  0.94103  0.55793  1.0000
  H   H2814     1.0  0.35004  0.86927  0.84133  1.0000
  H   H2815     1.0  0.46095  0.97173  0.97730  1.0000
  H   H2816     1.0  0.33613  0.76093  0.59455  1.0000
  H   H2817     1.0  0.45333  0.93372  0.54118  1.0000
  H   H2818     1.0  0.30136  0.79000  0.78478  1.0000
  H   H2819     1.0  0.43500  0.91925  0.84863  1.0000
  S   S347      1.0  0.46666  0.83518  0.97712  1.0000
  C   C1590     1.0  0.41163  0.77947  0.63737  1.0000
  H   H2820     1.0  0.25985  0.76032  0.81652  1.0000
  H   H2821     1.0  0.42303  0.92324  0.53003  1.0000
  H   H2822     1.0  0.41646  0.90231  0.83682  1.0000
  H   H2823     1.0  0.46174  0.91649  0.91663  1.0000
  H   H2824     1.0  0.46462  0.80079  0.74852  1.0000
  C   C1591     1.0  0.39383  0.90347  0.83639  1.0000
  H   H2825     1.0  0.41380  0.89076  0.54952  1.0000
  C   C1592     1.0  0.41515  0.90022  0.53918  1.0000
  H   H2826     1.0  0.41269  0.90100  0.51862  1.0000
  H   H2827     1.0  0.43703  0.98132  0.83593  1.0000
  C   C1593     1.0  0.25852  0.78535  0.49240  1.0000
  C   C1594     1.0  0.43006  0.91985  0.51906  1.0000
  H   H2828     1.0  0.49910  0.75668  0.66854  1.0000
  H   H2829     1.0  0.41364  0.93018  0.82303  1.0000
  H   H2830     1.0  0.29960  0.79579  0.55280  1.0000
  C   C1595     1.0  0.41357  0.93790  0.80752  1.0000
  H   H2831     1.0  0.37975  0.92876  0.76642  1.0000
  C   C1596     1.0  0.44248  0.89234  0.96830  1.0000
  H   H2832     1.0  0.43008  0.77386  0.93926  1.0000
  H   H2833     1.0  0.47020  0.76899  0.62797  1.0000
  H   H2834     1.0  0.43438  0.84889  0.54492  1.0000
  S   S348      1.0  0.47334  0.76264  0.91065  1.0000
  H   H2835     1.0  0.42020  0.89807  0.80400  1.0000
  C   C1597     1.0  0.46267  0.80059  0.79328  1.0000
  H   H2836     1.0  0.43254  0.93159  0.61117  1.0000
  C   C1598     1.0  0.48525  0.79339  0.92911  1.0000
  H   H2837     1.0  0.37748  0.88392  0.85889  1.0000
  C   C1599     1.0  0.34958  0.83757  0.50207  1.0000
  H   H2838     1.0  0.42994  0.90556  0.55528  1.0000
  H   H2839     1.0  0.40929  0.90392  0.55324  1.0000
  Fe  Fe175     1.0  0.40205  0.92552  0.95779  1.0000
  S   S349      1.0  0.42300  0.94961  0.72073  1.0000
  N   N90       1.0  0.44186  0.92780  0.51611  1.0000
  H   H2840     1.0  0.41086  0.78848  0.63848  1.0000
  H   H2841     1.0  0.48508  0.99783  0.51974  1.0000
  H   H2842     1.0  0.41499  0.76447  0.59085  1.0000
  C   C1600     1.0  0.35981  0.87745  0.49561  1.0000
  S   S350      1.0  0.44488  0.98321  0.60095  1.0000
  H   H2843     1.0  0.46408  0.96894  0.56937  1.0000
  H   H2844     1.0  0.42732  0.88932  0.95210  1.0000
  H   H2845     1.0  0.39826  0.91291  0.83196  1.0000
  C   C1601     1.0  0.37827  0.91915  0.85507  1.0000
  H   H2846     1.0  0.29565  0.76630  0.53822  1.0000
  H   H2847     1.0  0.44364  0.78337  0.57882  1.0000
  C   C1602     1.0  0.45757  0.91568  0.50977  1.0000
  H   H2848     1.0  0.36144  0.92051  0.87864  1.0000
  H   H2849     1.0  0.39979  0.88814  0.82814  1.0000
  S   S351      1.0  0.40326  0.92732  0.50217  1.0000
  C   C1603     1.0  0.28608  0.82035  0.84115  1.0000
  H   H2850     1.0  0.29397  0.78085  0.89775  1.0000
  C   C1604     1.0  0.40685  0.93353  0.55145  1.0000
  H   H2851     1.0  0.44777  0.93452  0.59335  1.0000
  H   H2852     1.0  0.37722  0.92481  0.83558  1.0000
  H   H2853     1.0  0.49092  0.87146  0.95579  1.0000
  N   N91       1.0  0.38155  0.90185  0.83283  1.0000
  C   C1605     1.0  0.45350  0.96065  0.84480  1.0000
  H   H2854     1.0  0.31030  0.77877  0.73999  1.0000
  H   H2855     1.0  0.35493  0.88111  0.53741  1.0000
  H   H2856     1.0  0.47772  0.99256  0.55707  1.0000
  H   H2857     1.0  0.28278  0.79644  0.74009  1.0000
  H   H2858     1.0  0.37399  0.93112  0.88046  1.0000
  H   H2859     1.0  0.45636  0.95844  0.52882  1.0000
  H   H2860     1.0  0.43089  0.87623  0.96973  1.0000
  C   C1606     1.0  0.43891  0.92897  0.59572  1.0000
  C   C1607     1.0  0.47503  0.95240  0.55933  1.0000
  C   C1608     1.0  0.37436  0.90602  0.85550  1.0000
  N   N92       1.0  0.44484  0.96104  0.82659  1.0000
  H   H2861     1.0  0.45153  0.77560  0.79870  1.0000
  H   H2862     1.0  0.48330  0.91117  0.94174  1.0000
  H   H2863     1.0  0.45848  0.97006  0.78833  1.0000
  H   H2864     1.0  0.26932  0.80152  0.91234  1.0000
  H   H2865     1.0  0.40285  0.92432  0.56180  1.0000
  H   H2866     1.0  0.36162  0.85250  0.50737  1.0000
  C   C1609     1.0  0.48418  0.78244  0.92281  1.0000
  H   H2867     1.0  0.40298  0.77821  0.60256  1.0000
  H   H2868     1.0  0.43583  0.94920  0.80594  1.0000
  H   H2869     1.0  0.36414  0.87075  0.81804  1.0000
  C   C1610     1.0  0.29588  0.76633  0.73391  1.0000
  H   H2870     1.0  0.48808  0.96191  0.52044  1.0000
  C   C1611     1.0  0.43630  0.82404  0.56367  1.0000
  H   H2871     1.0  0.29813  0.77063  0.71071  1.0000
  H   H2872     1.0  0.31823  0.83497  0.49349  1.0000
  H   H2873     1.0  0.49552  0.99078  0.48292  1.0000
  C   C1612     1.0  0.34771  0.86953  0.49661  1.0000
  H   H2874     1.0  0.25358  0.78567  0.90913  1.0000
  H   H2875     1.0  0.36119  0.89033  0.82064  1.0000
  H   H2876     1.0  0.45069  0.94914  0.80311  1.0000
  C   C1613     1.0  0.44567  0.79830  0.85132  1.0000
  H   H2877     1.0  0.42883  0.78167  0.81824  1.0000
  H   H2878     1.0  0.38963  0.78379  0.64077  1.0000
  C   C1614     1.0  0.28283  0.79241  0.90543  1.0000
  S   S352      1.0  0.42267  0.96297  0.57399  1.0000
  C   C1615     1.0  0.30078  0.78188  0.97295  1.0000
  C   C1616     1.0  0.43032  0.78610  0.83527  1.0000
  H   H2879     1.0  0.44467  0.78648  0.89222  1.0000
  H   H2880     1.0  0.28366  0.78345  0.97032  1.0000
  H   H2881     1.0  0.26107  0.77067  0.54209  1.0000
  H   H2882     1.0  0.31901  0.85011  0.97757  1.0000
  H   H2883     1.0  0.49554  0.96341  0.76604  1.0000
  Fe  Fe176     1.0  0.49172  0.95013  0.94766  1.0000
  C   C1617     1.0  0.41117  0.94107  0.56761  1.0000
  C   C1618     1.0  0.35964  0.87203  0.83861  1.0000
  H   H2884     1.0  0.44302  0.77440  0.86258  1.0000
  H   H2885     1.0  0.43063  0.78815  0.88801  1.0000
  H   H2886     1.0  0.29839  0.80693  0.81475  1.0000
  H   H2887     1.0  0.27416  0.79243  0.50518  1.0000
  C   C1619     1.0  0.40170  0.77382  0.62529  1.0000
  H   H2888     1.0  0.45926  0.95485  0.83913  1.0000
  H   H2889     1.0  0.42468  0.79650  0.59338  1.0000
  H   H2890     1.0  0.28120  0.81414  0.86201  1.0000
  H   H2891     1.0  0.47564  0.97930  0.86242  1.0000
  H   H2892     1.0  0.40122  0.76432  0.62782  1.0000
  C   C1620     1.0  0.25917  0.76126  0.54189  1.0000
  N   N93       1.0  0.31097  0.76069  0.54563  1.0000
  C   C1621     1.0  0.49711  0.88955  0.95691  1.0000
  C   C1622     1.0  0.30179  0.76728  0.55199  1.0000
  C   C1623     1.0  0.26234  0.78445  0.90675  1.0000
  H   H2893     1.0  0.47417  0.98737  0.49713  1.0000
  C   C1624     1.0  0.45414  0.96529  0.53909  1.0000
  H   H2894     1.0  0.28953  0.78202  0.57366  1.0000
  H   H2895     1.0  0.30431  0.78331  0.94969  1.0000
  H   H2896     1.0  0.44549  0.91877  0.55475  1.0000
  N   N94       1.0  0.44327  0.79030  0.83230  1.0000
  C   C1625     1.0  0.47595  0.99052  0.64079  1.0000
  S   S353      1.0  0.43059  0.82622  0.53355  1.0000
  H   H2897     1.0  0.45402  0.82613  0.54040  1.0000
  H   H2898     1.0  0.38289  0.77078  0.63179  1.0000
  C   C1626     1.0  0.44796  0.77973  0.84070  1.0000
  H   H2899     1.0  0.43746  0.79804  0.92331  1.0000
  C   C1627     1.0  0.44812  0.98250  0.75228  1.0000
  C   C1628     1.0  0.44730  0.77109  0.82143  1.0000
  H   H2900     1.0  0.29652  0.79304  0.74165  1.0000
  H   H2901     1.0  0.42909  0.93709  0.85385  1.0000
  H   H2902     1.0  0.49496  0.97492  0.61858  1.0000
  H   H2903     1.0  0.26830  0.76401  0.76471  1.0000
  H   H2904     1.0  0.28425  0.77784  0.84309  1.0000
  C   C1629     1.0  0.44464  0.92756  0.54453  1.0000
  H   H2905     1.0  0.27029  0.77391  0.49123  1.0000
  H   H2906     1.0  0.45171  0.97960  0.80452  1.0000
  C   C1630     1.0  0.42350  0.79577  0.83388  1.0000
  H   H2907     1.0  0.28769  0.81290  0.76288  1.0000
  S   S354      1.0  0.29356  0.80462  0.90811  1.0000
  H   H2908     1.0  0.49118  0.85380  0.51400  1.0000
  H   H2909     1.0  0.40611  0.79786  0.83350  1.0000
  H   H2910     1.0  0.26992  0.80071  0.79112  1.0000
  H   H2911     1.0  0.47735  0.93633  0.82109  1.0000
  H   H2912     1.0  0.32066  0.81436  0.50530  1.0000
  C   C1631     1.0  0.41561  0.75782  0.75212  1.0000
  H   H2913     1.0  0.26683  0.79064  0.84467  1.0000
  C   C1632     1.0  0.44986  0.97092  0.79964  1.0000
  H   H2914     1.0  0.47478  0.86400  0.59859  1.0000
  H   H2915     1.0  0.47471  0.93680  0.54312  1.0000
  H   H2916     1.0  0.29880  0.78685  0.83598  1.0000
  C   C1633     1.0  0.45345  0.76151  0.83013  1.0000
  N   N95       1.0  0.28645  0.79727  0.79567  1.0000
  H   H2917     1.0  0.28772  0.78025  0.78867  1.0000
  C   C1634     1.0  0.26443  0.77382  0.90243  1.0000
  C   C1635     1.0  0.43333  0.96201  0.84336  1.0000
  C   C1636     1.0  0.46558  0.86168  0.59721  1.0000
  H   H2918     1.0  0.29204  0.76352  0.81978  1.0000
  H   H2919     1.0  0.30719  0.81319  0.71168  1.0000
  H   H2920     1.0  0.44617  0.90144  0.95463  1.0000
  C   C1637     1.0  0.41403  0.84826  0.96684  1.0000
  H   H2921     1.0  0.44915  0.87373  0.53819  1.0000
  H   H2922     1.0  0.30289  0.79049  0.97813  1.0000
  H   H2923     1.0  0.46472  0.85051  0.52064  1.0000
  C   C1638     1.0  0.48613  0.96241  0.76634  1.0000
  N   N96       1.0  0.47667  0.97327  0.52858  1.0000
  C   C1639     1.0  0.43450  0.88504  0.95459  1.0000
  H   H2924     1.0  0.49357  0.79801  0.93119  1.0000
  H   H2925     1.0  0.33857  0.84851  0.97947  1.0000
  C   C1640     1.0  0.30922  0.75859  0.65979  1.0000
  H   H2926     1.0  0.45395  0.86340  0.52008  1.0000
  H   H2927     1.0  0.46313  0.91970  0.52228  1.0000
  H   H2928     1.0  0.42984  0.86019  0.56016  1.0000
  H   H2929     1.0  0.45242  0.75513  0.81697  1.0000
  C   C1641     1.0  0.49689  0.75768  0.64767  1.0000
  H   H2930     1.0  0.47347  0.96384  0.86429  1.0000
  H   H2931     1.0  0.46292  0.76538  0.82699  1.0000
  H   H2932     1.0  0.41716  0.96563  0.88713  1.0000
  H   H2933     1.0  0.31389  0.76567  0.73281  1.0000
  C   C1642     1.0  0.48549  0.99263  0.54054  1.0000
  C   C1643     1.0  0.44709  0.75609  0.74385  1.0000
  H   H2934     1.0  0.43346  0.86221  0.52213  1.0000
  C   C1644     1.0  0.45227  0.85868  0.56671  1.0000
  C   C1645     1.0  0.49514  0.99984  0.74064  1.0000
  H   H2935     1.0  0.46336  0.98153  0.54558  1.0000
  H   H2936     1.0  0.46896  0.87727  0.52871  1.0000
  H   H2937     1.0  0.41531  0.84173  0.95433  1.0000
  C   C1646     1.0  0.32941  0.77008  0.56112  1.0000
  C   C1647     1.0  0.49485  0.99784  0.64906  1.0000
  C   C1648     1.0  0.45550  0.75437  0.69401  1.0000
  H   H2938     1.0  0.48103  0.85717  0.55814  1.0000
  C   C1649     1.0  0.48316  0.88083  0.54750  1.0000
  C   C1650     1.0  0.48916  0.88005  0.95291  1.0000
  H   H2939     1.0  0.46822  0.84568  0.56651  1.0000
  H   H2940     1.0  0.42843  0.91997  0.49774  1.0000
  C   C1651     1.0  0.46005  0.84931  0.61817  1.0000
  C   C1652     1.0  0.46516  0.94320  0.93179  1.0000
  H   H2941     1.0  0.31076  0.84609  0.50076  1.0000
  C   C1653     1.0  0.29002  0.75609  0.63583  1.0000
  C   C1654     1.0  0.35366  0.85099  0.49926  1.0000
  C   C1655     1.0  0.26903  0.79533  0.49011  1.0000
  H   H2942     1.0  0.41674  0.76249  0.95538  1.0000
  H   H2943     1.0  0.44755  0.76553  0.73541  1.0000
  C   C1656     1.0  0.49508  0.95379  0.71160  1.0000
  H   H2944     1.0  0.48856  0.87671  0.53358  1.0000
  H   H2945     1.0  0.48427  0.89598  0.51320  1.0000
  H   H2946     1.0  0.49626  0.89751  0.52956  1.0000
  H   H2947     1.0  0.48224  0.89875  0.54805  1.0000
  H   H2948     1.0  0.47200  0.97357  0.48883  1.0000
  C   C1657     1.0  0.26408  0.75324  0.70714  1.0000
  H   H2949     1.0  0.41452  0.84199  0.51662  1.0000
  C   C1658     1.0  0.49672  0.98787  0.73714  1.0000
  H   H2950     1.0  0.46907  0.90479  0.49773  1.0000
  H   H2951     1.0  0.47724  0.76402  0.66525  1.0000
  H   H2952     1.0  0.48863  0.99878  0.76095  1.0000
  C   C1659     1.0  0.31801  0.84427  0.48599  1.0000
  H   H2953     1.0  0.25010  0.79188  0.82361  1.0000
  H   H2954     1.0  0.45555  0.76391  0.97720  1.0000
  S   S355      1.0  0.49342  0.93911  0.48449  1.0000
  C   C1660     1.0  0.25524  0.75401  0.57278  1.0000
  C   C1661     1.0  0.46555  0.91188  0.48726  1.0000
  C   C1662     1.0  0.47543  0.75427  0.67180  1.0000
  H   H2955     1.0  0.34816  0.86782  0.97952  1.0000
  H   H2956     1.0  0.45859  0.93271  0.48434  1.0000
  C   C1663     1.0  0.29107  0.75285  0.73906  1.0000
  C   C1664     1.0  0.49606  0.92712  0.86094  1.0000
  H   H2957     1.0  0.49533  0.91901  0.87749  1.0000
  H   H2958     1.0  0.25096  0.77856  0.81246  1.0000
  H   H2959     1.0  0.42730  0.92312  0.96714  1.0000
  C   C1665     1.0  0.24956  0.75845  0.52599  1.0000
  H   H2960     1.0  0.36213  0.85736  0.98000  1.0000
  C   C1666     1.0  0.25968  0.75290  0.80642  1.0000
  H   H2961     1.0  0.40477  0.84574  0.97947  1.0000
  C   C1667     1.0  0.40731  0.84110  0.48100  1.0000
  H   H2962     1.0  0.67473  0.23132  0.13059  1.0000
  H   H2963     1.0  0.69575  0.23567  0.31582  1.0000
  H   H2964     1.0  0.52916  0.12252  0.07049  1.0000
  H   H2965     1.0  0.64517  0.16223  0.47458  1.0000
  H   H2966     1.0  0.51121  0.10869  0.35144  1.0000
  H   H2967     1.0  0.57545  0.23277  0.23571  1.0000
  H   H2968     1.0  0.53158  0.13376  0.45405  1.0000
  C   C1668     1.0  0.58647  0.11904  0.40465  1.0000
  H   H2969     1.0  0.61336  0.15049  0.01110  1.0000
  H   H2970     1.0  0.65770  0.24701  0.33028  1.0000
  N   N97       1.0  0.61473  0.10920  0.37788  1.0000
  H   H2971     1.0  0.62283  0.09275  0.29894  1.0000
  H   H2972     1.0  0.61491  0.11442  0.02987  1.0000
  C   C1669     1.0  0.55775  0.13309  0.46961  1.0000
  H   H2973     1.0  0.59591  0.18239  0.01139  1.0000
  S   S356      1.0  0.51271  0.11317  0.43602  1.0000
  H   H2974     1.0  0.66713  0.21151  0.09639  1.0000
  H   H2975     1.0  0.53664  0.03684  0.07220  1.0000
  H   H2976     1.0  0.50375  0.08258  0.39514  1.0000
  H   H2977     1.0  0.51395  0.02780  0.11355  1.0000
  C   C1670     1.0  0.51327  0.08222  0.24865  1.0000
  S   S357      1.0  0.69063  0.22857  0.41310  1.0000
  C   C1671     1.0  0.61668  0.09708  0.31002  1.0000
  H   H2978     1.0  0.62581  0.12511  0.40611  1.0000
  H   H2979     1.0  0.51541  0.10903  0.21166  1.0000
  H   H2980     1.0  0.58427  0.22448  0.00663  1.0000
  H   H2981     1.0  0.60146  0.07811  0.44626  1.0000
  H   H2982     1.0  0.58974  0.12871  0.39592  1.0000
  C   C1672     1.0  0.66318  0.24354  0.34361  1.0000
  S   S358      1.0  0.59621  0.24876  0.12566  1.0000
  H   H2983     1.0  0.67255  0.19366  0.08638  1.0000
  N   N98       1.0  0.68124  0.23009  0.04552  1.0000
  H   H2984     1.0  0.64576  0.15047  0.09234  1.0000
  H   H2985     1.0  0.65784  0.23518  0.35902  1.0000
  C   C1673     1.0  0.64733  0.15827  0.04773  1.0000
  H   H2986     1.0  0.67206  0.24949  0.37395  1.0000
  H   H2987     1.0  0.50768  0.04942  0.27223  1.0000
  Fe  Fe177     1.0  0.52122  0.13452  0.33094  1.0000
  S   S359      1.0  0.52994  0.12427  0.35968  1.0000
  S   S360      1.0  0.51740  0.12653  0.29364  1.0000
  Fe  Fe178     1.0  0.52458  0.15464  0.36220  1.0000
  S   S361      1.0  0.53299  0.14519  0.39279  1.0000
  S   S362      1.0  0.52340  0.17340  0.36313  1.0000
  Fe  Fe179     1.0  0.54283  0.14124  0.35406  1.0000
  S   S363      1.0  0.56193  0.14179  0.34423  1.0000
  Fe  Fe180     1.0  0.51927  0.12892  0.39657  1.0000
  H   H2988     1.0  0.52054  0.09033  0.24232  1.0000
  S   S364      1.0  0.53520  0.15141  0.32291  1.0000
  S   S365      1.0  0.50972  0.13846  0.36833  1.0000
  H   H2989     1.0  0.54008  0.22930  0.33443  1.0000
  H   H2990     1.0  0.59489  0.17290  0.98754  1.0000
  C   C1674     1.0  0.66299  0.16171  0.43122  1.0000
  H   H2991     1.0  0.65577  0.18754  0.02118  1.0000
  H   H2992     1.0  0.65697  0.19193  0.09444  1.0000
  S   S366      1.0  0.53097  0.01116  0.13876  1.0000
  Fe  Fe181     1.0  0.51130  0.08290  0.13907  1.0000
  S   S367      1.0  0.52962  0.08075  0.13205  1.0000
  H   H2993     1.0  0.56442  0.11728  0.46838  1.0000
  Fe  Fe182     1.0  0.59206  0.09154  0.19099  1.0000
  S   S368      1.0  0.58568  0.10214  0.15761  1.0000
  S   S369      1.0  0.58989  0.07173  0.19395  1.0000
  Fe  Fe183     1.0  0.59746  0.11238  0.22012  1.0000
  S   S370      1.0  0.59092  0.12367  0.18801  1.0000
  S   S371      1.0  0.59917  0.11988  0.25948  1.0000
  Fe  Fe184     1.0  0.57643  0.10788  0.19406  1.0000
  S   S372      1.0  0.55775  0.10886  0.20163  1.0000
  Fe  Fe185     1.0  0.60086  0.11710  0.15366  1.0000
  S   S373      1.0  0.60911  0.13181  0.11211  1.0000
  S   S374      1.0  0.58204  0.09677  0.22783  1.0000
  S   S375      1.0  0.60835  0.10630  0.18533  1.0000
  Fe  Fe186     1.0  0.62599  0.15377  0.37274  1.0000
  S   S376      1.0  0.62241  0.17144  0.37415  1.0000
  S   S377      1.0  0.62915  0.14702  0.33184  1.0000
  Fe  Fe187     1.0  0.62426  0.14736  0.43781  1.0000
  S   S378      1.0  0.62015  0.16424  0.44327  1.0000
  H   H2994     1.0  0.71578  0.24869  0.99937  1.0000
  Fe  Fe188     1.0  0.60858  0.16124  0.41409  1.0000
  S   S379      1.0  0.59007  0.16293  0.42412  1.0000
  Fe  Fe189     1.0  0.63463  0.17330  0.40311  1.0000
  S   S380      1.0  0.64551  0.19178  0.40280  1.0000
  S   S381      1.0  0.61154  0.14366  0.41157  1.0000
  S   S382      1.0  0.63938  0.15626  0.39884  1.0000
  C   C1675     1.0  0.60770  0.12786  0.27860  1.0000
  C   C1676     1.0  0.60195  0.13097  0.30266  1.0000
  C   C1677     1.0  0.60830  0.13709  0.31861  1.0000
  C   C1678     1.0  0.62056  0.14006  0.31122  1.0000
  C   C1679     1.0  0.62630  0.13696  0.28717  1.0000
  C   C1680     1.0  0.61997  0.13102  0.27094  1.0000
  H   H2995     1.0  0.59249  0.12868  0.30899  1.0000
  H   H2996     1.0  0.60370  0.13940  0.33685  1.0000
  H   H2997     1.0  0.63576  0.13916  0.28101  1.0000
  H   H2998     1.0  0.62462  0.12875  0.25263  1.0000
  C   C1681     1.0  0.61037  0.13156  0.07583  1.0000
  C   C1682     1.0  0.61094  0.14195  0.05563  1.0000
  C   C1683     1.0  0.61286  0.14242  0.02631  1.0000
  H   H2999     1.0  0.50879  0.04494  0.23945  1.0000
  C   C1684     1.0  0.61366  0.12211  0.03697  1.0000
  C   C1685     1.0  0.61161  0.12160  0.06630  1.0000
  H   H3000     1.0  0.61000  0.14971  0.06275  1.0000
  H   H3001     1.0  0.56068  0.12653  0.41926  1.0000
  H   H3002     1.0  0.53267  0.16288  0.47071  1.0000
  H   H3003     1.0  0.61139  0.11362  0.08144  1.0000
  C   C1686     1.0  0.53747  0.08867  0.15115  1.0000
  C   C1687     1.0  0.53260  0.09605  0.16570  1.0000
  C   C1688     1.0  0.53886  0.10220  0.18121  1.0000
  C   C1689     1.0  0.54992  0.10078  0.18283  1.0000
  C   C1690     1.0  0.55457  0.09299  0.16937  1.0000
  C   C1691     1.0  0.54849  0.08713  0.15304  1.0000
  H   H3004     1.0  0.52395  0.09697  0.16540  1.0000
  H   H3005     1.0  0.53514  0.10807  0.19197  1.0000
  H   H3006     1.0  0.56272  0.09125  0.17202  1.0000
  H   H3007     1.0  0.55215  0.08112  0.14270  1.0000
  C   C1692     1.0  0.56265  0.04472  0.16957  1.0000
  C   C1693     1.0  0.57006  0.04102  0.18589  1.0000
  C   C1694     1.0  0.57827  0.04936  0.19314  1.0000
  C   C1695     1.0  0.57906  0.06152  0.18489  1.0000
  C   C1696     1.0  0.57135  0.06517  0.16947  1.0000
  C   C1697     1.0  0.56342  0.05688  0.16143  1.0000
  H   H3008     1.0  0.58411  0.04635  0.20513  1.0000
  H   H3009     1.0  0.57170  0.07441  0.16311  1.0000
  H   H3010     1.0  0.55789  0.05996  0.14863  1.0000
  C   C1698     1.0  0.51380  0.09259  0.34157  1.0000
  H   H3011     1.0  0.63876  0.15152  0.99542  1.0000
  H   H3012     1.0  0.64233  0.25038  0.05580  1.0000
  Fe  Fe190     1.0  0.58194  0.25252  0.34938  1.0000
  C   C1699     1.0  0.52440  0.04577  0.09200  1.0000
  H   H3013     1.0  0.50261  0.10389  0.32978  1.0000
  H   H3014     1.0  0.66515  0.19452  0.05808  1.0000
  C   C1700     1.0  0.61442  0.13254  0.01673  1.0000
  H   H3015     1.0  0.53557  0.13718  0.02333  1.0000
  H   H3016     1.0  0.53552  0.03568  0.10963  1.0000
  C   C1701     1.0  0.50978  0.11933  0.27159  1.0000
  C   C1702     1.0  0.51613  0.11683  0.24730  1.0000
  C   C1703     1.0  0.51036  0.11079  0.23022  1.0000
  C   C1704     1.0  0.61195  0.09746  0.39951  1.0000
  C   C1705     1.0  0.54983  0.18984  0.39303  1.0000
  C   C1706     1.0  0.53741  0.12843  0.02501  1.0000
  H   H3017     1.0  0.52558  0.11952  0.24164  1.0000
  C   C1707     1.0  0.54821  0.20126  0.39072  1.0000
  H   H3018     1.0  0.66076  0.21310  0.29212  1.0000
  H   H3019     1.0  0.71476  0.23441  0.99215  1.0000
  C   C1708     1.0  0.56980  0.14841  0.36537  1.0000
  C   C1709     1.0  0.56488  0.15454  0.38374  1.0000
  C   C1710     1.0  0.57116  0.15913  0.40156  1.0000
  C   C1711     1.0  0.58251  0.15786  0.40052  1.0000
  C   C1712     1.0  0.58761  0.15224  0.38116  1.0000
  C   C1713     1.0  0.58121  0.14738  0.36395  1.0000
  H   H3020     1.0  0.55633  0.15589  0.38401  1.0000
  H   H3021     1.0  0.56727  0.16374  0.41597  1.0000
  H   H3022     1.0  0.59649  0.15157  0.37944  1.0000
  H   H3023     1.0  0.58509  0.14281  0.34947  1.0000
  H   H3024     1.0  0.59290  0.11478  0.36554  1.0000
  H   H3025     1.0  0.51935  0.11976  0.04854  1.0000
  H   H3026     1.0  0.70382  0.22480  0.04285  1.0000
  H   H3027     1.0  0.65367  0.15398  0.99683  1.0000
  C   C1714     1.0  0.53711  0.12434  0.99756  1.0000
  H   H3028     1.0  0.65655  0.16312  0.04432  1.0000
  C   C1715     1.0  0.50237  0.11829  0.98678  1.0000
  H   H3029     1.0  0.50871  0.08346  0.34443  1.0000
  H   H3030     1.0  0.65732  0.22080  0.33618  1.0000
  H   H3031     1.0  0.61366  0.11554  0.33460  1.0000
  H   H3032     1.0  0.67432  0.21066  0.29851  1.0000
  H   H3033     1.0  0.51071  0.03250  0.15514  1.0000
  H   H3034     1.0  0.66329  0.23115  0.04779  1.0000
  H   H3035     1.0  0.68911  0.22068  0.31727  1.0000
  H   H3036     1.0  0.64156  0.16416  0.08583  1.0000
  H   H3037     1.0  0.60759  0.11837  0.40799  1.0000
  H   H3038     1.0  0.50973  0.02985  0.29664  1.0000
  C   C1716     1.0  0.50443  0.09948  0.02812  1.0000
  H   H3039     1.0  0.51099  0.07860  0.27210  1.0000
  C   C1717     1.0  0.67813  0.21881  0.40846  1.0000
  C   C1718     1.0  0.66759  0.22188  0.40753  1.0000
  C   C1719     1.0  0.65782  0.21361  0.40540  1.0000
  C   C1720     1.0  0.65837  0.20212  0.40395  1.0000
  C   C1721     1.0  0.66899  0.19913  0.40428  1.0000
  C   C1722     1.0  0.67871  0.20735  0.40672  1.0000
  H   H3040     1.0  0.66686  0.23055  0.40914  1.0000
  H   H3041     1.0  0.64970  0.21609  0.40526  1.0000
  H   H3042     1.0  0.66970  0.19042  0.40295  1.0000
  H   H3043     1.0  0.68676  0.20480  0.40736  1.0000
  H   H3044     1.0  0.54003  0.11607  0.00059  1.0000
  H   H3045     1.0  0.58121  0.20318  0.01204  1.0000
  C   C1723     1.0  0.51670  0.07316  0.23332  1.0000
  C   C1724     1.0  0.50716  0.03122  0.27622  1.0000
  H   H3046     1.0  0.60383  0.08548  0.47350  1.0000
  C   C1725     1.0  0.67270  0.23895  0.11747  1.0000
  H   H3047     1.0  0.56660  0.07331  0.22615  1.0000
  H   H3048     1.0  0.68586  0.21423  0.06349  1.0000
  H   H3049     1.0  0.50297  0.04650  0.18291  1.0000
  H   H3050     1.0  0.64155  0.24665  0.47873  1.0000
  H   H3051     1.0  0.55473  0.11662  0.38385  1.0000
  C   C1726     1.0  0.59400  0.11279  0.38758  1.0000
  H   H3052     1.0  0.50519  0.08405  0.45109  1.0000
  H   H3053     1.0  0.50678  0.13031  0.46762  1.0000
  H   H3054     1.0  0.66418  0.23195  0.27194  1.0000
  C   C1727     1.0  0.67047  0.23023  0.00522  1.0000
  H   H3055     1.0  0.64992  0.19951  0.33946  1.0000
  H   H3056     1.0  0.50908  0.06548  0.23931  1.0000
  H   H3057     1.0  0.70499  0.23903  0.04989  1.0000
  C   C1728     1.0  0.66719  0.20995  0.07511  1.0000
  H   H3058     1.0  0.68016  0.25035  0.31284  1.0000
  C   C1729     1.0  0.66641  0.22126  0.32468  1.0000
  C   C1730     1.0  0.51349  0.03546  0.09718  1.0000
  Fe  Fe191     1.0  0.69660  0.24835  0.41221  1.0000
  H   H3059     1.0  0.63489  0.18201  0.46526  1.0000
  H   H3060     1.0  0.58661  0.11671  0.42738  1.0000
  C   C1731     1.0  0.71499  0.23925  0.00890  1.0000
  S   S383      1.0  0.62319  0.13179  0.47444  1.0000
  C   C1732     1.0  0.68405  0.23403  0.28744  1.0000
  C   C1733     1.0  0.64741  0.15816  0.98757  1.0000
  C   C1734     1.0  0.65897  0.19943  0.32911  1.0000
  Fe  Fe192     1.0  0.56409  0.23183  0.39453  1.0000
  C   C1735     1.0  0.54236  0.18126  0.38473  1.0000
  C   C1736     1.0  0.53307  0.18393  0.37408  1.0000
  C   C1737     1.0  0.53137  0.19531  0.37205  1.0000
  C   C1738     1.0  0.53884  0.20389  0.38038  1.0000
  H   H3061     1.0  0.63714  0.18831  0.00689  1.0000
  H   H3062     1.0  0.54382  0.17259  0.38648  1.0000
  H   H3063     1.0  0.52417  0.19749  0.36411  1.0000
  H   H3064     1.0  0.53728  0.21252  0.37902  1.0000
  C   C1739     1.0  0.56501  0.12449  0.47915  1.0000
  N   N99       1.0  0.57354  0.10364  0.06344  1.0000
  C   C1740     1.0  0.57805  0.11274  0.03510  1.0000
  C   C1741     1.0  0.56978  0.10971  0.08620  1.0000
  C   C1742     1.0  0.58323  0.09798  0.06874  1.0000
  C   C1743     1.0  0.56317  0.09418  0.06370  1.0000
  C   C1744     1.0  0.55267  0.09851  0.05593  1.0000
  H   H3065     1.0  0.50781  0.05665  0.08116  1.0000
  C   C1745     1.0  0.58058  0.08882  0.09777  1.0000
  C   C1746     1.0  0.57968  0.11856  0.09208  1.0000
  C   C1747     1.0  0.57477  0.12429  0.11504  1.0000
  C   C1748     1.0  0.54347  0.08839  0.05289  1.0000
  H   H3066     1.0  0.58763  0.10325  0.00885  1.0000
  C   C1749     1.0  0.59167  0.08526  0.10225  1.0000
  H   H3067     1.0  0.52724  0.09123  0.30675  1.0000
  H   H3068     1.0  0.57195  0.11843  0.03228  1.0000
  H   H3069     1.0  0.56338  0.11468  0.08055  1.0000
  H   H3070     1.0  0.56493  0.10318  0.10669  1.0000
  H   H3071     1.0  0.59137  0.10479  0.06624  1.0000
  H   H3072     1.0  0.58561  0.09322  0.05235  1.0000
  H   H3073     1.0  0.56589  0.08860  0.04958  1.0000
  H   H3074     1.0  0.55958  0.08801  0.08534  1.0000
  H   H3075     1.0  0.55537  0.10541  0.03555  1.0000
  H   H3076     1.0  0.54839  0.10210  0.07301  1.0000
  H   H3077     1.0  0.56657  0.20213  0.00734  1.0000
  H   H3078     1.0  0.58642  0.11886  0.03445  1.0000
  H   H3079     1.0  0.57404  0.08073  0.09852  1.0000
  H   H3080     1.0  0.57711  0.09227  0.11582  1.0000
  H   H3081     1.0  0.58608  0.11410  0.09963  1.0000
  H   H3082     1.0  0.58442  0.12570  0.07265  1.0000
  H   H3083     1.0  0.57000  0.11752  0.13519  1.0000
  H   H3084     1.0  0.58207  0.13031  0.11940  1.0000
  H   H3085     1.0  0.56874  0.12944  0.10799  1.0000
  H   H3086     1.0  0.53574  0.09151  0.04905  1.0000
  H   H3087     1.0  0.54708  0.08501  0.03468  1.0000
  H   H3088     1.0  0.54052  0.08108  0.07264  1.0000
  C   C1750     1.0  0.67202  0.23412  0.03244  1.0000
  C   C1751     1.0  0.67285  0.19517  0.99286  1.0000
  H   H3089     1.0  0.59544  0.08158  0.08478  1.0000
  H   H3090     1.0  0.59830  0.09295  0.10324  1.0000
  H   H3091     1.0  0.58963  0.07844  0.12264  1.0000
  H   H3092     1.0  0.54709  0.11098  0.46247  1.0000
  C   C1752     1.0  0.54978  0.11321  0.40661  1.0000
  H   H3093     1.0  0.54802  0.13020  0.40974  1.0000
  H   H3094     1.0  0.60362  0.10184  0.35329  1.0000
  H   H3095     1.0  0.54042  0.10974  0.40757  1.0000
  H   H3096     1.0  0.62435  0.17644  0.01480  1.0000
  C   C1753     1.0  0.66868  0.25036  0.26969  1.0000
  C   C1754     1.0  0.58062  0.10794  0.00836  1.0000
  C   C1755     1.0  0.67435  0.24161  0.32540  1.0000
  C   C1756     1.0  0.53864  0.14686  0.47432  1.0000
  H   H3097     1.0  0.66946  0.23797  0.46022  1.0000
  H   H3098     1.0  0.68852  0.24321  0.27505  1.0000
  H   H3099     1.0  0.56968  0.03176  0.19232  1.0000
  C   C1757     1.0  0.54422  0.11878  0.45323  1.0000
  H   H3100     1.0  0.51847  0.07714  0.21012  1.0000
  C   C1758     1.0  0.65874  0.17708  0.98985  1.0000
  H   H3101     1.0  0.55693  0.14637  0.00083  1.0000
  N   N100      1.0  0.53118  0.05954  0.23090  1.0000
  C   C1759     1.0  0.52871  0.05908  0.20253  1.0000
  C   C1760     1.0  0.52781  0.06992  0.24012  1.0000
  C   C1761     1.0  0.54427  0.06145  0.22687  1.0000
  C   C1762     1.0  0.52524  0.04815  0.25328  1.0000
  C   C1763     1.0  0.51177  0.04411  0.25925  1.0000
  C   C1764     1.0  0.53060  0.04822  0.19180  1.0000
  C   C1765     1.0  0.54904  0.06414  0.25227  1.0000
  H   H3102     1.0  0.65473  0.22905  0.47600  1.0000
  H   H3103     1.0  0.53486  0.11529  0.45392  1.0000
  H   H3104     1.0  0.67142  0.17515  0.44792  1.0000
  C   C1766     1.0  0.53052  0.05015  0.16052  1.0000
  C   C1767     1.0  0.56228  0.06595  0.24551  1.0000
  H   H3105     1.0  0.53415  0.06708  0.18609  1.0000
  H   H3106     1.0  0.51959  0.05927  0.20241  1.0000
  H   H3107     1.0  0.52685  0.06864  0.26342  1.0000
  H   H3108     1.0  0.53494  0.07812  0.22951  1.0000
  H   H3109     1.0  0.54906  0.06888  0.20781  1.0000
  H   H3110     1.0  0.54720  0.05366  0.22249  1.0000
  H   H3111     1.0  0.52902  0.04094  0.24769  1.0000
  H   H3112     1.0  0.52702  0.04871  0.27408  1.0000
  H   H3113     1.0  0.56921  0.00856  0.46185  1.0000
  C   C1768     1.0  0.50565  0.10064  0.34879  1.0000
  H   H3114     1.0  0.53899  0.04629  0.19377  1.0000
  H   H3115     1.0  0.52350  0.04030  0.20424  1.0000
  H   H3116     1.0  0.54519  0.05678  0.27172  1.0000
  H   H3117     1.0  0.54721  0.07230  0.25708  1.0000
  H   H3118     1.0  0.52217  0.13892  0.99090  1.0000
  H   H3119     1.0  0.64711  0.14958  0.04314  1.0000
  C   C1769     1.0  0.59859  0.24929  0.98600  1.0000
  H   H3120     1.0  0.67917  0.23812  0.34074  1.0000
  H   H3121     1.0  0.51972  0.09229  0.35600  1.0000
  C   C1770     1.0  0.67899  0.21688  0.05368  1.0000
  H   H3122     1.0  0.67358  0.20391  0.99736  1.0000
  H   H3123     1.0  0.53075  0.04189  0.15403  1.0000
  H   H3124     1.0  0.52258  0.05283  0.15691  1.0000
  H   H3125     1.0  0.53828  0.05714  0.14688  1.0000
  H   H3126     1.0  0.56471  0.05783  0.24200  1.0000
  H   H3127     1.0  0.67079  0.21884  0.34191  1.0000
  H   H3128     1.0  0.56559  0.06819  0.26349  1.0000
  H   H3129     1.0  0.64654  0.13045  0.40488  1.0000
  H   H3130     1.0  0.68640  0.22975  0.08500  1.0000
  H   H3131     1.0  0.57144  0.21632  0.03461  1.0000
  C   C1771     1.0  0.57565  0.20770  0.00084  1.0000
  C   C1772     1.0  0.58597  0.22596  0.20640  1.0000
  H   H3132     1.0  0.61313  0.10429  0.43753  1.0000
  H   H3133     1.0  0.64007  0.17304  0.03766  1.0000
  H   H3134     1.0  0.55324  0.10596  0.41665  1.0000
  H   H3135     1.0  0.65843  0.19256  0.31719  1.0000
  C   C1773     1.0  0.67081  0.23649  0.08950  1.0000
  H   H3136     1.0  0.63131  0.11217  0.41377  1.0000
  H   H3137     1.0  0.61630  0.10500  0.29438  1.0000
  C   C1774     1.0  0.59595  0.25142  0.01318  1.0000
  C   C1775     1.0  0.57796  0.13089  0.47216  1.0000
  H   H3138     1.0  0.54707  0.15135  0.47739  1.0000
  C   C1776     1.0  0.50860  0.11259  0.47298  1.0000
  H   H3139     1.0  0.66783  0.22051  0.00985  1.0000
  H   H3140     1.0  0.65053  0.17609  0.44979  1.0000
  H   H3141     1.0  0.57271  0.10184  0.00676  1.0000
  H   H3142     1.0  0.50595  0.05079  0.12982  1.0000
  H   H3143     1.0  0.66465  0.24051  0.12981  1.0000
  C   C1777     1.0  0.60711  0.11701  0.38683  1.0000
  C   C1778     1.0  0.53389  0.15633  0.45825  1.0000
  S   S384      1.0  0.58380  0.23799  0.38321  1.0000
  C   C1779     1.0  0.63137  0.11985  0.39688  1.0000
  C   C1780     1.0  0.61273  0.10706  0.35008  1.0000
  C   C1781     1.0  0.58979  0.17617  0.00412  1.0000
  H   H3144     1.0  0.50441  0.04687  0.06020  1.0000
  H   H3145     1.0  0.58912  0.23130  0.24327  1.0000
  H   H3146     1.0  0.52712  0.10609  0.30776  1.0000
  C   C1782     1.0  0.64102  0.16540  0.02899  1.0000
  H   H3147     1.0  0.70153  0.22285  0.26919  1.0000
  H   H3148     1.0  0.50522  0.09219  0.04385  1.0000
  H   H3149     1.0  0.55697  0.18762  0.40119  1.0000
  C   C1783     1.0  0.70382  0.22931  0.28152  1.0000
  C   C1784     1.0  0.52831  0.11980  0.05080  1.0000
  H   H3150     1.0  0.54603  0.14249  0.43607  1.0000
  H   H3151     1.0  0.63201  0.15078  0.08396  1.0000
  H   H3152     1.0  0.56253  0.13863  0.44780  1.0000
  H   H3153     1.0  0.52948  0.11075  0.05323  1.0000
  H   H3154     1.0  0.57492  0.17544  0.98685  1.0000
  N   N101      1.0  0.57162  0.14103  0.24625  1.0000
  C   C1785     1.0  0.56866  0.12783  0.25154  1.0000
  C   C1786     1.0  0.57860  0.14658  0.21573  1.0000
  C   C1787     1.0  0.57945  0.14421  0.26516  1.0000
  C   C1788     1.0  0.56094  0.14573  0.25304  1.0000
  C   C1789     1.0  0.54955  0.13915  0.24707  1.0000
  C   C1790     1.0  0.56290  0.12081  0.28301  1.0000
  C   C1791     1.0  0.58494  0.15754  0.26042  1.0000
  C   C1792     1.0  0.57248  0.14426  0.19218  1.0000
  C   C1793     1.0  0.58071  0.15003  0.16250  1.0000
  C   C1794     1.0  0.54135  0.14716  0.24284  1.0000
  C   C1795     1.0  0.55687  0.10808  0.28515  1.0000
  C   C1796     1.0  0.59065  0.15986  0.28413  1.0000
  H   H3155     1.0  0.57671  0.12488  0.24455  1.0000
  H   H3156     1.0  0.56292  0.12478  0.23840  1.0000
  H   H3157     1.0  0.58115  0.15631  0.21153  1.0000
  H   H3158     1.0  0.58692  0.14378  0.21187  1.0000
  H   H3159     1.0  0.58681  0.13987  0.26258  1.0000
  H   H3160     1.0  0.57456  0.14079  0.28799  1.0000
  H   H3161     1.0  0.55851  0.14568  0.27600  1.0000
  H   H3162     1.0  0.56304  0.15518  0.24146  1.0000
  H   H3163     1.0  0.54480  0.13146  0.26537  1.0000
  H   H3164     1.0  0.55115  0.13572  0.22805  1.0000
  H   H3165     1.0  0.56973  0.12066  0.29499  1.0000
  H   H3166     1.0  0.55636  0.12484  0.29372  1.0000
  H   H3167     1.0  0.57824  0.16263  0.25972  1.0000
  H   H3168     1.0  0.59193  0.16095  0.24018  1.0000
  H   H3169     1.0  0.56951  0.13474  0.19393  1.0000
  H   H3170     1.0  0.56492  0.14822  0.19327  1.0000
  H   H3171     1.0  0.58870  0.14670  0.15977  1.0000
  H   H3172     1.0  0.57619  0.14794  0.14613  1.0000
  H   H3173     1.0  0.58332  0.15973  0.15886  1.0000
  H   H3174     1.0  0.53332  0.14222  0.23876  1.0000
  H   H3175     1.0  0.53875  0.15025  0.26219  1.0000
  H   H3176     1.0  0.54562  0.15486  0.22427  1.0000
  H   H3177     1.0  0.55310  0.10322  0.30787  1.0000
  H   H3178     1.0  0.54970  0.10777  0.27422  1.0000
  H   H3179     1.0  0.56327  0.10369  0.27520  1.0000
  H   H3180     1.0  0.59515  0.16934  0.27920  1.0000
  H   H3181     1.0  0.58393  0.15756  0.30464  1.0000
  H   H3182     1.0  0.59720  0.15466  0.28631  1.0000
  N   N102      1.0  0.57064  0.21467  0.28827  1.0000
  C   C1797     1.0  0.56360  0.20231  0.30418  1.0000
  C   C1798     1.0  0.56289  0.22314  0.28873  1.0000
  C   C1799     1.0  0.57519  0.21470  0.25751  1.0000
  C   C1800     1.0  0.58107  0.21869  0.29952  1.0000
  C   C1801     1.0  0.57895  0.21669  0.33219  1.0000
  C   C1802     1.0  0.57029  0.19256  0.30313  1.0000
  N   N103      1.0  0.64654  0.16916  0.99727  1.0000
  C   C1803     1.0  0.55314  0.22102  0.31623  1.0000
  C   C1804     1.0  0.54687  0.23091  0.31425  1.0000
  C   C1805     1.0  0.59056  0.21901  0.34043  1.0000
  C   C1806     1.0  0.56341  0.18095  0.32473  1.0000
  H   H3183     1.0  0.66361  0.19707  0.34573  1.0000
  H   H3184     1.0  0.55587  0.19984  0.29561  1.0000
  H   H3185     1.0  0.55975  0.20170  0.32692  1.0000
  H   H3186     1.0  0.56829  0.23233  0.28383  1.0000
  H   H3187     1.0  0.55819  0.22299  0.27163  1.0000
  H   H3188     1.0  0.56787  0.21069  0.24919  1.0000
  H   H3189     1.0  0.58154  0.20918  0.25556  1.0000
  H   H3190     1.0  0.58811  0.21444  0.29228  1.0000
  H   H3191     1.0  0.58507  0.22829  0.29028  1.0000
  H   H3192     1.0  0.57411  0.20757  0.34409  1.0000
  H   H3193     1.0  0.57415  0.22290  0.33956  1.0000
  H   H3194     1.0  0.57173  0.19087  0.28170  1.0000
  H   H3195     1.0  0.57890  0.19511  0.30780  1.0000
  H   H3196     1.0  0.59238  0.22051  0.20569  1.0000
  C   C1807     1.0  0.64128  0.15582  0.07935  1.0000
  H   H3197     1.0  0.54644  0.21271  0.31943  1.0000
  H   H3198     1.0  0.55663  0.22048  0.33517  1.0000
  H   H3199     1.0  0.55314  0.23953  0.31073  1.0000
  H   H3200     1.0  0.54255  0.23127  0.29650  1.0000
  H   H3201     1.0  0.66820  0.24408  0.07789  1.0000
  H   H3202     1.0  0.58881  0.21724  0.36397  1.0000
  H   H3203     1.0  0.59589  0.21310  0.33348  1.0000
  H   H3204     1.0  0.59557  0.22833  0.33077  1.0000
  H   H3205     1.0  0.56774  0.17385  0.32124  1.0000
  H   H3206     1.0  0.56321  0.18176  0.34667  1.0000
  H   H3207     1.0  0.55431  0.17838  0.32270  1.0000
  H   H3208     1.0  0.67401  0.24390  0.02704  1.0000
  S   S385      1.0  0.56220  0.24260  0.42710  1.0000
  C   C1808     1.0  0.50146  0.04846  0.08150  1.0000
  C   C1809     1.0  0.65997  0.18884  0.99835  1.0000
  S   S386      1.0  0.55246  0.03472  0.15821  1.0000
  S   S387      1.0  0.56241  0.24608  0.35928  1.0000
  C   C1810     1.0  0.57619  0.25099  0.00982  1.0000
  N   N104      1.0  0.67237  0.23356  0.30629  1.0000
  H   H3209     1.0  0.51452  0.03253  0.07722  1.0000
  H   H3210     1.0  0.58158  0.13450  0.44876  1.0000
  S   S388      1.0  0.52901  0.00536  0.20719  1.0000
  C   C1811     1.0  0.68219  0.23502  0.07090  1.0000
  H   H3211     1.0  0.68001  0.24687  0.11333  1.0000
  H   H3212     1.0  0.68291  0.22917  0.27099  1.0000
  H   H3213     1.0  0.65861  0.24750  0.23881  1.0000
  Fe  Fe193     1.0  0.54315  0.01489  0.16674  1.0000
  H   H3214     1.0  0.63194  0.15990  0.03326  1.0000
  C   C1812     1.0  0.57530  0.21876  0.01123  1.0000
  H   H3215     1.0  0.65769  0.24176  0.44622  1.0000
  H   H3216     1.0  0.65583  0.15348  0.43839  1.0000
  H   H3217     1.0  0.51601  0.09742  0.29561  1.0000
  H   H3218     1.0  0.50838  0.00400  0.07595  1.0000
  H   H3219     1.0  0.62964  0.12348  0.35355  1.0000
  H   H3220     1.0  0.54612  0.12880  0.02932  1.0000
  H   H3221     1.0  0.61973  0.09374  0.39722  1.0000
  C   C1813     1.0  0.69290  0.22965  0.30295  1.0000
  C   C1814     1.0  0.63177  0.18245  0.99736  1.0000
  Fe  Fe194     1.0  0.58172  0.24967  0.41283  1.0000
  N   N105      1.0  0.50183  0.03835  0.10480  1.0000
  C   C1815     1.0  0.69282  0.23495  0.02324  1.0000
  H   H3222     1.0  0.61046  0.12602  0.37221  1.0000
  H   H3223     1.0  0.70799  0.23812  0.26650  1.0000
  H   H3224     1.0  0.57601  0.18498  0.00976  1.0000
  H   H3225     1.0  0.64449  0.13560  0.36995  1.0000
  C   C1816     1.0  0.62089  0.10054  0.33486  1.0000
  C   C1817     1.0  0.53561  0.04158  0.08918  1.0000
  H   H3226     1.0  0.59857  0.09842  0.43582  1.0000
  C   C1818     1.0  0.64389  0.12761  0.38671  1.0000
  H   H3227     1.0  0.65005  0.12271  0.37807  1.0000
  H   H3228     1.0  0.60786  0.09086  0.31773  1.0000
  H   H3229     1.0  0.59037  0.23489  0.19215  1.0000
  H   H3230     1.0  0.57859  0.22206  0.19830  1.0000
  H   H3231     1.0  0.63326  0.11006  0.36578  1.0000
  C   C1819     1.0  0.62742  0.11566  0.37208  1.0000
  C   C1820     1.0  0.66540  0.19671  0.07862  1.0000
  H   H3232     1.0  0.62988  0.10637  0.32581  1.0000
  H   H3233     1.0  0.67132  0.15950  0.42295  1.0000
  H   H3234     1.0  0.59062  0.10317  0.39704  1.0000
  H   H3235     1.0  0.69308  0.23044  0.00575  1.0000
  H   H3236     1.0  0.66338  0.22867  0.09481  1.0000
  C   C1821     1.0  0.70400  0.23408  0.03361  1.0000
  H   H3237     1.0  0.67978  0.21348  0.03435  1.0000
  C   C1822     1.0  0.52149  0.09714  0.31104  1.0000
  H   H3238     1.0  0.51063  0.02544  0.26367  1.0000
  H   H3239     1.0  0.57864  0.15436  0.98883  1.0000
  C   C1823     1.0  0.66553  0.21140  0.30874  1.0000
  S   S389      1.0  0.55799  0.21168  0.40171  1.0000
  C   C1824     1.0  0.60758  0.09724  0.43138  1.0000
  C   C1825     1.0  0.66469  0.23733  0.28756  1.0000
  H   H3240     1.0  0.71023  0.22665  0.29299  1.0000
  C   C1826     1.0  0.60726  0.08549  0.45095  1.0000
  S   S390      1.0  0.50765  0.10064  0.13603  1.0000
  C   C1827     1.0  0.58112  0.18219  0.99240  1.0000
  H   H3241     1.0  0.66469  0.17227  0.99874  1.0000
  H   H3242     1.0  0.52784  0.12160  0.99669  1.0000
  H   H3243     1.0  0.52542  0.05244  0.07189  1.0000
  H   H3244     1.0  0.68810  0.24404  0.06370  1.0000
  H   H3245     1.0  0.50795  0.09685  0.40048  1.0000
  H   H3246     1.0  0.66130  0.16796  0.41361  1.0000
  H   H3247     1.0  0.65758  0.19335  0.46148  1.0000
  H   H3248     1.0  0.69388  0.24438  0.01298  1.0000
  C   C1828     1.0  0.58464  0.25201  0.02544  1.0000
  H   H3249     1.0  0.62126  0.09244  0.34977  1.0000
  H   H3250     1.0  0.57730  0.11640  0.40324  1.0000
  H   H3251     1.0  0.67716  0.19000  0.00678  1.0000
  H   H3252     1.0  0.54329  0.04924  0.08378  1.0000
  C   C1829     1.0  0.54027  0.13750  0.45743  1.0000
  H   H3253     1.0  0.58300  0.12470  0.47991  1.0000
  H   H3254     1.0  0.60503  0.09088  0.39531  1.0000
  H   H3255     1.0  0.65551  0.23557  0.30035  1.0000
  H   H3256     1.0  0.52373  0.05018  0.10949  1.0000
  H   H3257     1.0  0.54014  0.16104  0.43729  1.0000
  H   H3258     1.0  0.65968  0.21242  0.06814  1.0000
  C   C1830     1.0  0.55120  0.12315  0.42146  1.0000
  H   H3259     1.0  0.66940  0.18849  0.47109  1.0000
  H   H3260     1.0  0.61620  0.08409  0.44833  1.0000
  C   C1831     1.0  0.58150  0.22696  0.23667  1.0000
  H   H3261     1.0  0.56985  0.22377  0.00079  1.0000
  H   H3262     1.0  0.56743  0.25149  0.01911  1.0000
  C   C1832     1.0  0.65242  0.17040  0.46811  1.0000
  H   H3263     1.0  0.72286  0.23859  0.01677  1.0000
  H   H3264     1.0  0.65245  0.23164  0.01016  1.0000
  H   H3265     1.0  0.66604  0.16078  0.47237  1.0000
  H   H3266     1.0  0.57412  0.13860  0.00226  1.0000
  H   H3267     1.0  0.66424  0.21312  0.46869  1.0000
  H   H3268     1.0  0.67863  0.23364  0.98777  1.0000
  C   C1833     1.0  0.66023  0.18870  0.47991  1.0000
  H   H3269     1.0  0.67723  0.20900  0.47511  1.0000
  H   H3270     1.0  0.58497  0.16857  0.02257  1.0000
  C   C1834     1.0  0.50157  0.03329  0.15838  1.0000
  H   H3271     1.0  0.52532  0.15239  0.45479  1.0000
  N   N106      1.0  0.54520  0.12772  0.47056  1.0000
  H   H3272     1.0  0.50550  0.08458  0.24273  1.0000
  H   H3273     1.0  0.63302  0.24906  0.03193  1.0000
  H   H3274     1.0  0.66346  0.24469  0.98791  1.0000
  C   C1835     1.0  0.66099  0.23491  0.99392  1.0000
  C   C1836     1.0  0.66395  0.16723  0.45597  1.0000
  H   H3275     1.0  0.51277  0.09392  0.99221  1.0000
  C   C1837     1.0  0.50873  0.10051  0.99879  1.0000
  C   C1838     1.0  0.66013  0.23819  0.46602  1.0000
  H   H3276     1.0  0.65604  0.19476  0.98509  1.0000
  H   H3277     1.0  0.62126  0.19484  0.98924  1.0000
  H   H3278     1.0  0.60251  0.25218  0.02505  1.0000
  C   C1839     1.0  0.57465  0.14604  0.98420  1.0000
  H   H3279     1.0  0.64870  0.25248  0.01821  1.0000
  C   C1840     1.0  0.50032  0.09019  0.39906  1.0000
  C   C1841     1.0  0.57888  0.24908  0.98250  1.0000
  C   C1842     1.0  0.63883  0.17508  0.98184  1.0000
  H   H3280     1.0  0.59253  0.12456  0.98176  1.0000
  C   C1843     1.0  0.58480  0.11793  0.98105  1.0000
  H   H3281     1.0  0.50076  0.03154  0.20313  1.0000
  C   C1844     1.0  0.50012  0.04199  0.13238  1.0000
  H   H3282     1.0  0.67712  0.25197  0.25381  1.0000
  C   C1845     1.0  0.66638  0.25243  0.36049  1.0000
  C   C1846     1.0  0.58926  0.25219  0.47723  1.0000
  H   H3283     1.0  0.65129  0.25248  0.26804  1.0000
  H   H3284     1.0  0.55926  0.12765  0.98140  1.0000
  H   H3285     1.0  0.56354  0.19018  0.98126  1.0000
  C   C1847     1.0  0.54281  0.22927  0.77135  1.0000
  H   H3286     1.0  0.58738  0.11436  0.96244  1.0000
  H   H3287     1.0  0.65818  0.22450  0.81121  1.0000
  H   H3288     1.0  0.60904  0.24488  0.81370  1.0000
  S   S391      1.0  0.55895  0.24250  0.86205  1.0000
  C   C1848     1.0  0.56912  0.12935  0.74025  1.0000
  H   H3289     1.0  0.52136  0.21723  0.80528  1.0000
  C   C1849     1.0  0.53848  0.05082  0.62942  1.0000
  H   H3290     1.0  0.61115  0.08682  0.83769  1.0000
  H   H3291     1.0  0.51669  0.05600  0.69929  1.0000
  H   H3292     1.0  0.54793  0.05121  0.62642  1.0000
  H   H3293     1.0  0.60269  0.22179  0.73378  1.0000
  H   H3294     1.0  0.51399  0.00450  0.96533  1.0000
  C   C1850     1.0  0.50170  0.04287  0.63857  1.0000
  H   H3295     1.0  0.51130  0.04510  0.62965  1.0000
  C   C1851     1.0  0.61088  0.07754  0.79132  1.0000
  S   S392      1.0  0.53660  0.00978  0.62795  1.0000
  H   H3296     1.0  0.66254  0.17967  0.96644  1.0000
  H   H3297     1.0  0.63269  0.10628  0.83644  1.0000
  C   C1852     1.0  0.53046  0.20341  0.80348  1.0000
  H   H3298     1.0  0.53454  0.02868  0.57943  1.0000
  S   S393      1.0  0.68749  0.22487  0.91848  1.0000
  H   H3299     1.0  0.60416  0.15417  0.77643  1.0000
  C   C1853     1.0  0.65203  0.14803  0.94815  1.0000
  C   C1854     1.0  0.54661  0.19668  0.88586  1.0000
  C   C1855     1.0  0.58385  0.17043  0.79190  1.0000
  S   S394      1.0  0.56049  0.23502  0.92863  1.0000
  H   H3300     1.0  0.51453  0.04877  0.58179  1.0000
  H   H3301     1.0  0.54820  0.15610  0.76190  1.0000
  H   H3302     1.0  0.54356  0.13509  0.73581  1.0000
  H   H3303     1.0  0.56759  0.18940  0.91859  1.0000
  H   H3304     1.0  0.66002  0.20482  0.81080  1.0000
  H   H3305     1.0  0.68173  0.23873  0.72071  1.0000
  C   C1856     1.0  0.60433  0.06724  0.81799  1.0000
  H   H3306     1.0  0.52024  0.18616  0.80463  1.0000
  H   H3307     1.0  0.64553  0.16352  0.94369  1.0000
  C   C1857     1.0  0.61740  0.10545  0.81922  1.0000
  Fe  Fe195     1.0  0.51856  0.12955  0.83393  1.0000
  S   S395      1.0  0.52787  0.12033  0.86297  1.0000
  S   S396      1.0  0.51819  0.12161  0.79476  1.0000
  Fe  Fe196     1.0  0.52093  0.15010  0.86450  1.0000
  S   S397      1.0  0.53044  0.14184  0.89401  1.0000
  S   S398      1.0  0.51903  0.16856  0.86681  1.0000
  Fe  Fe197     1.0  0.54019  0.13786  0.85535  1.0000
  S   S399      1.0  0.55963  0.14032  0.84250  1.0000
  Fe  Fe198     1.0  0.51717  0.12494  0.89986  1.0000
  H   H3308     1.0  0.53778  0.01851  0.75103  1.0000
  S   S400      1.0  0.53163  0.14709  0.82517  1.0000
  H   H3309     1.0  0.57136  0.17899  0.94404  1.0000
  H   H3310     1.0  0.55819  0.13930  0.48332  1.0000
  H   H3311     1.0  0.56651  0.07830  0.69352  1.0000
  S   S401      1.0  0.50794  0.10008  0.63118  1.0000
  H   H3312     1.0  0.53363  0.04171  0.63107  1.0000
  C   C1858     1.0  0.61581  0.09827  0.76529  1.0000
  H   H3313     1.0  0.58461  0.23638  0.80352  1.0000
  Fe  Fe199     1.0  0.51112  0.08234  0.63215  1.0000
  S   S402      1.0  0.52949  0.08067  0.62155  1.0000
  H   H3314     1.0  0.52578  0.21162  0.83635  1.0000
  Fe  Fe200     1.0  0.59180  0.09071  0.68630  1.0000
  S   S403      1.0  0.58821  0.10138  0.64768  1.0000
  S   S404      1.0  0.58822  0.07045  0.69828  1.0000
  Fe  Fe201     1.0  0.59637  0.11226  0.71373  1.0000
  S   S405      1.0  0.59272  0.12384  0.67652  1.0000
  S   S406      1.0  0.59641  0.11814  0.75595  1.0000
  Fe  Fe202     1.0  0.57792  0.10891  0.67897  1.0000
  S   S407      1.0  0.56038  0.11251  0.67889  1.0000
  Fe  Fe203     1.0  0.60347  0.11564  0.64745  1.0000
  S   S408      1.0  0.61461  0.12980  0.60706  1.0000
  S   S409      1.0  0.58063  0.09764  0.71755  1.0000
  S   S410      1.0  0.60812  0.10457  0.68470  1.0000
  Fe  Fe204     1.0  0.62126  0.15217  0.87451  1.0000
  S   S411      1.0  0.61908  0.17058  0.87293  1.0000
  S   S412      1.0  0.62371  0.14580  0.83262  1.0000
  Fe  Fe205     1.0  0.61870  0.14706  0.94019  1.0000
  S   S413      1.0  0.61556  0.16462  0.94231  1.0000
  C   C1859     1.0  0.52881  0.21463  0.81273  1.0000
  Fe  Fe206     1.0  0.60452  0.16172  0.91210  1.0000
  S   S414      1.0  0.58727  0.16640  0.91608  1.0000
  Fe  Fe207     1.0  0.63072  0.17234  0.90319  1.0000
  S   S415      1.0  0.64154  0.19071  0.90360  1.0000
  S   S416      1.0  0.60619  0.14337  0.91322  1.0000
  S   S417      1.0  0.63433  0.15459  0.90166  1.0000
  C   C1860     1.0  0.60410  0.12612  0.77670  1.0000
  C   C1861     1.0  0.59819  0.12600  0.80449  1.0000
  C   C1862     1.0  0.60395  0.13186  0.82187  1.0000
  C   C1863     1.0  0.61578  0.13807  0.81182  1.0000
  C   C1864     1.0  0.62167  0.13813  0.78407  1.0000
  C   C1865     1.0  0.61593  0.13228  0.76670  1.0000
  H   H3315     1.0  0.58906  0.12132  0.81277  1.0000
  H   H3316     1.0  0.59920  0.13159  0.84308  1.0000
  H   H3317     1.0  0.63080  0.14282  0.77583  1.0000
  H   H3318     1.0  0.62070  0.13255  0.74553  1.0000
  C   C1866     1.0  0.61605  0.13001  0.57049  1.0000
  C   C1867     1.0  0.61920  0.14093  0.55007  1.0000
  S   S418      1.0  0.52981  0.00694  0.69747  1.0000
  N   N107      1.0  0.54440  0.13304  0.97009  1.0000
  C   C1868     1.0  0.61663  0.12040  0.53173  1.0000
  C   C1869     1.0  0.61457  0.11973  0.56114  1.0000
  H   H3319     1.0  0.62028  0.14894  0.55706  1.0000
  H   H3320     1.0  0.64365  0.25107  0.74308  1.0000
  H   H3321     1.0  0.59671  0.16103  0.61822  1.0000
  H   H3322     1.0  0.61222  0.11126  0.57649  1.0000
  C   C1870     1.0  0.53785  0.08876  0.63931  1.0000
  C   C1871     1.0  0.53267  0.09447  0.65843  1.0000
  C   C1872     1.0  0.53961  0.10163  0.67087  1.0000
  C   C1873     1.0  0.55169  0.10288  0.66475  1.0000
  C   C1874     1.0  0.55673  0.09665  0.64690  1.0000
  C   C1875     1.0  0.54986  0.08970  0.63395  1.0000
  H   H3323     1.0  0.52334  0.09343  0.66359  1.0000
  H   H3324     1.0  0.53563  0.10627  0.68504  1.0000
  H   H3325     1.0  0.56592  0.09723  0.64278  1.0000
  H   H3326     1.0  0.55387  0.08511  0.61967  1.0000
  C   C1876     1.0  0.56645  0.04207  0.66501  1.0000
  C   C1877     1.0  0.57083  0.05382  0.64843  1.0000
  C   C1878     1.0  0.57725  0.06261  0.65842  1.0000
  C   C1879     1.0  0.57965  0.05977  0.68509  1.0000
  C   C1880     1.0  0.57530  0.04801  0.70166  1.0000
  C   C1881     1.0  0.56864  0.03927  0.69193  1.0000
  H   H3327     1.0  0.58052  0.07154  0.64523  1.0000
  H   H3328     1.0  0.57710  0.04562  0.72225  1.0000
  H   H3329     1.0  0.56542  0.03032  0.70502  1.0000
  H   H3330     1.0  0.50362  0.00543  0.74096  1.0000
  H   H3331     1.0  0.53588  0.19918  0.81583  1.0000
  C   C1882     1.0  0.65637  0.20658  0.83147  1.0000
  H   H3332     1.0  0.54744  0.13414  0.92506  1.0000
  C   C1883     1.0  0.64007  0.17653  0.50508  1.0000
  H   H3333     1.0  0.54166  0.09753  0.73379  1.0000
  H   H3334     1.0  0.60778  0.07562  0.77271  1.0000
  H   H3335     1.0  0.66857  0.21461  0.50063  1.0000
  H   H3336     1.0  0.66876  0.24194  0.79166  1.0000
  H   H3337     1.0  0.65780  0.24377  0.88536  1.0000
  C   C1884     1.0  0.51047  0.11529  0.77175  1.0000
  C   C1885     1.0  0.52446  0.15478  0.95880  1.0000
  H   H3338     1.0  0.55756  0.14034  0.77982  1.0000
  S   S419      1.0  0.59318  0.24395  0.93820  1.0000
  C   C1886     1.0  0.51086  0.10590  0.73179  1.0000
  C   C1887     1.0  0.51651  0.11084  0.75057  1.0000
  H   H3339     1.0  0.65173  0.14137  0.55812  1.0000
  C   C1888     1.0  0.59617  0.16857  0.78070  1.0000
  H   H3340     1.0  0.51566  0.10249  0.71591  1.0000
  H   H3341     1.0  0.52565  0.11119  0.74865  1.0000
  C   C1889     1.0  0.56706  0.14753  0.86335  1.0000
  C   C1890     1.0  0.56206  0.15456  0.87887  1.0000
  C   C1891     1.0  0.56831  0.16045  0.89488  1.0000
  C   C1892     1.0  0.57963  0.15945  0.89510  1.0000
  C   C1893     1.0  0.58475  0.15277  0.87872  1.0000
  C   C1894     1.0  0.57840  0.14664  0.86334  1.0000
  H   H3342     1.0  0.55347  0.15557  0.87821  1.0000
  H   H3343     1.0  0.56443  0.16585  0.90688  1.0000
  H   H3344     1.0  0.59364  0.15233  0.87764  1.0000
  H   H3345     1.0  0.58229  0.14120  0.85139  1.0000
  H   H3346     1.0  0.58839  0.14972  0.78828  1.0000
  C   C1895     1.0  0.54308  0.15021  0.75180  1.0000
  C   C1896     1.0  0.53319  0.04063  0.73426  1.0000
  H   H3347     1.0  0.51441  0.04635  0.76322  1.0000
  H   H3348     1.0  0.54184  0.15561  0.73216  1.0000
  C   C1897     1.0  0.63036  0.24783  0.53627  1.0000
  H   H3349     1.0  0.59701  0.15359  0.81229  1.0000
  H   H3350     1.0  0.52357  0.13719  0.95553  1.0000
  H   H3351     1.0  0.64163  0.15607  0.54129  1.0000
  H   H3352     1.0  0.58653  0.19866  0.91195  1.0000
  H   H3353     1.0  0.61413  0.10701  0.76539  1.0000
  H   H3354     1.0  0.58014  0.21069  0.91313  1.0000
  H   H3355     1.0  0.57348  0.21080  0.80046  1.0000
  C   C1898     1.0  0.58301  0.10352  0.56726  1.0000
  H   H3356     1.0  0.65517  0.14940  0.92478  1.0000
  H   H3357     1.0  0.51203  0.12492  0.63256  1.0000
  H   H3358     1.0  0.65544  0.22123  0.84947  1.0000
  C   C1899     1.0  0.53565  0.23490  0.81483  1.0000
  H   H3359     1.0  0.59869  0.17132  0.75702  1.0000
  C   C1900     1.0  0.67454  0.21553  0.91460  1.0000
  C   C1901     1.0  0.66431  0.21921  0.91341  1.0000
  C   C1902     1.0  0.65440  0.21154  0.91004  1.0000
  C   C1903     1.0  0.65439  0.19997  0.90819  1.0000
  C   C1904     1.0  0.66456  0.19623  0.90980  1.0000
  C   C1905     1.0  0.67452  0.20395  0.91286  1.0000
  H   H3360     1.0  0.66402  0.22797  0.91517  1.0000
  H   H3361     1.0  0.64662  0.21460  0.90897  1.0000
  H   H3362     1.0  0.66483  0.18744  0.90825  1.0000
  H   H3363     1.0  0.68232  0.20092  0.91369  1.0000
  H   H3364     1.0  0.61184  0.09549  0.74865  1.0000
  H   H3365     1.0  0.54706  0.08622  0.75282  1.0000
  H   H3366     1.0  0.56199  0.12075  0.50256  1.0000
  H   H3367     1.0  0.56326  0.15455  0.96433  1.0000
  H   H3368     1.0  0.54401  0.13009  0.78743  1.0000
  C   C1906     1.0  0.51814  0.04923  0.71628  1.0000
  H   H3369     1.0  0.54702  0.18400  0.94914  1.0000
  H   H3370     1.0  0.65654  0.17409  0.53294  1.0000
  H   H3371     1.0  0.54824  0.17510  0.78227  1.0000
  H   H3372     1.0  0.50381  0.03133  0.67621  1.0000
  H   H3373     1.0  0.53751  0.24964  0.85161  1.0000
  S   S420      1.0  0.50677  0.13320  0.87175  1.0000
  H   H3374     1.0  0.54135  0.11257  0.77542  1.0000
  C   C1907     1.0  0.50202  0.12093  0.51229  1.0000
  C   C1908     1.0  0.55790  0.21685  0.79768  1.0000
  H   H3375     1.0  0.57650  0.21718  0.95784  1.0000
  H   H3376     1.0  0.57566  0.12211  0.54596  1.0000
  H   H3377     1.0  0.55769  0.11466  0.58455  1.0000
  S   S421      1.0  0.50368  0.00735  0.66308  1.0000
  H   H3378     1.0  0.65005  0.23797  0.55023  1.0000
  H   H3379     1.0  0.54993  0.10470  0.91781  1.0000
  H   H3380     1.0  0.63398  0.10309  0.76927  1.0000
  C   C1909     1.0  0.58719  0.24325  0.73187  1.0000
  C   C1910     1.0  0.61986  0.13133  0.51135  1.0000
  C   C1911     1.0  0.58747  0.14982  0.59648  1.0000
  H   H3381     1.0  0.51626  0.06127  0.74380  1.0000
  H   H3382     1.0  0.58870  0.07613  0.78595  1.0000
  H   H3383     1.0  0.53050  0.03606  0.54893  1.0000
  C   C1912     1.0  0.69273  0.23727  0.81453  1.0000
  C   C1913     1.0  0.54901  0.18605  0.88185  1.0000
  H   H3384     1.0  0.56043  0.16594  0.81008  1.0000
  C   C1914     1.0  0.54407  0.09430  0.75386  1.0000
  C   C1915     1.0  0.54058  0.17734  0.87666  1.0000
  C   C1916     1.0  0.52961  0.17910  0.87518  1.0000
  C   C1917     1.0  0.52712  0.18964  0.87962  1.0000
  C   C1918     1.0  0.53553  0.19836  0.88500  1.0000
  H   H3385     1.0  0.62989  0.10667  0.70934  1.0000
  H   H3386     1.0  0.54259  0.16929  0.87342  1.0000
  H   H3387     1.0  0.51858  0.19103  0.87913  1.0000
  H   H3388     1.0  0.53342  0.20635  0.88862  1.0000
  H   H3389     1.0  0.51406  0.19216  0.83269  1.0000
  H   H3390     1.0  0.53351  0.12515  0.94574  1.0000
  H   H3391     1.0  0.53429  0.14580  0.76642  1.0000
  H   H3392     1.0  0.62202  0.24041  0.50586  1.0000
  H   H3393     1.0  0.50268  0.09264  0.53777  1.0000
  H   H3394     1.0  0.52728  0.16071  0.97190  1.0000
  H   H3395     1.0  0.67023  0.24905  0.54678  1.0000
  C   C1919     1.0  0.65153  0.15980  0.95491  1.0000
  H   H3396     1.0  0.51489  0.15350  0.96140  1.0000
  H   H3397     1.0  0.55352  0.20959  0.79006  1.0000
  H   H3398     1.0  0.59882  0.21868  0.86909  1.0000
  C   C1920     1.0  0.58944  0.16114  0.50227  1.0000
  S   S422      1.0  0.57736  0.24691  0.57400  1.0000
  C   C1921     1.0  0.52894  0.24308  0.85700  1.0000
  H   H3399     1.0  0.55056  0.24267  0.71504  1.0000
  C   C1922     1.0  0.58210  0.24930  0.53667  1.0000
  H   H3400     1.0  0.63943  0.17926  0.52531  1.0000
  H   H3401     1.0  0.51135  0.04140  0.55591  1.0000
  H   H3402     1.0  0.52292  0.01058  0.76924  1.0000
  H   H3403     1.0  0.62488  0.09087  0.81261  1.0000
  H   H3404     1.0  0.55127  0.17183  0.93820  1.0000
  S   S423      1.0  0.51275  0.11031  0.94129  1.0000
  H   H3405     1.0  0.56347  0.22370  0.77855  1.0000
  H   H3406     1.0  0.60396  0.21109  0.92740  1.0000
  H   H3407     1.0  0.67756  0.19660  0.97023  1.0000
  C   C1923     1.0  0.66816  0.20908  0.48534  1.0000
  C   C1924     1.0  0.66078  0.19661  0.50088  1.0000
  C   C1925     1.0  0.51694  0.03106  0.58893  1.0000
  H   H3408     1.0  0.55081  0.10388  0.86234  1.0000
  C   C1926     1.0  0.55387  0.10361  0.75769  1.0000
  H   H3409     1.0  0.54806  0.11822  0.73856  1.0000
  C   C1927     1.0  0.55749  0.24307  0.72670  1.0000
  C   C1928     1.0  0.61993  0.24494  0.52285  1.0000
  C   C1929     1.0  0.54939  0.14102  0.74435  1.0000
  H   H3410     1.0  0.61572  0.23270  0.81732  1.0000
  H   H3411     1.0  0.65813  0.14405  0.95851  1.0000
  C   C1930     1.0  0.58590  0.20582  0.92286  1.0000
  H   H3412     1.0  0.65196  0.19727  0.51113  1.0000
  C   C1931     1.0  0.56589  0.21219  0.81488  1.0000
  H   H3413     1.0  0.59270  0.09059  0.76224  1.0000
  H   H3414     1.0  0.66826  0.23891  0.74418  1.0000
  C   C1932     1.0  0.57444  0.24415  0.52227  1.0000
  C   C1933     1.0  0.56790  0.19450  0.95852  1.0000
  C   C1934     1.0  0.57701  0.08684  0.79549  1.0000
  C   C1935     1.0  0.54700  0.11290  0.91748  1.0000
  H   H3415     1.0  0.59705  0.09938  0.80188  1.0000
  H   H3416     1.0  0.53588  0.22785  0.85948  1.0000
  H   H3417     1.0  0.52685  0.13809  0.57460  1.0000
  H   H3418     1.0  0.55751  0.18459  0.88238  1.0000
  C   C1936     1.0  0.62086  0.14159  0.52076  1.0000
  H   H3419     1.0  0.62705  0.23823  0.66800  1.0000
  H   H3420     1.0  0.51292  0.04065  0.71518  1.0000
  H   H3421     1.0  0.71315  0.23041  0.82032  1.0000
  H   H3422     1.0  0.64667  0.20387  0.83643  1.0000
  H   H3423     1.0  0.58043  0.14525  0.96455  1.0000
  H   H3424     1.0  0.66044  0.16569  0.94582  1.0000
  H   H3425     1.0  0.62251  0.11199  0.79903  1.0000
  C   C1937     1.0  0.60447  0.21616  0.88309  1.0000
  H   H3426     1.0  0.60827  0.06804  0.83603  1.0000
  H   H3427     1.0  0.63229  0.11799  0.72809  1.0000
  H   H3428     1.0  0.54769  0.11919  0.82548  1.0000
  C   C1938     1.0  0.55729  0.13560  0.96936  1.0000
  H   H3429     1.0  0.56107  0.20365  0.83028  1.0000
  C   C1939     1.0  0.52710  0.14286  0.96827  1.0000
  N   N108      1.0  0.58308  0.18296  0.79060  1.0000
  C   C1940     1.0  0.59215  0.19147  0.76514  1.0000
  C   C1941     1.0  0.57121  0.18390  0.78654  1.0000
  C   C1942     1.0  0.58411  0.18590  0.81822  1.0000
  C   C1943     1.0  0.59600  0.18629  0.82546  1.0000
  C   C1944     1.0  0.59238  0.20469  0.76091  1.0000
  C   C1945     1.0  0.56044  0.17525  0.80922  1.0000
  C   C1946     1.0  0.59645  0.19134  0.85112  1.0000
  C   C1947     1.0  0.60264  0.21238  0.73621  1.0000
  C   C1948     1.0  0.54909  0.17729  0.80252  1.0000
  H   H3430     1.0  0.60112  0.19089  0.76583  1.0000
  H   H3431     1.0  0.58008  0.16479  0.81404  1.0000
  H   H3432     1.0  0.57007  0.19282  0.78664  1.0000
  H   H3433     1.0  0.58180  0.19434  0.81913  1.0000
  H   H3434     1.0  0.57763  0.17924  0.83658  1.0000
  H   H3435     1.0  0.60345  0.19185  0.80765  1.0000
  H   H3436     1.0  0.59716  0.17723  0.83115  1.0000
  H   H3437     1.0  0.58429  0.20644  0.75566  1.0000
  H   H3438     1.0  0.59338  0.20763  0.78022  1.0000
  H   H3439     1.0  0.56022  0.17661  0.83069  1.0000
  H   H3440     1.0  0.60299  0.17371  0.78832  1.0000
  H   H3441     1.0  0.59634  0.20075  0.84562  1.0000
  H   H3442     1.0  0.58886  0.18646  0.86943  1.0000
  H   H3443     1.0  0.60459  0.19060  0.85765  1.0000
  H   H3444     1.0  0.61110  0.21121  0.74023  1.0000
  H   H3445     1.0  0.60182  0.21018  0.71593  1.0000
  H   H3446     1.0  0.54150  0.17165  0.81990  1.0000
  H   H3447     1.0  0.54879  0.18657  0.80101  1.0000
  C   C1949     1.0  0.63399  0.10945  0.72576  1.0000
  C   C1950     1.0  0.51266  0.05190  0.74459  1.0000
  C   C1951     1.0  0.53787  0.12229  0.50093  1.0000
  H   H3448     1.0  0.54328  0.24265  0.80966  1.0000
  H   H3449     1.0  0.59789  0.16519  0.48593  1.0000
  C   C1952     1.0  0.66491  0.24722  0.83950  1.0000
  H   H3450     1.0  0.53023  0.02224  0.78211  1.0000
  C   C1953     1.0  0.53700  0.10915  0.51421  1.0000
  C   C1954     1.0  0.53133  0.10559  0.54625  1.0000
  H   H3451     1.0  0.67424  0.23657  0.86251  1.0000
  H   H3452     1.0  0.57713  0.09625  0.79350  1.0000
  H   H3453     1.0  0.61879  0.10156  0.86314  1.0000
  H   H3454     1.0  0.57221  0.24810  0.97096  1.0000
  H   H3455     1.0  0.54090  0.12754  0.51529  1.0000
  H   H3456     1.0  0.52859  0.12261  0.50251  1.0000
  S   S424      1.0  0.58897  0.23682  0.70303  1.0000
  C   C1955     1.0  0.52472  0.02814  0.74353  1.0000
  H   H3457     1.0  0.54220  0.03951  0.72765  1.0000
  C   C1956     1.0  0.60899  0.23701  0.54512  1.0000
  C   C1957     1.0  0.65708  0.16990  0.51489  1.0000
  H   H3458     1.0  0.71425  0.24494  0.82628  1.0000
  C   C1958     1.0  0.55290  0.17803  0.95146  1.0000
  H   H3459     1.0  0.60863  0.24970  0.75430  1.0000
  H   H3460     1.0  0.53145  0.10350  0.50438  1.0000
  H   H3461     1.0  0.54563  0.10713  0.51088  1.0000
  H   H3462     1.0  0.52260  0.10750  0.55084  1.0000
  H   H3463     1.0  0.53014  0.09601  0.55490  1.0000
  H   H3464     1.0  0.53698  0.11037  0.55734  1.0000
  C   C1959     1.0  0.58938  0.08556  0.78487  1.0000
  H   H3465     1.0  0.53621  0.09202  0.77206  1.0000
  H   H3466     1.0  0.66004  0.23192  0.97460  1.0000
  H   H3467     1.0  0.52287  0.24714  0.84670  1.0000
  C   C1960     1.0  0.66047  0.21965  0.82987  1.0000
  C   C1961     1.0  0.54996  0.11500  0.75937  1.0000
  H   H3468     1.0  0.69594  0.23217  0.79965  1.0000
  H   H3469     1.0  0.54682  0.10563  0.81532  1.0000
  C   C1962     1.0  0.68236  0.23702  0.76473  1.0000
  H   H3470     1.0  0.60084  0.05399  0.79458  1.0000
  H   H3471     1.0  0.53235  0.14284  0.49550  1.0000
  H   H3472     1.0  0.59345  0.08533  0.82559  1.0000
  H   H3473     1.0  0.57136  0.08340  0.78245  1.0000
  H   H3474     1.0  0.56293  0.20106  0.95209  1.0000
  C   C1963     1.0  0.56570  0.18512  0.94164  1.0000
  H   H3475     1.0  0.52357  0.02473  0.72500  1.0000
  H   H3476     1.0  0.61586  0.11240  0.52472  1.0000
  C   C1964     1.0  0.67582  0.24237  0.84079  1.0000
  N   N109      1.0  0.65245  0.17638  0.49205  1.0000
  N   N110      1.0  0.67976  0.23612  0.81847  1.0000
  S   S425      1.0  0.60120  0.24580  0.61927  1.0000
  C   C1965     1.0  0.59636  0.15571  0.78994  1.0000
  H   H3477     1.0  0.59094  0.18904  0.74525  1.0000
  H   H3478     1.0  0.57837  0.16640  0.77913  1.0000
  H   H3479     1.0  0.57047  0.18265  0.76529  1.0000
  C   C1966     1.0  0.67370  0.22316  0.82815  1.0000
  H   H3480     1.0  0.65753  0.24060  0.83750  1.0000
  H   H3481     1.0  0.58358  0.09588  0.58343  1.0000
  H   H3482     1.0  0.57513  0.10079  0.55957  1.0000
  H   H3483     1.0  0.59096  0.10602  0.54922  1.0000
  S   S426      1.0  0.55837  0.03140  0.65085  1.0000
  H   H3484     1.0  0.56927  0.05617  0.62757  1.0000
  H   H3485     1.0  0.52943  0.03739  0.68396  1.0000
  H   H3486     1.0  0.55943  0.24176  0.76932  1.0000
  C   C1967     1.0  0.59749  0.09016  0.80286  1.0000
  H   H3487     1.0  0.67447  0.21929  0.84986  1.0000
  C   C1968     1.0  0.58214  0.11375  0.58071  1.0000
  H   H3488     1.0  0.52895  0.15901  0.93598  1.0000
  N   N111      1.0  0.61007  0.08964  0.79396  1.0000
  C   C1969     1.0  0.65129  0.24639  0.55651  1.0000
  H   H3489     1.0  0.62450  0.11679  0.84364  1.0000
  H   H3490     1.0  0.69407  0.23808  0.85786  1.0000
  H   H3491     1.0  0.67821  0.21829  0.81452  1.0000
  C   C1970     1.0  0.58184  0.12479  0.55866  1.0000
  H   H3492     1.0  0.59067  0.12772  0.54346  1.0000
  H   H3493     1.0  0.57423  0.11079  0.59867  1.0000
  Fe  Fe208     1.0  0.54627  0.01254  0.66168  1.0000
  C   C1971     1.0  0.69669  0.23321  0.84198  1.0000
  H   H3494     1.0  0.58989  0.11571  0.58931  1.0000
  H   H3495     1.0  0.59379  0.14463  0.51241  1.0000
  H   H3496     1.0  0.62017  0.07711  0.78663  1.0000
  C   C1972     1.0  0.59000  0.24791  0.97078  1.0000
  C   C1973     1.0  0.60505  0.05541  0.81193  1.0000
  H   H3497     1.0  0.53398  0.04379  0.57504  1.0000
  C   C1974     1.0  0.67794  0.24189  0.73915  1.0000
  H   H3498     1.0  0.68264  0.25155  0.78413  1.0000
  C   C1975     1.0  0.61218  0.23849  0.80270  1.0000
  H   H3499     1.0  0.57263  0.14128  0.53446  1.0000
  H   H3500     1.0  0.56456  0.13869  0.59737  1.0000
  C   C1976     1.0  0.55222  0.24119  0.75853  1.0000
  H   H3501     1.0  0.53802  0.11134  0.91440  1.0000
  Fe  Fe209     1.0  0.69384  0.24477  0.91614  1.0000
  H   H3502     1.0  0.66656  0.17061  0.50676  1.0000
  H   H3503     1.0  0.62403  0.23806  0.76480  1.0000
  H   H3504     1.0  0.58585  0.22726  0.76268  1.0000
  C   C1977     1.0  0.59066  0.15077  0.52420  1.0000
  C   C1978     1.0  0.59830  0.21436  0.91432  1.0000
  H   H3505     1.0  0.55689  0.12778  0.56083  1.0000
  H   H3506     1.0  0.69287  0.22366  0.85189  1.0000
  H   H3507     1.0  0.67925  0.22730  0.77023  1.0000
  H   H3508     1.0  0.62321  0.15001  0.50532  1.0000
  N   N112      1.0  0.57900  0.13472  0.57073  1.0000
  C   C1979     1.0  0.57879  0.14457  0.54655  1.0000
  C   C1980     1.0  0.55696  0.12383  0.58300  1.0000
  C   C1981     1.0  0.65051  0.15676  0.52837  1.0000
  H   H3509     1.0  0.57773  0.12227  0.97792  1.0000
  S   S427      1.0  0.58190  0.23451  0.87617  1.0000
  C   C1982     1.0  0.67805  0.24203  0.79022  1.0000
  H   H3510     1.0  0.58759  0.13159  0.60478  1.0000
  H   H3511     1.0  0.56923  0.21849  0.82664  1.0000
  H   H3512     1.0  0.64407  0.18074  0.96051  1.0000
  H   H3513     1.0  0.51310  0.19782  0.79675  1.0000
  N   N113      1.0  0.58053  0.20069  0.95448  1.0000
  H   H3514     1.0  0.56227  0.23630  0.72302  1.0000
  H   H3515     1.0  0.59753  0.15428  0.53420  1.0000
  H   H3516     1.0  0.59493  0.06699  0.82485  1.0000
  H   H3517     1.0  0.54569  0.21608  0.83716  1.0000
  H   H3518     1.0  0.58829  0.15750  0.57876  1.0000
  H   H3519     1.0  0.51678  0.02982  0.61178  1.0000
  H   H3520     1.0  0.65763  0.15507  0.56556  1.0000
  H   H3521     1.0  0.66566  0.15065  0.53623  1.0000
  C   C1983     1.0  0.58813  0.13867  0.58575  1.0000
  H   H3522     1.0  0.57526  0.15142  0.55487  1.0000
  C   C1984     1.0  0.58597  0.23645  0.75937  1.0000
  H   H3523     1.0  0.55725  0.07308  0.72928  1.0000
  H   H3524     1.0  0.63056  0.23939  0.55026  1.0000
  H   H3525     1.0  0.59379  0.13890  0.71345  1.0000
  H   H3526     1.0  0.58479  0.14669  0.69567  1.0000
  C   C1985     1.0  0.56719  0.13088  0.59205  1.0000
  H   H3527     1.0  0.56758  0.12545  0.61280  1.0000
  H   H3528     1.0  0.57907  0.14828  0.61255  1.0000
  H   H3529     1.0  0.53899  0.06372  0.65335  1.0000
  H   H3530     1.0  0.53302  0.04390  0.75370  1.0000
  C   C1986     1.0  0.62155  0.18276  0.50007  1.0000
  C   C1987     1.0  0.70998  0.23541  0.83546  1.0000
  H   H3531     1.0  0.63427  0.16747  0.51136  1.0000
  H   H3532     1.0  0.59701  0.14017  0.57190  1.0000
  H   H3533     1.0  0.59680  0.14579  0.62904  1.0000
  C   C1988     1.0  0.58817  0.14511  0.71492  1.0000
  H   H3534     1.0  0.55377  0.06575  0.67551  1.0000
  H   H3535     1.0  0.53739  0.05684  0.61046  1.0000
  C   C1989     1.0  0.54712  0.11625  0.94551  1.0000
  C   C1990     1.0  0.65682  0.15064  0.54826  1.0000
  H   H3536     1.0  0.59758  0.22312  0.91735  1.0000
  H   H3537     1.0  0.55474  0.23016  0.81859  1.0000
  H   H3538     1.0  0.64359  0.11071  0.71833  1.0000
  H   H3539     1.0  0.68289  0.25020  0.83939  1.0000
  H   H3540     1.0  0.51915  0.12265  0.58401  1.0000
  H   H3541     1.0  0.60680  0.20797  0.87984  1.0000
  C   C1991     1.0  0.58522  0.24157  0.78247  1.0000
  H   H3542     1.0  0.61431  0.05500  0.80570  1.0000
  H   H3543     1.0  0.59369  0.15355  0.71579  1.0000
  H   H3544     1.0  0.54525  0.12073  0.62514  1.0000
  C   C1992     1.0  0.52976  0.03520  0.57197  1.0000
  S   S428      1.0  0.55786  0.20744  0.89147  1.0000
  Fe  Fe210     1.0  0.56230  0.22708  0.89081  1.0000
  H   H3545     1.0  0.56278  0.13749  0.94708  1.0000
  C   C1993     1.0  0.52922  0.01937  0.76268  1.0000
  H   H3546     1.0  0.58215  0.13778  0.75979  1.0000
  H   H3547     1.0  0.60601  0.15497  0.59512  1.0000
  C   C1994     1.0  0.59736  0.15308  0.61055  1.0000
  C   C1995     1.0  0.54516  0.12330  0.60244  1.0000
  C   C1996     1.0  0.53383  0.05467  0.65606  1.0000
  C   C1997     1.0  0.55729  0.07517  0.70642  1.0000
  H   H3548     1.0  0.55739  0.14575  0.72711  1.0000
  H   H3549     1.0  0.57317  0.08179  0.81808  1.0000
  Fe  Fe211     1.0  0.57981  0.24333  0.91204  1.0000
  C   C1998     1.0  0.61607  0.09265  0.81631  1.0000
  C   C1999     1.0  0.57817  0.14024  0.74194  1.0000
  H   H3550     1.0  0.52463  0.05484  0.65691  1.0000
  N   N114      1.0  0.53092  0.04944  0.71086  1.0000
  Fe  Fe212     1.0  0.55891  0.25120  0.89827  1.0000
  H   H3551     1.0  0.61658  0.17346  0.50419  1.0000
  H   H3552     1.0  0.54314  0.13201  0.59797  1.0000
  H   H3553     1.0  0.57394  0.12249  0.73782  1.0000
  H   H3554     1.0  0.56863  0.11434  0.78666  1.0000
  H   H3555     1.0  0.57410  0.14750  0.74515  1.0000
  H   H3556     1.0  0.56304  0.10213  0.83723  1.0000
  H   H3557     1.0  0.53808  0.11668  0.59904  1.0000
  H   H3558     1.0  0.60041  0.04818  0.83136  1.0000
  H   H3559     1.0  0.66489  0.19313  0.51773  1.0000
  C   C2000     1.0  0.55118  0.06421  0.69900  1.0000
  C   C2001     1.0  0.55801  0.10847  0.84290  1.0000
  H   H3560     1.0  0.69207  0.23954  0.75787  1.0000
  H   H3561     1.0  0.50138  0.12547  0.97106  1.0000
  C   C2002     1.0  0.51321  0.14195  0.67575  1.0000
  H   H3562     1.0  0.55617  0.11731  0.94792  1.0000
  H   H3563     1.0  0.53484  0.06848  0.69609  1.0000
  H   H3564     1.0  0.56145  0.10557  0.73918  1.0000
  C   C2003     1.0  0.54285  0.12759  0.94582  1.0000
  H   H3565     1.0  0.61266  0.22328  0.87707  1.0000
  C   C2004     1.0  0.62374  0.10758  0.84204  1.0000
  H   H3566     1.0  0.59134  0.18843  0.94916  1.0000
  C   C2005     1.0  0.56260  0.11999  0.79132  1.0000
  H   H3567     1.0  0.56647  0.13150  0.71999  1.0000
  H   H3568     1.0  0.56791  0.12739  0.79716  1.0000
  H   H3569     1.0  0.60605  0.24156  0.56152  1.0000
  H   H3570     1.0  0.54388  0.04541  0.67973  1.0000
  H   H3571     1.0  0.55454  0.05683  0.70848  1.0000
  H   H3572     1.0  0.55293  0.08237  0.70194  1.0000
  H   H3573     1.0  0.63127  0.09185  0.75070  1.0000
  H   H3574     1.0  0.60873  0.10726  0.82548  1.0000
  H   H3575     1.0  0.53456  0.20526  0.78042  1.0000
  H   H3576     1.0  0.56385  0.11578  0.84773  1.0000
  H   H3577     1.0  0.61067  0.22862  0.55552  1.0000
  H   H3578     1.0  0.58701  0.16797  0.51263  1.0000
  C   C2006     1.0  0.62920  0.10010  0.75419  1.0000
  H   H3579     1.0  0.52913  0.23802  0.80425  1.0000
  N   N115      1.0  0.55853  0.12458  0.76542  1.0000
  H   H3580     1.0  0.53501  0.23029  0.76331  1.0000
  C   C2007     1.0  0.51007  0.04012  0.57927  1.0000
  C   C2008     1.0  0.53471  0.04622  0.68319  1.0000
  C   C2009     1.0  0.53771  0.06160  0.70975  1.0000
  H   H3581     1.0  0.52145  0.22592  0.85370  1.0000
  C   C2010     1.0  0.55284  0.11319  0.81861  1.0000
  H   H3582     1.0  0.53580  0.06321  0.73130  1.0000
  C   C2011     1.0  0.55241  0.13401  0.77071  1.0000
  H   H3583     1.0  0.64962  0.15179  0.51212  1.0000
  H   H3584     1.0  0.55298  0.11999  0.89919  1.0000
  H   H3585     1.0  0.55636  0.09971  0.77709  1.0000
  H   H3586     1.0  0.62106  0.18471  0.96713  1.0000
  H   H3587     1.0  0.65921  0.20113  0.84837  1.0000
  H   H3588     1.0  0.51595  0.02826  0.75561  1.0000
  H   H3589     1.0  0.64110  0.23605  0.50972  1.0000
  H   H3590     1.0  0.51327  0.02236  0.58565  1.0000
  C   C2012     1.0  0.62667  0.19014  0.97720  1.0000
  H   H3591     1.0  0.56577  0.23889  0.53411  1.0000
  H   H3592     1.0  0.55073  0.17293  0.97404  1.0000
  C   C2013     1.0  0.63500  0.24544  0.66442  1.0000
  C   C2014     1.0  0.54922  0.22215  0.81550  1.0000
  H   H3593     1.0  0.71254  0.23248  0.85550  1.0000
  H   H3594     1.0  0.50230  0.04567  0.67989  1.0000
  C   C2015     1.0  0.64527  0.24538  0.49757  1.0000
  H   H3595     1.0  0.64413  0.24531  0.57570  1.0000
  H   H3596     1.0  0.54523  0.14997  0.94326  1.0000
  H   H3597     1.0  0.63054  0.24416  0.71901  1.0000
  H   H3598     1.0  0.54123  0.10875  0.96294  1.0000
  H   H3599     1.0  0.64321  0.14181  0.95557  1.0000
  C   C2016     1.0  0.51873  0.19439  0.80979  1.0000
  H   H3600     1.0  0.52532  0.24077  0.88047  1.0000
  C   C2017     1.0  0.57797  0.24565  0.49264  1.0000
  C   C2018     1.0  0.50752  0.10203  0.49313  1.0000
  C   C2019     1.0  0.54042  0.14428  0.96496  1.0000
  H   H3601     1.0  0.63206  0.16837  0.97752  1.0000
  H   H3602     1.0  0.62059  0.18536  0.52045  1.0000
  S   S429      1.0  0.61774  0.13279  0.97987  1.0000
  H   H3603     1.0  0.63878  0.24906  0.64109  1.0000
  H   H3604     1.0  0.66261  0.24147  0.58320  1.0000
  C   C2020     1.0  0.50365  0.10088  0.52262  1.0000
  H   H3605     1.0  0.64159  0.24188  0.67370  1.0000
  C   C2021     1.0  0.53032  0.23199  0.84750  1.0000
  N   N116      1.0  0.53934  0.22508  0.80346  1.0000
  H   H3606     1.0  0.60180  0.23490  0.53473  1.0000
  C   C2022     1.0  0.50766  0.10986  0.97792  1.0000
  H   H3607     1.0  0.69767  0.24657  0.80444  1.0000
  H   H3608     1.0  0.63380  0.19678  0.96029  1.0000
  H   H3609     1.0  0.54601  0.22265  0.76152  1.0000
  H   H3610     1.0  0.66212  0.24272  0.50452  1.0000
  H   H3611     1.0  0.68063  0.25165  0.73290  1.0000
  C   C2023     1.0  0.58757  0.19258  0.96580  1.0000
  C   C2024     1.0  0.58093  0.21084  0.96823  1.0000
  C   C2025     1.0  0.65844  0.24594  0.48659  1.0000
  Fe  Fe213     1.0  0.57828  0.25025  0.85009  1.0000
  H   H3612     1.0  0.50956  0.09461  0.48593  1.0000
  C   C2026     1.0  0.62169  0.24487  0.77521  1.0000
  Fe  Fe214     1.0  0.52069  0.00293  0.66442  1.0000
  H   H3613     1.0  0.60467  0.23293  0.79797  1.0000
  H   H3614     1.0  0.58272  0.15820  0.49121  1.0000
  H   H3615     1.0  0.61698  0.24512  0.71204  1.0000
  H   H3616     1.0  0.54819  0.24857  0.76102  1.0000
  H   H3617     1.0  0.59010  0.21594  0.96484  1.0000
  H   H3618     1.0  0.62936  0.24940  0.78138  1.0000
  C   C2027     1.0  0.50604  0.12213  0.48277  1.0000
  C   C2028     1.0  0.62595  0.25051  0.70992  1.0000
  H   H3619     1.0  0.54258  0.14957  0.97983  1.0000
  Fe  Fe215     1.0  0.59302  0.24977  0.65997  1.0000
  C   C2029     1.0  0.66288  0.24867  0.56483  1.0000
  H   H3620     1.0  0.57917  0.13826  0.48243  1.0000
  H   H3621     1.0  0.60722  0.24842  0.97703  1.0000
  H   H3622     1.0  0.50061  0.05295  0.53940  1.0000
  H   H3623     1.0  0.61775  0.18838  0.48574  1.0000
  H   H3624     1.0  0.52135  0.14041  0.66382  1.0000
  C   C2030     1.0  0.63445  0.18433  0.48581  1.0000
  H   H3625     1.0  0.59529  0.19777  0.97072  1.0000
  H   H3626     1.0  0.51712  0.14050  0.62319  1.0000
  C   C2031     1.0  0.56245  0.14621  0.98025  1.0000
  C   C2032     1.0  0.66071  0.25129  0.86610  1.0000
  H   H3627     1.0  0.56379  0.25186  0.71792  1.0000
  H   H3628     1.0  0.51736  0.13266  0.55388  1.0000
  H   H3629     1.0  0.51526  0.13249  0.71608  1.0000
  C   C2033     1.0  0.51856  0.13178  0.57575  1.0000
  H   H3630     1.0  0.52217  0.14799  0.70582  1.0000
  H   H3631     1.0  0.49972  0.12826  0.51955  1.0000
  C   C2034     1.0  0.50066  0.11027  0.53240  1.0000
  C   C2035     1.0  0.50815  0.13429  0.59467  1.0000
  C   C2036     1.0  0.50943  0.13322  0.62541  1.0000
  C   C2037     1.0  0.51431  0.14129  0.70612  1.0000
  H   H3632     1.0  0.51270  0.15098  0.66623  1.0000
  C   C2038     1.0  0.49941  0.04982  0.74958  1.0000
  H   H3633     1.0  0.50790  0.14340  0.58497  1.0000
  S   S430      1.0  0.70272  0.25183  0.94753  1.0000
  H   H3634     1.0  0.57205  0.24156  0.48181  1.0000
  H   H3635     1.0  0.50402  0.12379  0.68252  1.0000
  H   H3636     1.0  0.50384  0.15249  0.62865  1.0000
  H   H3637     1.0  0.50650  0.14293  0.71936  1.0000
  H   H3638     1.0  0.50017  0.12808  0.59407  1.0000
  C   C2039     1.0  0.50234  0.13258  0.67541  1.0000
  H   H3639     1.0  0.55400  0.25139  0.48200  1.0000
  H   H3640     1.0  0.63893  0.19379  0.48128  1.0000
  C   C2040     1.0  0.64880  0.28457  0.13043  1.0000
  H   H3641     1.0  0.66315  0.26257  0.23988  1.0000
  C   C2041     1.0  0.73388  0.46027  0.32173  1.0000
  H   H3642     1.0  0.60287  0.38789  0.23486  1.0000
  H   H3643     1.0  0.66372  0.25497  0.47541  1.0000
  C   C2042     1.0  0.54026  0.48193  0.99061  1.0000
  H   H3644     1.0  0.51602  0.40320  0.29823  1.0000
  H   H3645     1.0  0.67393  0.43143  0.45921  1.0000
  Fe  Fe216     1.0  0.59085  0.34729  0.37005  1.0000
  S   S431      1.0  0.60219  0.34553  0.32974  1.0000
  H   H3646     1.0  0.60559  0.26258  0.47974  1.0000
  S   S432      1.0  0.57149  0.34472  0.37793  1.0000
  C   C2043     1.0  0.58969  0.25707  0.27471  1.0000
  S   S433      1.0  0.72014  0.46061  0.40063  1.0000
  S   S434      1.0  0.69390  0.46455  0.41830  1.0000
  Fe  Fe217     1.0  0.70873  0.46330  0.43908  1.0000
  Fe  Fe218     1.0  0.71740  0.27040  0.40683  1.0000
  Fe  Fe219     1.0  0.70617  0.46363  0.37840  1.0000
  S   S435      1.0  0.70239  0.45108  0.35082  1.0000
  Fe  Fe220     1.0  0.62074  0.37803  0.12862  1.0000
  S   S436      1.0  0.60140  0.37656  0.13544  1.0000
  S   S437      1.0  0.63314  0.39623  0.11798  1.0000
  Fe  Fe221     1.0  0.61708  0.35166  0.14340  1.0000
  S   S438      1.0  0.59768  0.34822  0.15216  1.0000
  S   S439      1.0  0.62393  0.33559  0.15149  1.0000
  Fe  Fe222     1.0  0.60107  0.36237  0.11198  1.0000
  S   S440      1.0  0.58789  0.35832  0.08611  1.0000
  Fe  Fe223     1.0  0.59958  0.36245  0.17472  1.0000
  S   S441      1.0  0.58673  0.36086  0.21619  1.0000
  S   S442      1.0  0.62062  0.36500  0.10150  1.0000
  S   S443      1.0  0.61882  0.36479  0.16948  1.0000
  Fe  Fe224     1.0  0.68609  0.44964  0.14328  1.0000
  S   S444      1.0  0.69173  0.43293  0.14527  1.0000
  S   S445      1.0  0.68377  0.46029  0.10219  1.0000
  Fe  Fe225     1.0  0.68568  0.44832  0.20642  1.0000
  S   S446      1.0  0.69116  0.43134  0.21251  1.0000
  S   S447      1.0  0.68323  0.45886  0.23954  1.0000
  Fe  Fe226     1.0  0.70384  0.43994  0.16979  1.0000
  S   S448      1.0  0.72291  0.44068  0.15539  1.0000
  Fe  Fe227     1.0  0.67837  0.42604  0.18716  1.0000
  S   S449      1.0  0.66713  0.40748  0.19659  1.0000
  S   S450      1.0  0.69921  0.45720  0.16501  1.0000
  S   S451      1.0  0.67184  0.44239  0.18417  1.0000
  H   H3647     1.0  0.74237  0.31297  0.99022  1.0000
  Fe  Fe228     1.0  0.60342  0.28267  0.09862  1.0000
  S   S452      1.0  0.60572  0.30186  0.07912  1.0000
  C   C2044     1.0  0.72892  0.29208  0.19728  1.0000
  S   S453      1.0  0.74718  0.48605  0.36887  1.0000
  H   H3648     1.0  0.64745  0.48061  0.37057  1.0000
  Fe  Fe229     1.0  0.52571  0.48845  0.12414  1.0000
  S   S454      1.0  0.53320  0.47298  0.13206  1.0000
  H   H3649     1.0  0.55655  0.48925  0.23840  1.0000
  C   C2045     1.0  0.72499  0.47919  0.28685  1.0000
  H   H3650     1.0  0.55230  0.39033  0.00559  1.0000
  Fe  Fe230     1.0  0.54965  0.45190  0.38580  1.0000
  H   H3651     1.0  0.50310  0.49311  0.21326  1.0000
  S   S455      1.0  0.56623  0.46615  0.36540  1.0000
  H   H3652     1.0  0.55953  0.32779  0.20667  1.0000
  Fe  Fe231     1.0  0.61378  0.26204  0.11079  1.0000
  H   H3653     1.0  0.61588  0.39046  0.17319  1.0000
  Fe  Fe232     1.0  0.52869  0.43810  0.37247  1.0000
  C   C2046     1.0  0.52241  0.44279  0.30393  1.0000
  H   H3654     1.0  0.56098  0.34225  0.18478  1.0000
  H   H3655     1.0  0.60456  0.28355  0.28095  1.0000
  S   S456      1.0  0.54668  0.43538  0.37086  1.0000
  C   C2047     1.0  0.70168  0.26769  0.30445  1.0000
  C   C2048     1.0  0.57846  0.48654  0.42654  1.0000
  C   C2049     1.0  0.56729  0.47882  0.43476  1.0000
  C   C2050     1.0  0.56337  0.47267  0.41592  1.0000
  C   C2051     1.0  0.57070  0.47408  0.38900  1.0000
  C   C2052     1.0  0.58178  0.48190  0.38069  1.0000
  C   C2053     1.0  0.58561  0.48822  0.39928  1.0000
  H   H3656     1.0  0.63291  0.28033  0.11734  1.0000
  S   S457      1.0  0.60844  0.27403  0.13733  1.0000
  H   H3657     1.0  0.58747  0.48299  0.35996  1.0000
  H   H3658     1.0  0.59410  0.49436  0.39247  1.0000
  S   S458      1.0  0.53213  0.45526  0.38450  1.0000
  H   H3659     1.0  0.53616  0.48946  0.98760  1.0000
  H   H3660     1.0  0.72771  0.43861  0.25169  1.0000
  H   H3661     1.0  0.71301  0.46290  0.20835  1.0000
  H   H3662     1.0  0.56448  0.38823  0.31568  1.0000
  H   H3663     1.0  0.72188  0.43124  0.10382  1.0000
  C   C2054     1.0  0.73190  0.44161  0.22910  1.0000
  H   H3664     1.0  0.57292  0.33817  0.14354  1.0000
  H   H3665     1.0  0.62051  0.25798  0.17639  1.0000
  S   S459      1.0  0.52536  0.45267  0.08897  1.0000
  H   H3666     1.0  0.58572  0.31163  0.08619  1.0000
  S   S460      1.0  0.69702  0.29141  0.17671  1.0000
  H   H3667     1.0  0.55053  0.30861  0.18569  1.0000
  H   H3668     1.0  0.51987  0.49844  0.24217  1.0000
  H   H3669     1.0  0.53741  0.29569  0.16537  1.0000
  C   C2055     1.0  0.56688  0.39683  0.29954  1.0000
  C   C2056     1.0  0.71696  0.40940  0.22957  1.0000
  Fe  Fe233     1.0  0.59220  0.25955  0.08766  1.0000
  C   C2057     1.0  0.73070  0.44377  0.18019  1.0000
  H   H3670     1.0  0.56006  0.47041  0.10663  1.0000
  C   C2058     1.0  0.72522  0.44040  0.20936  1.0000
  S   S461      1.0  0.55071  0.26994  0.39581  1.0000
  H   H3671     1.0  0.71591  0.43646  0.21677  1.0000
  C   C2059     1.0  0.64201  0.39919  0.14125  1.0000
  C   C2060     1.0  0.64648  0.41087  0.14166  1.0000
  C   C2061     1.0  0.65432  0.41354  0.15822  1.0000
  C   C2062     1.0  0.65756  0.40450  0.17495  1.0000
  C   C2063     1.0  0.65284  0.39280  0.17519  1.0000
  C   C2064     1.0  0.64517  0.39016  0.15825  1.0000
  H   H3672     1.0  0.64393  0.41791  0.12902  1.0000
  H   H3673     1.0  0.65778  0.42258  0.15818  1.0000
  H   H3674     1.0  0.65528  0.38577  0.18817  1.0000
  H   H3675     1.0  0.64192  0.38114  0.15790  1.0000
  C   C2065     1.0  0.61910  0.32630  0.13098  1.0000
  C   C2066     1.0  0.61999  0.31467  0.13697  1.0000
  C   C2067     1.0  0.61607  0.30716  0.12082  1.0000
  C   C2068     1.0  0.61121  0.31126  0.09867  1.0000
  C   C2069     1.0  0.61043  0.32294  0.09244  1.0000
  C   C2070     1.0  0.61426  0.33042  0.10878  1.0000
  H   H3676     1.0  0.62358  0.31140  0.15432  1.0000
  H   H3677     1.0  0.61688  0.29826  0.12544  1.0000
  H   H3678     1.0  0.60676  0.32620  0.07519  1.0000
  H   H3679     1.0  0.61353  0.33939  0.10398  1.0000
  C   C2071     1.0  0.69874  0.45191  0.01828  1.0000
  C   C2072     1.0  0.69926  0.44503  0.04417  1.0000
  C   C2073     1.0  0.69480  0.44763  0.06983  1.0000
  C   C2074     1.0  0.68977  0.45712  0.06995  1.0000
  C   C2075     1.0  0.68943  0.46415  0.04391  1.0000
  C   C2076     1.0  0.69392  0.46157  0.01811  1.0000
  H   H3680     1.0  0.70307  0.43761  0.04441  1.0000
  H   H3681     1.0  0.69523  0.44222  0.08946  1.0000
  H   H3682     1.0  0.68571  0.47161  0.04364  1.0000
  H   H3683     1.0  0.64665  0.28958  0.99147  1.0000
  C   C2077     1.0  0.69708  0.45355  0.31990  1.0000
  C   C2078     1.0  0.69229  0.46304  0.31223  1.0000
  C   C2079     1.0  0.68812  0.46458  0.28751  1.0000
  C   C2080     1.0  0.68877  0.45672  0.27015  1.0000
  C   C2081     1.0  0.69370  0.44732  0.27769  1.0000
  C   C2082     1.0  0.69776  0.44572  0.30250  1.0000
  H   H3684     1.0  0.69170  0.46910  0.32547  1.0000
  H   H3685     1.0  0.68432  0.47187  0.28185  1.0000
  H   H3686     1.0  0.69428  0.44122  0.26456  1.0000
  H   H3687     1.0  0.70147  0.43836  0.30823  1.0000
  H   H3688     1.0  0.71958  0.45723  0.25085  1.0000
  S   S462      1.0  0.68705  0.26620  0.16102  1.0000
  C   C2083     1.0  0.56112  0.38560  0.39652  1.0000
  H   H3689     1.0  0.63651  0.41744  0.21650  1.0000
  C   C2084     1.0  0.56947  0.50047  0.07546  1.0000
  H   H3690     1.0  0.72374  0.44196  0.33749  1.0000
  H   H3691     1.0  0.74373  0.38032  0.06943  1.0000
  H   H3692     1.0  0.57777  0.41803  0.39599  1.0000
  H   H3693     1.0  0.71033  0.46533  0.09528  1.0000
  C   C2085     1.0  0.58046  0.38333  0.02869  1.0000
  C   C2086     1.0  0.59775  0.34972  0.29838  1.0000
  C   C2087     1.0  0.60469  0.34940  0.27234  1.0000
  C   C2088     1.0  0.60142  0.35288  0.24697  1.0000
  C   C2089     1.0  0.59112  0.35657  0.24755  1.0000
  C   C2090     1.0  0.58410  0.35670  0.27363  1.0000
  C   C2091     1.0  0.58742  0.35332  0.29896  1.0000
  H   H3694     1.0  0.61258  0.34641  0.27173  1.0000
  H   H3695     1.0  0.60679  0.35252  0.22708  1.0000
  H   H3696     1.0  0.57611  0.35952  0.27422  1.0000
  H   H3697     1.0  0.58202  0.35363  0.31883  1.0000
  C   C2092     1.0  0.51068  0.47986  0.25023  1.0000
  H   H3698     1.0  0.60935  0.29712  0.29005  1.0000
  C   C2093     1.0  0.58254  0.35393  0.03758  1.0000
  C   C2094     1.0  0.59157  0.35763  0.05019  1.0000
  C   C2095     1.0  0.60316  0.36087  0.03387  1.0000
  H   H3699     1.0  0.71257  0.47783  0.06562  1.0000
  H   H3700     1.0  0.74620  0.46093  0.09576  1.0000
  H   H3701     1.0  0.57355  0.35144  0.05004  1.0000
  H   H3702     1.0  0.61017  0.36375  0.04329  1.0000
  C   C2096     1.0  0.74180  0.32734  0.13450  1.0000
  H   H3703     1.0  0.71973  0.31372  0.46645  1.0000
  H   H3704     1.0  0.61384  0.31100  0.32670  1.0000
  S   S463      1.0  0.59468  0.25723  0.30567  1.0000
  C   C2097     1.0  0.59302  0.32152  0.25062  1.0000
  C   C2098     1.0  0.61069  0.38749  0.21925  1.0000
  H   H3705     1.0  0.57846  0.30028  0.19316  1.0000
  H   H3706     1.0  0.73000  0.42625  0.07603  1.0000
  H   H3707     1.0  0.54392  0.35483  0.01384  1.0000
  C   C2099     1.0  0.72920  0.47079  0.03130  1.0000
  C   C2100     1.0  0.54957  0.40012  0.42380  1.0000
  N   N117      1.0  0.66997  0.41323  0.06175  1.0000
  C   C2101     1.0  0.66118  0.42054  0.06440  1.0000
  C   C2102     1.0  0.66353  0.40046  0.06775  1.0000
  C   C2103     1.0  0.67632  0.41421  0.08478  1.0000
  C   C2104     1.0  0.67885  0.41721  0.03309  1.0000
  H   H3708     1.0  0.66052  0.39909  0.02634  1.0000
  C   C2105     1.0  0.66608  0.43341  0.06515  1.0000
  C   C2106     1.0  0.68464  0.40605  0.08863  1.0000
  C   C2107     1.0  0.65537  0.39739  0.04864  1.0000
  C   C2108     1.0  0.64902  0.38432  0.05834  1.0000
  H   H3709     1.0  0.70540  0.26709  0.98847  1.0000
  C   C2109     1.0  0.65701  0.44054  0.06320  1.0000
  C   C2110     1.0  0.69186  0.40919  0.10917  1.0000
  H   H3710     1.0  0.65406  0.41632  0.08415  1.0000
  H   H3711     1.0  0.65659  0.42079  0.04724  1.0000
  H   H3712     1.0  0.66979  0.39488  0.06545  1.0000
  H   H3713     1.0  0.65818  0.39726  0.09031  1.0000
  H   H3714     1.0  0.66992  0.41242  0.10583  1.0000
  H   H3715     1.0  0.68176  0.42332  0.08057  1.0000
  H   H3716     1.0  0.68653  0.42409  0.03323  1.0000
  H   H3717     1.0  0.68257  0.40981  0.02870  1.0000
  C   C2111     1.0  0.58508  0.35334  0.00900  1.0000
  H   H3718     1.0  0.50869  0.43150  0.29303  1.0000
  H   H3719     1.0  0.66842  0.43361  0.08558  1.0000
  H   H3720     1.0  0.67399  0.43783  0.04741  1.0000
  H   H3721     1.0  0.69075  0.40677  0.06799  1.0000
  H   H3722     1.0  0.67955  0.39675  0.09794  1.0000
  H   H3723     1.0  0.64858  0.40238  0.04953  1.0000
  C   C2112     1.0  0.55106  0.35541  0.99510  1.0000
  H   H3724     1.0  0.65535  0.37881  0.05608  1.0000
  H   H3725     1.0  0.64396  0.38195  0.08096  1.0000
  H   H3726     1.0  0.64284  0.38234  0.04520  1.0000
  H   H3727     1.0  0.74342  0.46795  0.47298  1.0000
  H   H3728     1.0  0.74664  0.29798  0.01628  1.0000
  H   H3729     1.0  0.67471  0.48823  0.02300  1.0000
  H   H3730     1.0  0.51453  0.41004  0.47838  1.0000
  N   N118      1.0  0.74831  0.41320  0.18224  1.0000
  H   H3731     1.0  0.63451  0.26807  0.23040  1.0000
  H   H3732     1.0  0.68602  0.40830  0.13038  1.0000
  H   H3733     1.0  0.69762  0.40313  0.11193  1.0000
  H   H3734     1.0  0.69744  0.41834  0.10075  1.0000
  C   C2113     1.0  0.56167  0.47384  0.08332  1.0000
  C   C2114     1.0  0.55962  0.46312  0.07123  1.0000
  H   H3735     1.0  0.56087  0.46585  0.04788  1.0000
  H   H3736     1.0  0.56567  0.45759  0.07607  1.0000
  H   H3737     1.0  0.55053  0.45767  0.08105  1.0000
  N   N119      1.0  0.63626  0.28685  0.22053  1.0000
  C   C2115     1.0  0.64476  0.28775  0.23896  1.0000
  C   C2116     1.0  0.65385  0.49477  0.42977  1.0000
  H   H3738     1.0  0.61862  0.28875  0.22276  1.0000
  C   C2117     1.0  0.64006  0.29689  0.19397  1.0000
  C   C2118     1.0  0.64157  0.30943  0.19835  1.0000
  C   C2119     1.0  0.65774  0.28892  0.22418  1.0000
  C   C2120     1.0  0.62280  0.29296  0.26055  1.0000
  H   H3739     1.0  0.56214  0.27264  0.45706  1.0000
  H   H3740     1.0  0.53441  0.48588  0.24185  1.0000
  C   C2121     1.0  0.64806  0.31873  0.17049  1.0000
  C   C2122     1.0  0.66541  0.28971  0.24501  1.0000
  H   H3741     1.0  0.57248  0.29060  0.45713  1.0000
  H   H3742     1.0  0.64187  0.27992  0.25769  1.0000
  H   H3743     1.0  0.64482  0.29541  0.24812  1.0000
  N   N120      1.0  0.58568  0.39314  0.45696  1.0000
  H   H3744     1.0  0.56757  0.47363  0.16539  1.0000
  H   H3745     1.0  0.62359  0.47756  0.98149  1.0000
  H   H3746     1.0  0.64456  0.27602  0.19712  1.0000
  H   H3747     1.0  0.64835  0.29647  0.18000  1.0000
  H   H3748     1.0  0.63363  0.29606  0.18091  1.0000
  H   H3749     1.0  0.64664  0.31082  0.21409  1.0000
  H   H3750     1.0  0.63283  0.31105  0.20549  1.0000
  H   H3751     1.0  0.65877  0.28125  0.21573  1.0000
  H   H3752     1.0  0.66126  0.29702  0.20639  1.0000
  H   H3753     1.0  0.63524  0.25934  0.17978  1.0000
  H   H3754     1.0  0.73371  0.38199  0.16258  1.0000
  H   H3755     1.0  0.62596  0.28880  0.27867  1.0000
  H   H3756     1.0  0.62787  0.30225  0.25230  1.0000
  C   C2123     1.0  0.65984  0.25335  0.25317  1.0000
  S   S464      1.0  0.70392  0.44789  0.98690  1.0000
  H   H3757     1.0  0.60661  0.29746  0.25553  1.0000
  H   H3758     1.0  0.64835  0.32765  0.17370  1.0000
  H   H3759     1.0  0.65717  0.31801  0.16341  1.0000
  H   H3760     1.0  0.64357  0.31772  0.15342  1.0000
  H   H3761     1.0  0.66265  0.28157  0.26271  1.0000
  H   H3762     1.0  0.67464  0.29079  0.23362  1.0000
  H   H3763     1.0  0.66496  0.29742  0.25387  1.0000
  H   H3764     1.0  0.67479  0.43188  0.00584  1.0000
  H   H3765     1.0  0.59596  0.33138  0.99730  1.0000
  C   C2124     1.0  0.55348  0.49557  0.32331  1.0000
  H   H3766     1.0  0.54478  0.47169  0.02660  1.0000
  H   H3767     1.0  0.57229  0.40357  0.30707  1.0000
  C   C2125     1.0  0.59192  0.30395  0.98140  1.0000
  H   H3768     1.0  0.52841  0.38590  0.32809  1.0000
  H   H3769     1.0  0.70905  0.30682  0.41966  1.0000
  H   H3770     1.0  0.55755  0.45193  0.47650  1.0000
  S   S465      1.0  0.58041  0.25341  0.06060  1.0000
  C   C2126     1.0  0.62791  0.47785  0.99917  1.0000
  C   C2127     1.0  0.68258  0.43074  0.46278  1.0000
  C   C2128     1.0  0.72031  0.30492  0.46351  1.0000
  H   H3771     1.0  0.73361  0.48454  0.06691  1.0000
  H   H3772     1.0  0.62226  0.48257  0.37332  1.0000
  H   H3773     1.0  0.55774  0.29725  0.19406  1.0000
  H   H3774     1.0  0.59188  0.31051  0.02011  1.0000
  H   H3775     1.0  0.66033  0.47473  0.09975  1.0000
  H   H3776     1.0  0.73308  0.44680  0.35892  1.0000
  H   H3777     1.0  0.67109  0.26120  0.34586  1.0000
  S   S466      1.0  0.50659  0.45713  0.16268  1.0000
  C   C2129     1.0  0.73279  0.46445  0.00801  1.0000
  N   N121      1.0  0.57751  0.49252  0.08035  1.0000
  S   S467      1.0  0.68390  0.25965  0.41190  1.0000
  H   H3778     1.0  0.73650  0.43945  0.43698  1.0000
  C   C2130     1.0  0.60568  0.36048  0.00514  1.0000
  C   C2131     1.0  0.54829  0.25755  0.48057  1.0000
  C   C2132     1.0  0.66896  0.46009  0.98269  1.0000
  H   H3779     1.0  0.74068  0.44679  0.39954  1.0000
  H   H3780     1.0  0.71699  0.33134  0.19194  1.0000
  H   H3781     1.0  0.62302  0.25303  0.21092  1.0000
  C   C2133     1.0  0.51575  0.43943  0.28543  1.0000
  C   C2134     1.0  0.59601  0.31338  0.99698  1.0000
  H   H3782     1.0  0.68162  0.29564  0.08219  1.0000
  H   H3783     1.0  0.68302  0.48861  0.31962  1.0000
  C   C2135     1.0  0.65837  0.48482  0.43385  1.0000
  H   H3784     1.0  0.70858  0.25725  0.27809  1.0000
  C   C2136     1.0  0.52992  0.44388  0.01327  1.0000
  H   H3785     1.0  0.67384  0.47817  0.42847  1.0000
  C   C2137     1.0  0.53412  0.45969  0.26532  1.0000
  C   C2138     1.0  0.55496  0.38146  0.42521  1.0000
  C   C2139     1.0  0.54416  0.48082  0.01864  1.0000
  H   H3786     1.0  0.70608  0.48918  0.29013  1.0000
  H   H3787     1.0  0.56847  0.39405  0.02660  1.0000
  H   H3788     1.0  0.57462  0.29779  0.03460  1.0000
  H   H3789     1.0  0.65478  0.46291  0.01198  1.0000
  H   H3790     1.0  0.62000  0.40451  0.21901  1.0000
  C   C2140     1.0  0.73244  0.44743  0.33677  1.0000
  H   H3791     1.0  0.62915  0.39639  0.20345  1.0000
  C   C2141     1.0  0.53524  0.48331  0.04179  1.0000
  H   H3792     1.0  0.60680  0.39089  0.36717  1.0000
  H   H3793     1.0  0.59842  0.32786  0.20452  1.0000
  C   C2142     1.0  0.52712  0.39605  0.37387  1.0000
  H   H3794     1.0  0.73629  0.32384  0.46786  1.0000
  C   C2143     1.0  0.65871  0.47998  0.05645  1.0000
  H   H3795     1.0  0.64112  0.27006  0.00671  1.0000
  C   C2144     1.0  0.65358  0.27400  0.03273  1.0000
  C   C2145     1.0  0.51611  0.39535  0.31440  1.0000
  C   C2146     1.0  0.55594  0.40049  0.29420  1.0000
  C   C2147     1.0  0.66546  0.48887  0.02738  1.0000
  C   C2148     1.0  0.74273  0.44898  0.17076  1.0000
  H   H3796     1.0  0.73690  0.33124  0.99545  1.0000
  C   C2149     1.0  0.63600  0.27556  0.21144  1.0000
  H   H3797     1.0  0.55835  0.48217  0.17944  1.0000
  H   H3798     1.0  0.53257  0.39357  0.29175  1.0000
  Fe  Fe234     1.0  0.69281  0.26814  0.44090  1.0000
  H   H3799     1.0  0.56263  0.28424  0.08006  1.0000
  H   H3800     1.0  0.50869  0.45829  0.05595  1.0000
  H   H3801     1.0  0.72736  0.45524  0.01456  1.0000
  C   C2150     1.0  0.73838  0.30564  0.47847  1.0000
  H   H3802     1.0  0.66584  0.49029  0.08322  1.0000
  S   S468      1.0  0.53080  0.46551  0.21160  1.0000
  H   H3803     1.0  0.58644  0.32743  0.11075  1.0000
  H   H3804     1.0  0.74436  0.31264  0.24166  1.0000
  H   H3805     1.0  0.59309  0.39945  0.39475  1.0000
  H   H3806     1.0  0.73919  0.40348  0.15755  1.0000
  H   H3807     1.0  0.71960  0.28166  0.32623  1.0000
  S   S469      1.0  0.69339  0.28179  0.33693  1.0000
  C   C2151     1.0  0.56663  0.48273  0.16396  1.0000
  H   H3808     1.0  0.52073  0.38869  0.37085  1.0000
  C   C2152     1.0  0.74069  0.30188  0.05669  1.0000
  H   H3809     1.0  0.66832  0.45111  0.99530  1.0000
  H   H3810     1.0  0.55581  0.42474  0.30098  1.0000
  H   H3811     1.0  0.58383  0.32379  0.98651  1.0000
  C   C2153     1.0  0.74209  0.38170  0.16826  1.0000
  C   C2154     1.0  0.74666  0.30210  0.40262  1.0000
  C   C2155     1.0  0.56757  0.33053  0.16143  1.0000
  C   C2156     1.0  0.58575  0.41428  0.43128  1.0000
  H   H3812     1.0  0.55598  0.41296  0.38328  1.0000
  C   C2157     1.0  0.64040  0.27738  0.12146  1.0000
  C   C2158     1.0  0.66516  0.48141  0.07947  1.0000
  C   C2159     1.0  0.52733  0.45647  0.24694  1.0000
  H   H3813     1.0  0.73641  0.48216  0.22895  1.0000
  N   N122      1.0  0.65590  0.28722  0.02448  1.0000
  S   S470      1.0  0.59418  0.25408  0.44011  1.0000
  C   C2160     1.0  0.54413  0.28666  0.42038  1.0000
  H   H3814     1.0  0.61784  0.27197  0.20662  1.0000
  C   C2161     1.0  0.66376  0.49833  0.32368  1.0000
  H   H3815     1.0  0.53469  0.39283  0.37847  1.0000
  C   C2162     1.0  0.59767  0.25741  0.24948  1.0000
  H   H3816     1.0  0.55266  0.48701  0.01601  1.0000
  H   H3817     1.0  0.71670  0.49760  0.30411  1.0000
  C   C2163     1.0  0.72136  0.46840  0.20965  1.0000
  H   H3818     1.0  0.56198  0.29789  0.13920  1.0000
  H   H3819     1.0  0.66777  0.26730  0.13490  1.0000
  H   H3820     1.0  0.56999  0.42031  0.42886  1.0000
  H   H3821     1.0  0.60305  0.49336  0.31250  1.0000
  C   C2164     1.0  0.57453  0.25698  0.24920  1.0000
  H   H3822     1.0  0.72403  0.29633  0.18331  1.0000
  Fe  Fe235     1.0  0.57405  0.36051  0.39611  1.0000
  H   H3823     1.0  0.68642  0.28747  0.28486  1.0000
  C   C2165     1.0  0.64203  0.26704  0.02859  1.0000
  H   H3824     1.0  0.74447  0.45817  0.43418  1.0000
  C   C2166     1.0  0.57762  0.32147  0.11405  1.0000
  H   H3825     1.0  0.64648  0.43175  0.23770  1.0000
  H   H3826     1.0  0.56187  0.47203  0.99952  1.0000
  H   H3827     1.0  0.66894  0.46685  0.01922  1.0000
  H   H3828     1.0  0.51504  0.48046  0.22776  1.0000
  H   H3829     1.0  0.73419  0.27966  0.31874  1.0000
  H   H3830     1.0  0.55519  0.47881  0.07869  1.0000
  H   H3831     1.0  0.52353  0.41054  0.34547  1.0000
  C   C2167     1.0  0.70374  0.26384  0.27948  1.0000
  C   C2168     1.0  0.56980  0.27820  0.31838  1.0000
  C   C2169     1.0  0.51330  0.45231  0.01787  1.0000
  H   H3832     1.0  0.58719  0.41832  0.44886  1.0000
  C   C2170     1.0  0.69336  0.27704  0.25835  1.0000
  H   H3833     1.0  0.64766  0.29298  0.13331  1.0000
  C   C2171     1.0  0.64175  0.26648  0.11771  1.0000
  H   H3834     1.0  0.57606  0.48374  0.04673  1.0000
  H   H3835     1.0  0.74292  0.30588  0.45653  1.0000
  C   C2172     1.0  0.60652  0.31080  0.34460  1.0000
  H   H3836     1.0  0.61436  0.40019  0.38537  1.0000
  H   H3837     1.0  0.58181  0.40007  0.99966  1.0000
  H   H3838     1.0  0.58007  0.47569  0.07545  1.0000
  C   C2173     1.0  0.72676  0.45469  0.07446  1.0000
  H   H3839     1.0  0.54362  0.31463  0.34344  1.0000
  H   H3840     1.0  0.55031  0.30476  0.36309  1.0000
  C   C2174     1.0  0.55195  0.31363  0.34856  1.0000
  H   H3841     1.0  0.55480  0.32040  0.35968  1.0000
  C   C2175     1.0  0.57432  0.48155  0.07036  1.0000
  C   C2176     1.0  0.62310  0.30011  0.00648  1.0000
  H   H3842     1.0  0.61847  0.49627  0.05257  1.0000
  N   N123      1.0  0.72549  0.31004  0.25512  1.0000
  S   S471      1.0  0.61606  0.50215  0.40144  1.0000
  H   H3843     1.0  0.66972  0.25659  0.28316  1.0000
  S   S472      1.0  0.60436  0.35830  0.45245  1.0000
  H   H3844     1.0  0.61947  0.27673  0.24928  1.0000
  H   H3845     1.0  0.71952  0.46898  0.03539  1.0000
  H   H3846     1.0  0.55466  0.46693  0.42219  1.0000
  H   H3847     1.0  0.55815  0.30810  0.31087  1.0000
  H   H3848     1.0  0.54476  0.25724  0.46168  1.0000
  C   C2177     1.0  0.56124  0.31506  0.32118  1.0000
  H   H3849     1.0  0.62690  0.46955  0.38589  1.0000
  H   H3850     1.0  0.55321  0.40753  0.33127  1.0000
  C   C2178     1.0  0.58526  0.28095  0.46588  1.0000
  H   H3851     1.0  0.56204  0.32373  0.30664  1.0000
  H   H3852     1.0  0.57157  0.30785  0.34768  1.0000
  H   H3853     1.0  0.58658  0.49333  0.29072  1.0000
  H   H3854     1.0  0.51331  0.40227  0.39731  1.0000
  Fe  Fe236     1.0  0.50095  0.47413  0.15179  1.0000
  H   H3855     1.0  0.55906  0.32746  0.15670  1.0000
  H   H3856     1.0  0.69434  0.30050  0.44164  1.0000
  H   H3857     1.0  0.57345  0.28458  0.00391  1.0000
  H   H3858     1.0  0.72338  0.43017  0.41155  1.0000
  H   H3859     1.0  0.63544  0.49729  0.26026  1.0000
  C   C2179     1.0  0.74669  0.40340  0.16735  1.0000
  H   H3860     1.0  0.74532  0.49200  0.42365  1.0000
  C   C2180     1.0  0.57324  0.31456  0.32731  1.0000
  H   H3861     1.0  0.57681  0.32308  0.33192  1.0000
  H   H3862     1.0  0.56580  0.27825  0.30012  1.0000
  H   H3863     1.0  0.70306  0.48113  0.11100  1.0000
  C   C2181     1.0  0.71470  0.49570  0.28444  1.0000
  H   H3864     1.0  0.67418  0.26784  0.04704  1.0000
  H   H3865     1.0  0.71785  0.45230  0.07122  1.0000
  H   H3866     1.0  0.54137  0.46745  0.25754  1.0000
  C   C2182     1.0  0.66418  0.46724  0.00234  1.0000
  H   H3867     1.0  0.58997  0.37450  0.32230  1.0000
  C   C2183     1.0  0.59667  0.35672  0.99257  1.0000
  H   H3868     1.0  0.58348  0.43068  0.40777  1.0000
  C   C2184     1.0  0.72291  0.30340  0.23333  1.0000
  H   H3869     1.0  0.59175  0.38863  0.29861  1.0000
  H   H3870     1.0  0.59943  0.38730  0.32638  1.0000
  H   H3871     1.0  0.59526  0.39687  0.02991  1.0000
  Fe  Fe237     1.0  0.59062  0.26165  0.14930  1.0000
  H   H3872     1.0  0.58789  0.30630  0.35718  1.0000
  H   H3873     1.0  0.71536  0.26552  0.02763  1.0000
  C   C2185     1.0  0.59634  0.38303  0.31056  1.0000
  C   C2186     1.0  0.57808  0.25682  0.27454  1.0000
  H   H3874     1.0  0.65246  0.47620  0.44375  1.0000
  C   C2187     1.0  0.59475  0.30652  0.33836  1.0000
  H   H3875     1.0  0.59149  0.38360  0.05808  1.0000
  Fe  Fe238     1.0  0.70274  0.48396  0.40395  1.0000
  S   S473      1.0  0.71674  0.48277  0.42785  1.0000
  H   H3876     1.0  0.71750  0.43167  0.07096  1.0000
  H   H3877     1.0  0.57336  0.30013  0.28345  1.0000
  N   N124      1.0  0.58204  0.31236  0.30396  1.0000
  H   H3878     1.0  0.68215  0.48446  0.35716  1.0000
  C   C2188     1.0  0.56139  0.39697  0.38155  1.0000
  H   H3879     1.0  0.62891  0.48135  0.40297  1.0000
  H   H3880     1.0  0.57479  0.31973  0.27003  1.0000
  H   H3881     1.0  0.73119  0.42012  0.42616  1.0000
  H   H3882     1.0  0.62010  0.39516  0.29154  1.0000
  H   H3883     1.0  0.63052  0.37897  0.29549  1.0000
  H   H3884     1.0  0.63804  0.36172  0.26157  1.0000
  C   C2189     1.0  0.59380  0.31461  0.31073  1.0000
  H   H3885     1.0  0.73148  0.29233  0.33056  1.0000
  Fe  Fe239     1.0  0.72743  0.48009  0.38813  1.0000
  C   C2190     1.0  0.73209  0.46138  0.29136  1.0000
  C   C2191     1.0  0.57859  0.30017  0.29951  1.0000
  H   H3886     1.0  0.70493  0.26402  0.32203  1.0000
  H   H3887     1.0  0.53046  0.41803  0.29574  1.0000
  C   C2192     1.0  0.62401  0.28604  0.23742  1.0000
  C   C2193     1.0  0.67049  0.48590  0.42525  1.0000
  H   H3888     1.0  0.59416  0.29746  0.33594  1.0000
  S   S474      1.0  0.71077  0.26119  0.37543  1.0000
  H   H3889     1.0  0.58457  0.33032  0.27973  1.0000
  H   H3890     1.0  0.74086  0.44571  0.07619  1.0000
  H   H3891     1.0  0.53688  0.45562  0.30761  1.0000
  H   H3892     1.0  0.72314  0.28358  0.21123  1.0000
  C   C2194     1.0  0.70400  0.31188  0.26421  1.0000
  C   C2195     1.0  0.60658  0.38091  0.29017  1.0000
  C   C2196     1.0  0.63460  0.37709  0.27534  1.0000
  C   C2197     1.0  0.63446  0.36407  0.28149  1.0000
  H   H3893     1.0  0.61032  0.37460  0.30287  1.0000
  H   H3894     1.0  0.64392  0.38217  0.26818  1.0000
  H   H3895     1.0  0.63988  0.36212  0.29655  1.0000
  C   C2198     1.0  0.58313  0.32128  0.27653  1.0000
  H   H3896     1.0  0.69933  0.32693  0.24073  1.0000
  N   N125      1.0  0.56915  0.38723  0.98921  1.0000
  H   H3897     1.0  0.56433  0.48293  0.27977  1.0000
  C   C2199     1.0  0.74163  0.32527  0.26549  1.0000
  H   H3898     1.0  0.60706  0.30475  0.36421  1.0000
  Fe  Fe240     1.0  0.53969  0.42609  0.41737  1.0000
  S   S475      1.0  0.59360  0.36370  0.38490  1.0000
  H   H3899     1.0  0.67052  0.47751  0.34386  1.0000
  C   C2200     1.0  0.55559  0.40418  0.39502  1.0000
  S   S476      1.0  0.70173  0.26286  0.22616  1.0000
  H   H3900     1.0  0.74790  0.48988  0.25638  1.0000
  H   H3901     1.0  0.59031  0.50178  0.04012  1.0000
  H   H3902     1.0  0.74618  0.48333  0.29274  1.0000
  C   C2201     1.0  0.70645  0.26636  0.03164  1.0000
  N   N126      1.0  0.66064  0.48790  0.00180  1.0000
  C   C2202     1.0  0.61609  0.39257  0.27471  1.0000
  H   H3903     1.0  0.63917  0.39976  0.26741  1.0000
  H   H3904     1.0  0.61158  0.39953  0.26833  1.0000
  C   C2203     1.0  0.52360  0.45102  0.05525  1.0000
  C   C2204     1.0  0.59589  0.39207  0.40652  1.0000
  C   C2205     1.0  0.50900  0.38457  0.30819  1.0000
  H   H3905     1.0  0.64996  0.48152  0.06392  1.0000
  H   H3906     1.0  0.56789  0.41051  0.99239  1.0000
  H   H3907     1.0  0.60301  0.37656  0.27516  1.0000
  H   H3908     1.0  0.62803  0.41574  0.25229  1.0000
  H   H3909     1.0  0.62541  0.35860  0.29152  1.0000
  H   H3910     1.0  0.65492  0.42124  0.23260  1.0000
  H   H3911     1.0  0.60363  0.40185  0.43305  1.0000
  H   H3912     1.0  0.54444  0.38546  0.46097  1.0000
  H   H3913     1.0  0.68775  0.29237  0.04931  1.0000
  H   H3914     1.0  0.58653  0.29748  0.29026  1.0000
  C   C2206     1.0  0.69131  0.28090  0.28337  1.0000
  H   H3915     1.0  0.59648  0.32390  0.31189  1.0000
  H   H3916     1.0  0.72529  0.45346  0.09789  1.0000
  S   S477      1.0  0.51171  0.47990  0.10611  1.0000
  H   H3917     1.0  0.74270  0.46522  0.32148  1.0000
  H   H3918     1.0  0.54757  0.49501  0.19740  1.0000
  C   C2207     1.0  0.56143  0.30570  0.14772  1.0000
  N   N127      1.0  0.62540  0.39236  0.24937  1.0000
  C   C2208     1.0  0.62828  0.38058  0.25185  1.0000
  C   C2209     1.0  0.63651  0.40137  0.24706  1.0000
  H   H3919     1.0  0.62038  0.37338  0.25532  1.0000
  C   C2210     1.0  0.73325  0.30012  0.21515  1.0000
  H   H3920     1.0  0.70208  0.30665  0.24900  1.0000
  S   S478      1.0  0.57776  0.25729  0.19268  1.0000
  C   C2211     1.0  0.55055  0.43621  0.26981  1.0000
  H   H3921     1.0  0.60745  0.31976  0.34809  1.0000
  C   C2212     1.0  0.54750  0.42652  0.29747  1.0000
  C   C2213     1.0  0.54796  0.40128  0.32216  1.0000
  C   C2214     1.0  0.65180  0.26300  0.12193  1.0000
  C   C2215     1.0  0.63612  0.41445  0.23948  1.0000
  C   C2216     1.0  0.64661  0.42239  0.24477  1.0000
  H   H3922     1.0  0.64635  0.42033  0.26778  1.0000
  H   H3923     1.0  0.64892  0.49305  0.28969  1.0000
  S   S479      1.0  0.54435  0.44247  0.43214  1.0000
  H   H3924     1.0  0.72296  0.45631  0.29415  1.0000
  H   H3925     1.0  0.72736  0.46365  0.33468  1.0000
  H   H3926     1.0  0.56236  0.29123  0.33328  1.0000
  H   H3927     1.0  0.60070  0.31368  0.29339  1.0000
  H   H3928     1.0  0.57089  0.31519  0.18688  1.0000
  H   H3929     1.0  0.71546  0.47940  0.12480  1.0000
  H   H3930     1.0  0.73097  0.47285  0.09803  1.0000
  H   H3931     1.0  0.63407  0.38048  0.23131  1.0000
  H   H3932     1.0  0.64386  0.40046  0.23074  1.0000
  C   C2217     1.0  0.53160  0.45298  0.29373  1.0000
  C   C2218     1.0  0.73118  0.29312  0.28641  1.0000
  S   S480      1.0  0.71428  0.48306  0.36286  1.0000
  S   S481      1.0  0.70892  0.45062  0.47957  1.0000
  C   C2219     1.0  0.52124  0.39935  0.40027  1.0000
  Fe  Fe241     1.0  0.52122  0.46766  0.17613  1.0000
  H   H3933     1.0  0.59880  0.29586  0.43651  1.0000
  C   C2220     1.0  0.62181  0.39568  0.22202  1.0000
  H   H3934     1.0  0.57533  0.28951  0.34379  1.0000
  C   C2221     1.0  0.61444  0.29591  0.99004  1.0000
  H   H3935     1.0  0.74059  0.29775  0.27875  1.0000
  H   H3936     1.0  0.58948  0.38376  0.40836  1.0000
  H   H3937     1.0  0.60657  0.25731  0.24974  1.0000
  H   H3938     1.0  0.56780  0.48709  0.31926  1.0000
  H   H3939     1.0  0.53659  0.28920  0.20209  1.0000
  Fe  Fe242     1.0  0.57105  0.33413  0.42117  1.0000
  H   H3940     1.0  0.73941  0.30821  0.20012  1.0000
  H   H3941     1.0  0.72660  0.28985  0.04762  1.0000
  H   H3942     1.0  0.50621  0.45466  0.00974  1.0000
  Fe  Fe243     1.0  0.71152  0.29549  0.13690  1.0000
  H   H3943     1.0  0.71253  0.31687  0.16396  1.0000
  C   C2222     1.0  0.51820  0.44621  0.25708  1.0000
  H   H3944     1.0  0.55721  0.35042  0.00216  1.0000
  C   C2223     1.0  0.57878  0.42121  0.41503  1.0000
  H   H3945     1.0  0.53292  0.47401  0.99484  1.0000
  C   C2224     1.0  0.59083  0.32716  0.22234  1.0000
  H   H3946     1.0  0.61135  0.37828  0.22229  1.0000
  C   C2225     1.0  0.59361  0.28710  0.43657  1.0000
  C   C2226     1.0  0.56374  0.45686  0.98462  1.0000
  H   H3947     1.0  0.58807  0.33110  0.05504  1.0000
  H   H3948     1.0  0.73648  0.29028  0.18353  1.0000
  H   H3949     1.0  0.73995  0.46847  0.23489  1.0000
  H   H3950     1.0  0.74869  0.32635  0.11818  1.0000
  C   C2227     1.0  0.62673  0.27209  0.19510  1.0000
  H   H3951     1.0  0.74143  0.31951  0.28626  1.0000
  H   H3952     1.0  0.56393  0.27121  0.33694  1.0000
  H   H3953     1.0  0.57838  0.27603  0.31312  1.0000
  Fe  Fe244     1.0  0.70222  0.27266  0.12204  1.0000
  H   H3954     1.0  0.60816  0.40071  0.18513  1.0000
  H   H3955     1.0  0.60033  0.38583  0.18878  1.0000
  S   S482      1.0  0.69963  0.29072  0.10965  1.0000
  H   H3956     1.0  0.50112  0.46721  0.30570  1.0000
  C   C2228     1.0  0.60869  0.39141  0.18976  1.0000
  S   S483      1.0  0.66825  0.28955  0.15007  1.0000
  H   H3957     1.0  0.57224  0.39594  0.27945  1.0000
  C   C2229     1.0  0.64363  0.49925  0.29464  1.0000
  C   C2230     1.0  0.57125  0.29004  0.32579  1.0000
  H   H3958     1.0  0.60152  0.32673  0.25193  1.0000
  C   C2231     1.0  0.72881  0.47516  0.07717  1.0000
  H   H3959     1.0  0.55688  0.37247  0.02098  1.0000
  H   H3960     1.0  0.54166  0.41362  0.27489  1.0000
  H   H3961     1.0  0.63003  0.30174  0.06367  1.0000
  H   H3962     1.0  0.55449  0.37263  0.43675  1.0000
  C   C2232     1.0  0.67823  0.49700  0.41274  1.0000
  H   H3963     1.0  0.72368  0.30659  0.30058  1.0000
  C   C2233     1.0  0.66018  0.27015  0.13115  1.0000
  H   H3964     1.0  0.57344  0.37615  0.04465  1.0000
  C   C2234     1.0  0.74818  0.46094  0.47305  1.0000
  C   C2235     1.0  0.52087  0.44702  0.00238  1.0000
  H   H3965     1.0  0.59387  0.31256  0.24998  1.0000
  H   H3966     1.0  0.58968  0.33612  0.22186  1.0000
  H   H3967     1.0  0.58344  0.32502  0.16279  1.0000
  H   H3968     1.0  0.72198  0.47773  0.19956  1.0000
  H   H3969     1.0  0.69356  0.46697  0.99820  1.0000
  C   C2236     1.0  0.74039  0.43869  0.41536  1.0000
  C   C2237     1.0  0.64113  0.48470  0.36146  1.0000
  C   C2238     1.0  0.68906  0.26755  0.01500  1.0000
  H   H3970     1.0  0.74396  0.30246  0.07578  1.0000
  C   C2239     1.0  0.53123  0.44583  0.03962  1.0000
  C   C2240     1.0  0.70060  0.26649  0.05901  1.0000
  H   H3971     1.0  0.63210  0.30292  0.99235  1.0000
  C   C2241     1.0  0.72510  0.43285  0.08037  1.0000
  C   C2242     1.0  0.56665  0.30087  0.41113  1.0000
  C   C2243     1.0  0.57663  0.28917  0.04125  1.0000
  H   H3972     1.0  0.58289  0.32172  0.21907  1.0000
  H   H3973     1.0  0.57250  0.28742  0.39297  1.0000
  C   C2244     1.0  0.74401  0.44643  0.21963  1.0000
  H   H3974     1.0  0.74696  0.45182  0.14821  1.0000
  C   C2245     1.0  0.66786  0.29239  0.02785  1.0000
  H   H3975     1.0  0.53706  0.45544  0.47892  1.0000
  C   C2246     1.0  0.56532  0.33495  0.18829  1.0000
  C   C2247     1.0  0.61003  0.29275  0.27241  1.0000
  H   H3976     1.0  0.66090  0.27118  0.02091  1.0000
  C   C2248     1.0  0.73360  0.47318  0.24369  1.0000
  H   H3977     1.0  0.56552  0.25671  0.24923  1.0000
  H   H3978     1.0  0.73620  0.44636  0.04416  1.0000
  H   H3979     1.0  0.50116  0.49871  0.24386  1.0000
  H   H3980     1.0  0.55129  0.39387  0.28507  1.0000
  C   C2249     1.0  0.71266  0.48213  0.10504  1.0000
  N   N128      1.0  0.59224  0.29147  0.99430  1.0000
  C   C2250     1.0  0.65572  0.29177  0.99395  1.0000
  S   S484      1.0  0.56849  0.37697  0.37811  1.0000
  N   N129      1.0  0.73419  0.47373  0.27344  1.0000
  N   N130      1.0  0.53668  0.40449  0.31975  1.0000
  C   C2251     1.0  0.56542  0.28074  0.06146  1.0000
  H   H3981     1.0  0.74117  0.37271  0.18134  1.0000
  C   C2252     1.0  0.70773  0.29846  0.46403  1.0000
  H   H3982     1.0  0.73940  0.44395  0.32559  1.0000
  H   H3983     1.0  0.54920  0.27587  0.47550  1.0000
  H   H3984     1.0  0.56165  0.47760  0.45567  1.0000
  C   C2253     1.0  0.73549  0.33665  0.17174  1.0000
  C   C2254     1.0  0.69551  0.27628  0.30646  1.0000
  H   H3985     1.0  0.71430  0.47012  0.25117  1.0000
  H   H3986     1.0  0.58772  0.28370  0.19572  1.0000
  H   H3987     1.0  0.72221  0.49011  0.24838  1.0000
  H   H3988     1.0  0.60083  0.29546  0.02680  1.0000
  H   H3989     1.0  0.71947  0.30865  0.21729  1.0000
  H   H3990     1.0  0.74404  0.43107  0.13742  1.0000
  H   H3991     1.0  0.58327  0.29003  0.05361  1.0000
  H   H3992     1.0  0.71619  0.47299  0.29299  1.0000
  H   H3993     1.0  0.64909  0.43649  0.08126  1.0000
  H   H3994     1.0  0.72139  0.47086  0.98287  1.0000
  C   C2255     1.0  0.60179  0.29092  0.00951  1.0000
  C   C2256     1.0  0.57668  0.28835  0.47467  1.0000
  S   S485      1.0  0.71519  0.27778  0.14654  1.0000
  H   H3995     1.0  0.51866  0.39164  0.41907  1.0000
  Fe  Fe245     1.0  0.56242  0.25746  0.39058  1.0000
  H   H3996     1.0  0.69002  0.28056  0.24075  1.0000
  H   H3997     1.0  0.51149  0.39591  0.33561  1.0000
  H   H3998     1.0  0.64685  0.49970  0.37683  1.0000
  H   H3999     1.0  0.67092  0.30195  0.01692  1.0000
  C   C2257     1.0  0.74604  0.48120  0.27198  1.0000
  S   S486      1.0  0.73880  0.34624  0.19292  1.0000
  S   S487      1.0  0.54283  0.40922  0.44192  1.0000
  S   S488      1.0  0.59033  0.33583  0.41242  1.0000
  S   S489      1.0  0.63859  0.49291  0.44201  1.0000
  S   S490      1.0  0.51915  0.43381  0.33921  1.0000
  C   C2258     1.0  0.65856  0.28086  0.13599  1.0000
  H   H4000     1.0  0.66688  0.28144  0.07026  1.0000
  H   H4001     1.0  0.72645  0.48075  0.30728  1.0000
  H   H4002     1.0  0.51091  0.42383  0.48038  1.0000
  C   C2259     1.0  0.74440  0.33528  0.15076  1.0000
  C   C2260     1.0  0.58222  0.30579  0.14605  1.0000
  Fe  Fe246     1.0  0.51833  0.46369  0.11757  1.0000
  C   C2261     1.0  0.70323  0.30546  0.44115  1.0000
  H   H4003     1.0  0.73368  0.28282  0.07267  1.0000
  C   C2262     1.0  0.72429  0.49107  0.26864  1.0000
  H   H4004     1.0  0.73908  0.32391  0.22415  1.0000
  H   H4005     1.0  0.52870  0.48046  0.28005  1.0000
  N   N131      1.0  0.57360  0.31324  0.14368  1.0000
  H   H4006     1.0  0.62875  0.27842  0.17407  1.0000
  Fe  Fe247     1.0  0.69983  0.27322  0.18450  1.0000
  H   H4007     1.0  0.59928  0.48910  0.08863  1.0000
  C   C2263     1.0  0.64745  0.48358  0.01093  1.0000
  H   H4008     1.0  0.57095  0.40095  0.45899  1.0000
  C   C2264     1.0  0.72153  0.46679  0.24086  1.0000
  C   C2265     1.0  0.66895  0.29086  0.05893  1.0000
  H   H4009     1.0  0.58866  0.28817  0.42008  1.0000
  H   H4010     1.0  0.57916  0.31988  0.04384  1.0000
  H   H4011     1.0  0.52741  0.40653  0.40455  1.0000
  H   H4012     1.0  0.64671  0.30825  0.01916  1.0000
  H   H4013     1.0  0.55572  0.43363  0.25200  1.0000
  H   H4014     1.0  0.56627  0.40028  0.35949  1.0000
  H   H4015     1.0  0.56919  0.49833  0.33691  1.0000
  C   C2266     1.0  0.56503  0.29018  0.40274  1.0000
  H   H4016     1.0  0.63962  0.31588  0.05959  1.0000
  H   H4017     1.0  0.72382  0.29137  0.08346  1.0000
  H   H4018     1.0  0.64081  0.48206  0.34155  1.0000
  H   H4019     1.0  0.67409  0.48012  0.07332  1.0000
  S   S491      1.0  0.52136  0.42759  0.41829  1.0000
  H   H4020     1.0  0.54612  0.39257  0.33765  1.0000
  H   H4021     1.0  0.72590  0.28634  0.45899  1.0000
  C   C2267     1.0  0.64153  0.25393  0.03397  1.0000
  S   S492      1.0  0.61017  0.27168  0.07102  1.0000
  H   H4022     1.0  0.74918  0.38347  0.14858  1.0000
  C   C2268     1.0  0.55697  0.30415  0.42527  1.0000
  C   C2269     1.0  0.57030  0.48967  0.26084  1.0000
  H   H4023     1.0  0.65971  0.48996  0.31947  1.0000
  C   C2270     1.0  0.68911  0.26761  0.06404  1.0000
  C   C2271     1.0  0.55369  0.28308  0.40713  1.0000
  C   C2272     1.0  0.56559  0.48813  0.23518  1.0000
  H   H4024     1.0  0.71418  0.29605  0.29046  1.0000
  C   C2273     1.0  0.54576  0.29691  0.42994  1.0000
  C   C2274     1.0  0.57953  0.32445  0.06096  1.0000
  C   C2275     1.0  0.57416  0.32068  0.16466  1.0000
  C   C2276     1.0  0.68131  0.29662  0.05967  1.0000
  H   H4025     1.0  0.66301  0.29502  0.07119  1.0000
  H   H4026     1.0  0.62420  0.48351  0.01172  1.0000
  H   H4027     1.0  0.53569  0.43964  0.00179  1.0000
  H   H4028     1.0  0.59159  0.28673  0.15749  1.0000
  H   H4029     1.0  0.73813  0.29558  0.22847  1.0000
  H   H4030     1.0  0.60398  0.32725  0.46033  1.0000
  Fe  Fe248     1.0  0.69809  0.27253  0.37606  1.0000
  H   H4031     1.0  0.66575  0.41795  0.00727  1.0000
  C   C2277     1.0  0.72898  0.28630  0.31739  1.0000
  S   S493      1.0  0.58339  0.49389  0.45070  1.0000
  H   H4032     1.0  0.57367  0.33836  0.19343  1.0000
  Fe  Fe249     1.0  0.68537  0.28479  0.15017  1.0000
  C   C2278     1.0  0.64649  0.29066  0.04347  1.0000
  C   C2279     1.0  0.63900  0.30631  0.06340  1.0000
  H   H4033     1.0  0.59973  0.28165  0.43100  1.0000
  C   C2280     1.0  0.67696  0.48593  0.34127  1.0000
  H   H4034     1.0  0.57906  0.48787  0.25713  1.0000
  H   H4035     1.0  0.65329  0.27075  0.05559  1.0000
  H   H4036     1.0  0.57537  0.30627  0.40789  1.0000
  H   H4037     1.0  0.53808  0.44310  0.04821  1.0000
  C   C2281     1.0  0.53113  0.40679  0.34744  1.0000
  H   H4038     1.0  0.57169  0.32736  0.11129  1.0000
  C   C2282     1.0  0.59415  0.25768  0.22410  1.0000
  H   H4039     1.0  0.57594  0.39785  0.42616  1.0000
  H   H4040     1.0  0.64552  0.28633  0.06609  1.0000
  H   H4041     1.0  0.67447  0.28841  0.01699  1.0000
  Fe  Fe250     1.0  0.52654  0.44462  0.43029  1.0000
  C   C2283     1.0  0.64799  0.30406  0.04000  1.0000
  H   H4042     1.0  0.68450  0.26769  0.08512  1.0000
  H   H4043     1.0  0.56692  0.27197  0.06940  1.0000
  C   C2284     1.0  0.69958  0.26848  0.25637  1.0000
  H   H4044     1.0  0.63784  0.28721  0.03985  1.0000
  H   H4045     1.0  0.64058  0.30312  0.08458  1.0000
  C   C2285     1.0  0.69679  0.32097  0.26255  1.0000
  H   H4046     1.0  0.65677  0.30856  0.04115  1.0000
  S   S494      1.0  0.70550  0.28242  0.40485  1.0000
  H   H4047     1.0  0.49997  0.38545  0.30891  1.0000
  C   C2286     1.0  0.74589  0.47001  0.05234  1.0000
  S   S495      1.0  0.63096  0.25704  0.10809  1.0000
  S   S496      1.0  0.70715  0.26367  0.08736  1.0000
  H   H4048     1.0  0.53734  0.41370  0.35264  1.0000
  H   H4049     1.0  0.53536  0.28131  0.42387  1.0000
  H   H4050     1.0  0.53555  0.49589  0.26416  1.0000
  H   H4051     1.0  0.70745  0.28968  0.46000  1.0000
  C   C2287     1.0  0.52883  0.39443  0.31342  1.0000
  C   C2288     1.0  0.73063  0.29078  0.06550  1.0000
  C   C2289     1.0  0.54234  0.29201  0.18007  1.0000
  H   H4052     1.0  0.54730  0.47675  0.34236  1.0000
  C   C2290     1.0  0.72325  0.30169  0.28394  1.0000
  H   H4053     1.0  0.74216  0.46449  0.00357  1.0000
  H   H4054     1.0  0.70269  0.31413  0.44508  1.0000
  H   H4055     1.0  0.65447  0.44099  0.04283  1.0000
  S   S497      1.0  0.72755  0.31066  0.11879  1.0000
  S   S498      1.0  0.58518  0.27134  0.11259  1.0000
  C   C2291     1.0  0.67471  0.42255  0.00677  1.0000
  H   H4056     1.0  0.51313  0.44342  0.24299  1.0000
  C   C2292     1.0  0.53878  0.41540  0.29601  1.0000
  S   S499      1.0  0.51460  0.48390  0.16852  1.0000
  H   H4057     1.0  0.57191  0.28931  0.17700  1.0000
  H   H4058     1.0  0.54930  0.48539  0.36762  1.0000
  H   H4059     1.0  0.52642  0.47745  0.04526  1.0000
  H   H4060     1.0  0.59119  0.31157  0.14185  1.0000
  H   H4061     1.0  0.55651  0.31057  0.13489  1.0000
  S   S500      1.0  0.57164  0.34969  0.44081  1.0000
  H   H4062     1.0  0.64375  0.48943  0.02299  1.0000
  C   C2293     1.0  0.73036  0.32056  0.13949  1.0000
  C   C2294     1.0  0.54634  0.48505  0.34798  1.0000
  C   C2295     1.0  0.55337  0.30123  0.17853  1.0000
  H   H4063     1.0  0.73809  0.38825  0.20515  1.0000
  H   H4064     1.0  0.57232  0.32893  0.06260  1.0000
  H   H4065     1.0  0.59795  0.29734  0.17479  1.0000
  H   H4066     1.0  0.71315  0.41356  0.21274  1.0000
  C   C2296     1.0  0.57975  0.29645  0.17466  1.0000
  C   C2297     1.0  0.51809  0.49006  0.25878  1.0000
  H   H4067     1.0  0.63438  0.26797  0.04386  1.0000
  H   H4068     1.0  0.57165  0.45610  0.99223  1.0000
  N   N132      1.0  0.73272  0.46737  0.05877  1.0000
  C   C2298     1.0  0.51470  0.45439  0.04406  1.0000
  H   H4069     1.0  0.71708  0.49154  0.09461  1.0000
  C   C2299     1.0  0.58992  0.29074  0.17564  1.0000
  C   C2300     1.0  0.72142  0.32193  0.16042  1.0000
  H   H4070     1.0  0.73029  0.26625  0.46969  1.0000
  H   H4071     1.0  0.54466  0.28414  0.17439  1.0000
  H   H4072     1.0  0.73700  0.30945  0.05042  1.0000
  H   H4073     1.0  0.57810  0.35036  0.99960  1.0000
  H   H4074     1.0  0.58270  0.30078  0.12956  1.0000
  H   H4075     1.0  0.72912  0.28658  0.27412  1.0000
  H   H4076     1.0  0.73763  0.45650  0.28027  1.0000
  C   C2301     1.0  0.66619  0.48019  0.98582  1.0000
  C   C2302     1.0  0.57813  0.31553  0.08900  1.0000
  H   H4077     1.0  0.70085  0.30596  0.28607  1.0000
  Fe  Fe251     1.0  0.59112  0.35211  0.42851  1.0000
  C   C2303     1.0  0.68328  0.26783  0.04229  1.0000
  S   S501      1.0  0.58177  0.26488  0.37773  1.0000
  S   S502      1.0  0.55828  0.31621  0.44096  1.0000
  H   H4078     1.0  0.72437  0.39835  0.20643  1.0000
  C   C2304     1.0  0.70079  0.26717  0.00950  1.0000
  H   H4079     1.0  0.58242  0.39377  0.05935  1.0000
  H   H4080     1.0  0.60082  0.38641  0.44531  1.0000
  H   H4081     1.0  0.54680  0.40954  0.00064  1.0000
  H   H4082     1.0  0.55827  0.27974  0.05050  1.0000
  H   H4083     1.0  0.57009  0.30849  0.09251  1.0000
  C   C2305     1.0  0.58063  0.28465  0.01479  1.0000
  H   H4084     1.0  0.65742  0.47075  0.05506  1.0000
  H   H4085     1.0  0.66574  0.49771  0.03145  1.0000
  H   H4086     1.0  0.72872  0.46566  0.19770  1.0000
  H   H4087     1.0  0.56988  0.36917  0.00511  1.0000
  H   H4088     1.0  0.55889  0.40910  0.27806  1.0000
  H   H4089     1.0  0.68736  0.31641  0.26770  1.0000
  C   C2306     1.0  0.54924  0.38872  0.43881  1.0000
  H   H4090     1.0  0.60559  0.31524  0.99426  1.0000
  H   H4091     1.0  0.60029  0.25777  0.20481  1.0000
  C   C2307     1.0  0.72757  0.40537  0.21648  1.0000
  C   C2308     1.0  0.58784  0.38985  0.04495  1.0000
  H   H4092     1.0  0.55593  0.45106  0.00116  1.0000
  C   C2309     1.0  0.57105  0.50227  0.26468  1.0000
  H   H4093     1.0  0.54250  0.43796  0.26431  1.0000
  H   H4094     1.0  0.57525  0.37817  0.44785  1.0000
  C   C2310     1.0  0.71552  0.47451  0.08476  1.0000
  H   H4095     1.0  0.73269  0.49782  0.26359  1.0000
  C   C2311     1.0  0.57906  0.40111  0.44337  1.0000
  H   H4096     1.0  0.66077  0.44960  0.06435  1.0000
  H   H4097     1.0  0.71950  0.41580  0.24186  1.0000
  H   H4098     1.0  0.72589  0.30647  0.44153  1.0000
  S   S503      1.0  0.68118  0.26683  0.98887  1.0000
  H   H4099     1.0  0.73119  0.40165  0.23405  1.0000
  H   H4100     1.0  0.61466  0.36309  0.99258  1.0000
  C   C2312     1.0  0.71726  0.31795  0.25772  1.0000
  H   H4101     1.0  0.55582  0.44446  0.27232  1.0000
  H   H4102     1.0  0.61073  0.38433  0.39869  1.0000
  H   H4103     1.0  0.58612  0.37921  0.01565  1.0000
  H   H4104     1.0  0.73253  0.41814  0.17633  1.0000
  H   H4105     1.0  0.73597  0.33128  0.26922  1.0000
  C   C2313     1.0  0.74508  0.39066  0.18515  1.0000
  H   H4106     1.0  0.56539  0.47916  0.23237  1.0000
  H   H4107     1.0  0.58329  0.37433  0.47259  1.0000
  H   H4108     1.0  0.74303  0.28450  0.47475  1.0000
  H   H4109     1.0  0.73815  0.42342  0.20262  1.0000
  C   C2314     1.0  0.60769  0.39187  0.38841  1.0000
  H   H4110     1.0  0.69808  0.32627  0.27806  1.0000
  H   H4111     1.0  0.71963  0.32520  0.23789  1.0000
  C   C2315     1.0  0.56346  0.37419  0.00028  1.0000
  C   C2316     1.0  0.59691  0.39352  0.43630  1.0000
  H   H4112     1.0  0.71015  0.40172  0.24434  1.0000
  S   S504      1.0  0.70476  0.25611  0.44394  1.0000
  H   H4113     1.0  0.71582  0.29518  0.24371  1.0000
  H   H4114     1.0  0.71808  0.32228  0.27517  1.0000
  H   H4115     1.0  0.74740  0.41900  0.23748  1.0000
  H   H4116     1.0  0.73905  0.30409  0.39645  1.0000
  H   H4117     1.0  0.62260  0.29291  0.02499  1.0000
  C   C2317     1.0  0.73676  0.41565  0.19376  1.0000
  C   C2318     1.0  0.73215  0.42842  0.41003  1.0000
  H   H4118     1.0  0.57403  0.48791  0.16989  1.0000
  H   H4119     1.0  0.62590  0.46876  0.01292  1.0000
  H   H4120     1.0  0.55013  0.49461  0.30454  1.0000
  H   H4121     1.0  0.59436  0.41543  0.41648  1.0000
  H   H4122     1.0  0.65297  0.25465  0.11863  1.0000
  H   H4123     1.0  0.68377  0.30616  0.04888  1.0000
  C   C2319     1.0  0.73783  0.31781  0.24531  1.0000
  C   C2320     1.0  0.58976  0.49930  0.06330  1.0000
  H   H4124     1.0  0.53823  0.29926  0.44103  1.0000
  H   H4125     1.0  0.53933  0.49131  0.15796  1.0000
  H   H4126     1.0  0.74164  0.38349  0.10374  1.0000
  C   C2321     1.0  0.62906  0.47926  0.38219  1.0000
  H   H4127     1.0  0.60099  0.28162  0.02073  1.0000
  H   H4128     1.0  0.54350  0.43000  0.31508  1.0000
  C   C2322     1.0  0.72397  0.33009  0.17628  1.0000
  C   C2323     1.0  0.65005  0.28431  0.45982  1.0000
  H   H4129     1.0  0.59867  0.48558  0.05532  1.0000
  C   C2324     1.0  0.52991  0.48791  0.26137  1.0000
  H   H4130     1.0  0.68624  0.42547  0.44899  1.0000
  C   C2325     1.0  0.59955  0.49283  0.06607  1.0000
  H   H4131     1.0  0.55829  0.48360  0.12984  1.0000
  H   H4132     1.0  0.58071  0.27528  0.02234  1.0000
  S   S505      1.0  0.73664  0.27794  0.40696  1.0000
  C   C2326     1.0  0.55955  0.39336  0.98568  1.0000
  C   C2327     1.0  0.57814  0.38066  0.46614  1.0000
  H   H4133     1.0  0.58009  0.48092  0.11708  1.0000
  H   H4134     1.0  0.73547  0.42734  0.38839  1.0000
  H   H4135     1.0  0.50848  0.37644  0.32437  1.0000
  C   C2328     1.0  0.73312  0.44524  0.06732  1.0000
  H   H4136     1.0  0.73269  0.48046  0.02170  1.0000
  H   H4137     1.0  0.58055  0.27223  0.46464  1.0000
  S   S506      1.0  0.69356  0.49885  0.40195  1.0000
  C   C2329     1.0  0.57494  0.39174  0.01056  1.0000
  H   H4138     1.0  0.56768  0.49791  0.03353  1.0000
  H   H4139     1.0  0.64460  0.47470  0.02590  1.0000
  H   H4140     1.0  0.62111  0.30769  0.01432  1.0000
  H   H4141     1.0  0.51173  0.47149  0.26252  1.0000
  H   H4142     1.0  0.58214  0.29689  0.47524  1.0000
  C   C2330     1.0  0.64111  0.48283  0.98689  1.0000
  H   H4143     1.0  0.53694  0.48501  0.35235  1.0000
  C   C2331     1.0  0.67074  0.49551  0.34614  1.0000
  C   C2332     1.0  0.74744  0.29032  0.40879  1.0000
  S   S507      1.0  0.68298  0.27348  0.47827  1.0000
  H   H4144     1.0  0.53477  0.49261  0.03585  1.0000
  C   C2333     1.0  0.58258  0.25749  0.22386  1.0000
  H   H4145     1.0  0.53781  0.48169  0.06218  1.0000
  C   C2334     1.0  0.57759  0.48938  0.11151  1.0000
  C   C2335     1.0  0.56668  0.49615  0.31796  1.0000
  H   H4146     1.0  0.51301  0.38378  0.28666  1.0000
  C   C2336     1.0  0.64482  0.49828  0.35673  1.0000
  H   H4147     1.0  0.66497  0.49261  0.36807  1.0000
  H   H4148     1.0  0.65575  0.26864  0.45947  1.0000
  C   C2337     1.0  0.62638  0.25986  0.19032  1.0000
  H   H4149     1.0  0.63531  0.49438  0.31073  1.0000
  H   H4150     1.0  0.74918  0.37247  0.09691  1.0000
  H   H4151     1.0  0.50500  0.46067  0.22845  1.0000
  H   H4152     1.0  0.64345  0.28222  0.44775  1.0000
  C   C2338     1.0  0.74780  0.38113  0.08731  1.0000
  H   H4153     1.0  0.51363  0.49118  0.27949  1.0000
  C   C2339     1.0  0.61164  0.50120  0.05181  1.0000
  H   H4154     1.0  0.68861  0.43967  0.45644  1.0000
  C   C2340     1.0  0.56621  0.48860  0.13393  1.0000
  H   H4155     1.0  0.59505  0.40598  0.47442  1.0000
  S   S508      1.0  0.51445  0.44932  0.46564  1.0000
  H   H4156     1.0  0.65833  0.25329  0.37450  1.0000
  C   C2341     1.0  0.54280  0.50025  0.15824  1.0000
  C   C2342     1.0  0.59332  0.32501  0.98503  1.0000
  H   H4157     1.0  0.57002  0.44705  0.46176  1.0000
  C   C2343     1.0  0.55524  0.27008  0.47733  1.0000
  H   H4158     1.0  0.55218  0.43069  0.47557  1.0000
  H   H4159     1.0  0.65829  0.28995  0.44448  1.0000
  H   H4160     1.0  0.65855  0.30156  0.98755  1.0000
  H   H4161     1.0  0.58443  0.49604  0.11582  1.0000
  H   H4162     1.0  0.56030  0.49608  0.08774  1.0000
  H   H4163     1.0  0.74933  0.46425  0.03982  1.0000
  C   C2344     1.0  0.65238  0.27305  0.47573  1.0000
  H   H4164     1.0  0.63697  0.50174  0.35585  1.0000
  H   H4165     1.0  0.57186  0.25654  0.29387  1.0000
  H   H4166     1.0  0.64689  0.28931  0.47496  1.0000
  H   H4167     1.0  0.56520  0.49762  0.13364  1.0000
  H   H4168     1.0  0.57123  0.49469  0.21548  1.0000
  C   C2345     1.0  0.54752  0.50234  0.18070  1.0000
  H   H4169     1.0  0.61723  0.28892  0.98087  1.0000
  H   H4170     1.0  0.55794  0.36237  0.48057  1.0000
  C   C2346     1.0  0.66369  0.50007  0.98193  1.0000
  C   C2347     1.0  0.58540  0.32362  0.59107  1.0000
  C   C2348     1.0  0.74212  0.33214  0.56119  1.0000
  Fe  Fe252     1.0  0.50133  0.47452  0.65371  1.0000
  H   H4171     1.0  0.74906  0.47776  0.91396  1.0000
  H   H4172     1.0  0.52929  0.43125  0.49866  1.0000
  H   H4173     1.0  0.53311  0.37941  0.53774  1.0000
  H   H4174     1.0  0.74222  0.47618  0.74839  1.0000
  N   N133      1.0  0.53137  0.40370  0.83317  1.0000
  Fe  Fe253     1.0  0.58634  0.34597  0.87359  1.0000
  S   S509      1.0  0.59871  0.34577  0.83270  1.0000
  S   S510      1.0  0.60094  0.27258  0.58610  1.0000
  S   S511      1.0  0.56692  0.33789  0.88717  1.0000
  S   S512      1.0  0.50647  0.45716  0.65581  1.0000
  S   S513      1.0  0.72069  0.46226  0.90800  1.0000
  S   S514      1.0  0.69244  0.45656  0.91887  1.0000
  Fe  Fe254     1.0  0.70527  0.46009  0.94451  1.0000
  C   C2349     1.0  0.68659  0.28132  0.79258  1.0000
  Fe  Fe255     1.0  0.70779  0.46061  0.88116  1.0000
  S   S515      1.0  0.70729  0.44815  0.85224  1.0000
  Fe  Fe256     1.0  0.62640  0.37683  0.62759  1.0000
  S   S516      1.0  0.60797  0.37861  0.63254  1.0000
  S   S517      1.0  0.64055  0.39391  0.61570  1.0000
  Fe  Fe257     1.0  0.61854  0.35018  0.64104  1.0000
  S   S518      1.0  0.59960  0.35012  0.64793  1.0000
  S   S519      1.0  0.62494  0.33356  0.64392  1.0000
  Fe  Fe258     1.0  0.60548  0.36489  0.60810  1.0000
  S   S520      1.0  0.59314  0.36388  0.57907  1.0000
  Fe  Fe259     1.0  0.60375  0.36369  0.67164  1.0000
  S   S521      1.0  0.59114  0.36475  0.71096  1.0000
  S   S522      1.0  0.62434  0.36431  0.59970  1.0000
  S   S523      1.0  0.62234  0.36266  0.66815  1.0000
  Fe  Fe260     1.0  0.69497  0.44887  0.63926  1.0000
  S   S524      1.0  0.69910  0.43141  0.64107  1.0000
  S   S525      1.0  0.69227  0.46036  0.60003  1.0000
  Fe  Fe261     1.0  0.69528  0.44765  0.70165  1.0000
  S   S526      1.0  0.69917  0.42991  0.70828  1.0000
  S   S527      1.0  0.69442  0.45912  0.73304  1.0000
  Fe  Fe262     1.0  0.71192  0.43750  0.66528  1.0000
  S   S528      1.0  0.73022  0.43503  0.65538  1.0000
  Fe  Fe263     1.0  0.68588  0.42541  0.68349  1.0000
  S   S529      1.0  0.67306  0.40738  0.69584  1.0000
  S   S530      1.0  0.70892  0.45552  0.65987  1.0000
  S   S531      1.0  0.68086  0.44258  0.68043  1.0000
  C   C2350     1.0  0.55183  0.41319  0.83817  1.0000
  Fe  Fe264     1.0  0.59286  0.27432  0.62950  1.0000
  S   S532      1.0  0.58704  0.29022  0.63759  1.0000
  H   H4175     1.0  0.62745  0.48460  0.54070  1.0000
  H   H4176     1.0  0.52818  0.39748  0.51645  1.0000
  C   C2351     1.0  0.67956  0.41460  0.58599  1.0000
  Fe  Fe265     1.0  0.52601  0.48878  0.63422  1.0000
  S   S533      1.0  0.53307  0.47306  0.63513  1.0000
  C   C2352     1.0  0.70372  0.26962  0.77791  1.0000
  H   H4177     1.0  0.52186  0.43366  0.54673  1.0000
  S   S534      1.0  0.60003  0.48051  0.94395  1.0000
  Fe  Fe266     1.0  0.55186  0.45557  0.88438  1.0000
  H   H4178     1.0  0.74187  0.33404  0.58208  1.0000
  S   S535      1.0  0.56406  0.47370  0.86864  1.0000
  H   H4179     1.0  0.68723  0.40442  0.61489  1.0000
  S   S536      1.0  0.70738  0.25830  0.87902  1.0000
  C   C2353     1.0  0.55421  0.48618  0.74971  1.0000
  Fe  Fe267     1.0  0.53153  0.43974  0.87129  1.0000
  H   H4180     1.0  0.55895  0.47931  0.59175  1.0000
  H   H4181     1.0  0.56999  0.30276  0.52471  1.0000
  H   H4182     1.0  0.55683  0.47712  0.54431  1.0000
  S   S537      1.0  0.55095  0.44209  0.85921  1.0000
  H   H4183     1.0  0.70790  0.30322  0.74375  1.0000
  C   C2354     1.0  0.59086  0.47872  0.92095  1.0000
  C   C2355     1.0  0.58546  0.46741  0.92002  1.0000
  C   C2356     1.0  0.57746  0.46584  0.90337  1.0000
  C   C2357     1.0  0.57476  0.47557  0.88775  1.0000
  C   C2358     1.0  0.58045  0.48691  0.88794  1.0000
  C   C2359     1.0  0.58851  0.48848  0.90442  1.0000
  H   H4184     1.0  0.58733  0.45983  0.93248  1.0000
  H   H4185     1.0  0.60971  0.27438  0.74593  1.0000
  N   N134      1.0  0.66115  0.32669  0.63922  1.0000
  C   C2360     1.0  0.71500  0.31130  0.83807  1.0000
  H   H4186     1.0  0.61093  0.48582  0.51834  1.0000
  S   S538      1.0  0.69861  0.26744  0.59408  1.0000
  H   H4187     1.0  0.64098  0.48611  0.85406  1.0000
  H   H4188     1.0  0.69768  0.46825  0.49668  1.0000
  H   H4189     1.0  0.50599  0.49658  0.54186  1.0000
  S   S539      1.0  0.60560  0.26735  0.65066  1.0000
  S   S540      1.0  0.56410  0.30835  0.94997  1.0000
  H   H4190     1.0  0.56404  0.36837  0.96087  1.0000
  S   S541      1.0  0.55180  0.36226  0.91045  1.0000
  C   C2361     1.0  0.69819  0.26343  0.54203  1.0000
  H   H4191     1.0  0.50619  0.45747  0.55966  1.0000
  H   H4192     1.0  0.67991  0.42132  0.59835  1.0000
  H   H4193     1.0  0.72173  0.28397  0.54421  1.0000
  H   H4194     1.0  0.60865  0.31369  0.73385  1.0000
  Fe  Fe268     1.0  0.51995  0.46468  0.67726  1.0000
  C   C2362     1.0  0.52545  0.42959  0.56402  1.0000
  S   S542      1.0  0.53274  0.45433  0.89288  1.0000
  C   C2363     1.0  0.74322  0.45491  0.70392  1.0000
  C   C2364     1.0  0.73885  0.44102  0.67601  1.0000
  S   S543      1.0  0.51830  0.44399  0.97037  1.0000
  C   C2365     1.0  0.73567  0.44933  0.68994  1.0000
  H   H4195     1.0  0.74602  0.42154  0.80529  1.0000
  H   H4196     1.0  0.72755  0.45171  0.68931  1.0000
  C   C2366     1.0  0.64900  0.39747  0.63930  1.0000
  C   C2367     1.0  0.65350  0.40933  0.63813  1.0000
  C   C2368     1.0  0.66105  0.41250  0.65498  1.0000
  C   C2369     1.0  0.66398  0.40379  0.67354  1.0000
  C   C2370     1.0  0.65930  0.39191  0.67512  1.0000
  C   C2371     1.0  0.65191  0.38876  0.65789  1.0000
  H   H4197     1.0  0.65118  0.41612  0.62405  1.0000
  H   H4198     1.0  0.66451  0.42167  0.65382  1.0000
  H   H4199     1.0  0.66154  0.38513  0.68942  1.0000
  H   H4200     1.0  0.64861  0.37961  0.65867  1.0000
  C   C2372     1.0  0.61428  0.32075  0.64599  1.0000
  C   C2373     1.0  0.61771  0.31100  0.63899  1.0000
  C   C2374     1.0  0.60932  0.30120  0.63809  1.0000
  C   C2375     1.0  0.59750  0.30120  0.64373  1.0000
  C   C2376     1.0  0.59402  0.31058  0.65245  1.0000
  C   C2377     1.0  0.60238  0.32027  0.65375  1.0000
  H   H4201     1.0  0.62683  0.31114  0.63324  1.0000
  H   H4202     1.0  0.61202  0.29388  0.63184  1.0000
  H   H4203     1.0  0.58484  0.31045  0.65771  1.0000
  H   H4204     1.0  0.59954  0.32733  0.66077  1.0000
  C   C2378     1.0  0.70495  0.45403  0.51242  1.0000
  C   C2379     1.0  0.70692  0.44716  0.53657  1.0000
  C   C2380     1.0  0.70316  0.44909  0.56351  1.0000
  C   C2381     1.0  0.69736  0.45790  0.56645  1.0000
  C   C2382     1.0  0.69547  0.46484  0.54222  1.0000
  C   C2383     1.0  0.69929  0.46295  0.51522  1.0000
  H   H4205     1.0  0.71126  0.44022  0.53450  1.0000
  H   H4206     1.0  0.70469  0.44372  0.58196  1.0000
  H   H4207     1.0  0.69100  0.47169  0.54435  1.0000
  H   H4208     1.0  0.50101  0.45268  0.51676  1.0000
  C   C2384     1.0  0.70390  0.45140  0.81890  1.0000
  C   C2385     1.0  0.70534  0.46297  0.80357  1.0000
  C   C2386     1.0  0.70259  0.46522  0.77707  1.0000
  C   C2387     1.0  0.69871  0.45595  0.76524  1.0000
  C   C2388     1.0  0.69758  0.44440  0.78023  1.0000
  C   C2389     1.0  0.70005  0.44214  0.80705  1.0000
  H   H4209     1.0  0.70859  0.47018  0.81212  1.0000
  H   H4210     1.0  0.70353  0.47419  0.76557  1.0000
  H   H4211     1.0  0.69450  0.43718  0.77148  1.0000
  H   H4212     1.0  0.69884  0.43315  0.81881  1.0000
  C   C2390     1.0  0.71085  0.31090  0.81057  1.0000
  H   H4213     1.0  0.67689  0.49137  0.81033  1.0000
  H   H4214     1.0  0.50489  0.44690  0.80640  1.0000
  H   H4215     1.0  0.67556  0.41584  0.49948  1.0000
  C   C2391     1.0  0.73706  0.33801  0.65599  1.0000
  H   H4216     1.0  0.54829  0.41607  0.85723  1.0000
  H   H4217     1.0  0.57442  0.48218  0.78538  1.0000
  H   H4218     1.0  0.73345  0.49301  0.53689  1.0000
  H   H4219     1.0  0.60998  0.29362  0.71793  1.0000
  H   H4220     1.0  0.51638  0.39593  0.81945  1.0000
  C   C2392     1.0  0.59610  0.35072  0.79933  1.0000
  C   C2393     1.0  0.60314  0.34889  0.77527  1.0000
  C   C2394     1.0  0.60150  0.35291  0.74811  1.0000
  C   C2395     1.0  0.59294  0.35897  0.74486  1.0000
  C   C2396     1.0  0.58581  0.36070  0.76897  1.0000
  C   C2397     1.0  0.58736  0.35655  0.79621  1.0000
  H   H4221     1.0  0.60988  0.34434  0.77771  1.0000
  H   H4222     1.0  0.60689  0.35139  0.72967  1.0000
  H   H4223     1.0  0.57914  0.36535  0.76654  1.0000
  H   H4224     1.0  0.58189  0.35796  0.81472  1.0000
  C   C2398     1.0  0.53381  0.47562  0.93815  1.0000
  H   H4225     1.0  0.51107  0.41979  0.53122  1.0000
  C   C2399     1.0  0.58742  0.35678  0.53355  1.0000
  C   C2400     1.0  0.59651  0.36199  0.54421  1.0000
  C   C2401     1.0  0.60791  0.36588  0.52668  1.0000
  H   H4226     1.0  0.74242  0.48737  0.59063  1.0000
  H   H4227     1.0  0.53291  0.43635  0.56549  1.0000
  H   H4228     1.0  0.57858  0.35374  0.54703  1.0000
  H   H4229     1.0  0.61495  0.36997  0.53462  1.0000
  C   C2402     1.0  0.52459  0.40311  0.81092  1.0000
  C   C2403     1.0  0.58737  0.25515  0.72763  1.0000
  H   H4230     1.0  0.73461  0.30044  0.80783  1.0000
  H   H4231     1.0  0.62008  0.34154  0.58290  1.0000
  S   S544      1.0  0.52858  0.46104  0.57536  1.0000
  S   S545      1.0  0.58971  0.33515  0.91212  1.0000
  H   H4232     1.0  0.66312  0.40755  0.55055  1.0000
  H   H4233     1.0  0.71918  0.41289  0.78335  1.0000
  H   H4234     1.0  0.56942  0.42264  0.83597  1.0000
  C   C2404     1.0  0.74381  0.33144  0.97663  1.0000
  C   C2405     1.0  0.73641  0.45390  0.78568  1.0000
  C   C2406     1.0  0.73776  0.47786  0.59853  1.0000
  H   H4235     1.0  0.66366  0.44648  0.53315  1.0000
  H   H4236     1.0  0.68884  0.40105  0.58078  1.0000
  H   H4237     1.0  0.56534  0.48548  0.69544  1.0000
  H   H4238     1.0  0.61393  0.29534  0.58185  1.0000
  H   H4239     1.0  0.55427  0.26625  0.95514  1.0000
  C   C2407     1.0  0.51357  0.41283  0.77837  1.0000
  H   H4240     1.0  0.70552  0.31745  0.80854  1.0000
  H   H4241     1.0  0.57638  0.31047  0.86066  1.0000
  H   H4242     1.0  0.55703  0.27726  0.82905  1.0000
  C   C2408     1.0  0.55338  0.28759  0.89941  1.0000
  C   C2409     1.0  0.73077  0.33456  0.78004  1.0000
  H   H4243     1.0  0.55547  0.33365  0.83710  1.0000
  C   C2410     1.0  0.56714  0.39716  0.89609  1.0000
  Fe  Fe269     1.0  0.51944  0.46675  0.61343  1.0000
  C   C2411     1.0  0.54628  0.39449  0.91232  1.0000
  H   H4244     1.0  0.60248  0.38810  0.48814  1.0000
  C   C2412     1.0  0.68744  0.27185  0.51030  1.0000
  C   C2413     1.0  0.64106  0.26490  0.49715  1.0000
  H   H4245     1.0  0.55213  0.36365  0.51587  1.0000
  H   H4246     1.0  0.57345  0.45709  0.90253  1.0000
  H   H4247     1.0  0.74775  0.48432  0.77159  1.0000
  S   S546      1.0  0.69037  0.29658  0.68168  1.0000
  N   N135      1.0  0.72020  0.31311  0.78322  1.0000
  C   C2414     1.0  0.73942  0.29186  0.62647  1.0000
  C   C2415     1.0  0.55827  0.28487  0.95243  1.0000
  H   H4248     1.0  0.58154  0.32976  0.78767  1.0000
  H   H4249     1.0  0.57867  0.28610  0.57606  1.0000
  C   C2416     1.0  0.58409  0.30745  0.85216  1.0000
  H   H4250     1.0  0.60210  0.32554  0.76657  1.0000
  H   H4251     1.0  0.73047  0.33885  0.75818  1.0000
  H   H4252     1.0  0.53369  0.36838  0.84815  1.0000
  N   N136      1.0  0.53642  0.42028  0.52784  1.0000
  H   H4253     1.0  0.58391  0.46655  0.52705  1.0000
  N   N137      1.0  0.67055  0.46637  0.82969  1.0000
  C   C2417     1.0  0.67032  0.46813  0.79881  1.0000
  C   C2418     1.0  0.68084  0.47520  0.83248  1.0000
  C   C2419     1.0  0.67211  0.45415  0.83986  1.0000
  C   C2420     1.0  0.65924  0.46703  0.84829  1.0000
  C   C2421     1.0  0.65566  0.47875  0.84130  1.0000
  C   C2422     1.0  0.66070  0.45918  0.79231  1.0000
  C   C2423     1.0  0.67534  0.45134  0.86881  1.0000
  C   C2424     1.0  0.68444  0.48765  0.81170  1.0000
  H   H4254     1.0  0.73644  0.47945  0.97115  1.0000
  C   C2425     1.0  0.64315  0.47747  0.85814  1.0000
  C   C2426     1.0  0.66115  0.46222  0.76059  1.0000
  C   C2427     1.0  0.67496  0.43831  0.87857  1.0000
  H   H4255     1.0  0.67892  0.46777  0.78590  1.0000
  H   H4256     1.0  0.66933  0.47699  0.78969  1.0000
  H   H4257     1.0  0.67937  0.47612  0.85465  1.0000
  H   H4258     1.0  0.68886  0.47197  0.82878  1.0000
  H   H4259     1.0  0.67910  0.45248  0.82382  1.0000
  H   H4260     1.0  0.66399  0.44737  0.84192  1.0000
  H   H4261     1.0  0.65188  0.45973  0.84856  1.0000
  H   H4262     1.0  0.65966  0.46561  0.87086  1.0000
  H   H4263     1.0  0.65602  0.48177  0.81844  1.0000
  H   H4264     1.0  0.66148  0.48562  0.84756  1.0000
  H   H4265     1.0  0.66194  0.45016  0.79788  1.0000
  H   H4266     1.0  0.65186  0.45918  0.80420  1.0000
  H   H4267     1.0  0.66931  0.45347  0.88591  1.0000
  H   H4268     1.0  0.68434  0.45644  0.86678  1.0000
  H   H4269     1.0  0.68867  0.48723  0.78995  1.0000
  C   C2428     1.0  0.58612  0.25362  0.77785  1.0000
  C   C2429     1.0  0.64679  0.25985  0.72783  1.0000
  H   H4270     1.0  0.53507  0.41658  0.57311  1.0000
  H   H4271     1.0  0.64219  0.47434  0.88137  1.0000
  H   H4272     1.0  0.64692  0.49266  0.49385  1.0000
  H   H4273     1.0  0.63681  0.47115  0.85166  1.0000
  H   H4274     1.0  0.65429  0.45563  0.75639  1.0000
  H   H4275     1.0  0.65960  0.47105  0.75373  1.0000
  H   H4276     1.0  0.66978  0.46209  0.74770  1.0000
  C   C2430     1.0  0.52963  0.41872  0.55810  1.0000
  H   H4277     1.0  0.67783  0.43663  0.89856  1.0000
  H   H4278     1.0  0.50295  0.49878  0.57702  1.0000
  H   H4279     1.0  0.53885  0.39804  0.91823  1.0000
  H   H4280     1.0  0.62709  0.31375  0.69480  1.0000
  S   S547      1.0  0.70885  0.28515  0.64487  1.0000
  S   S548      1.0  0.68950  0.29517  0.61606  1.0000
  H   H4281     1.0  0.74091  0.31370  0.59866  1.0000
  H   H4282     1.0  0.63736  0.27018  0.51103  1.0000
  H   H4283     1.0  0.69811  0.30605  0.77288  1.0000
  N   N138      1.0  0.67224  0.42577  0.54518  1.0000
  C   C2431     1.0  0.67048  0.43463  0.56221  1.0000
  C   C2432     1.0  0.66112  0.41613  0.55172  1.0000
  C   C2433     1.0  0.65265  0.41789  0.53241  1.0000
  C   C2434     1.0  0.66159  0.44180  0.55597  1.0000
  C   C2435     1.0  0.66154  0.45107  0.57292  1.0000
  H   H4284     1.0  0.74921  0.48792  0.54356  1.0000
  H   H4285     1.0  0.72352  0.43965  0.76160  1.0000
  H   H4286     1.0  0.66731  0.43025  0.58535  1.0000
  H   H4287     1.0  0.67901  0.44096  0.55930  1.0000
  H   H4288     1.0  0.65610  0.41457  0.57418  1.0000
  C   C2436     1.0  0.56476  0.30307  0.50881  1.0000
  H   H4289     1.0  0.72939  0.42555  0.90276  1.0000
  H   H4290     1.0  0.73791  0.45405  0.76281  1.0000
  H   H4291     1.0  0.58492  0.37456  0.96730  1.0000
  H   H4292     1.0  0.65494  0.45596  0.56862  1.0000
  H   H4293     1.0  0.64237  0.49166  0.97265  1.0000
  H   H4294     1.0  0.67024  0.45746  0.56666  1.0000
  N   N139      1.0  0.62525  0.25980  0.72615  1.0000
  H   H4295     1.0  0.68199  0.41302  0.97761  1.0000
  C   C2437     1.0  0.59688  0.25743  0.49161  1.0000
  N   N140      1.0  0.62881  0.38438  0.74165  1.0000
  C   C2438     1.0  0.62718  0.39340  0.71763  1.0000
  C   C2439     1.0  0.63964  0.38929  0.75063  1.0000
  C   C2440     1.0  0.63064  0.37394  0.73039  1.0000
  C   C2441     1.0  0.61815  0.38007  0.76665  1.0000
  C   C2442     1.0  0.61442  0.38940  0.78119  1.0000
  C   C2443     1.0  0.61667  0.38946  0.70528  1.0000
  C   C2444     1.0  0.63461  0.36439  0.74963  1.0000
  C   C2445     1.0  0.64270  0.40264  0.74917  1.0000
  C   C2446     1.0  0.65206  0.40574  0.76486  1.0000
  C   C2447     1.0  0.60265  0.38417  0.80335  1.0000
  C   C2448     1.0  0.61603  0.39937  0.68126  1.0000
  C   C2449     1.0  0.63620  0.35448  0.73535  1.0000
  H   H4296     1.0  0.63526  0.39633  0.69969  1.0000
  H   H4297     1.0  0.62609  0.40148  0.72410  1.0000
  H   H4298     1.0  0.63913  0.38427  0.77259  1.0000
  H   H4299     1.0  0.64759  0.38811  0.73666  1.0000
  H   H4300     1.0  0.63722  0.37695  0.70947  1.0000
  H   H4301     1.0  0.62247  0.36932  0.72632  1.0000
  H   H4302     1.0  0.61053  0.37544  0.76043  1.0000
  H   H4303     1.0  0.61950  0.37331  0.78380  1.0000
  H   H4304     1.0  0.61348  0.39699  0.76565  1.0000
  H   H4305     1.0  0.62093  0.39249  0.79262  1.0000
  H   H4306     1.0  0.61746  0.38192  0.69611  1.0000
  H   H4307     1.0  0.60828  0.38697  0.72191  1.0000
  H   H4308     1.0  0.62806  0.36040  0.77040  1.0000
  H   H4309     1.0  0.64309  0.36807  0.75376  1.0000
  H   H4310     1.0  0.64623  0.40780  0.72654  1.0000
  H   H4311     1.0  0.63504  0.40561  0.75842  1.0000
  H   H4312     1.0  0.65997  0.40289  0.75639  1.0000
  H   H4313     1.0  0.65464  0.41541  0.76182  1.0000
  H   H4314     1.0  0.64865  0.40144  0.78802  1.0000
  H   H4315     1.0  0.59560  0.38161  0.79284  1.0000
  H   H4316     1.0  0.60296  0.37631  0.81929  1.0000
  H   H4317     1.0  0.60045  0.39080  0.81472  1.0000
  H   H4318     1.0  0.61495  0.40719  0.68910  1.0000
  H   H4319     1.0  0.62407  0.40187  0.66345  1.0000
  H   H4320     1.0  0.60840  0.39633  0.67299  1.0000
  H   H4321     1.0  0.64301  0.35797  0.71477  1.0000
  H   H4322     1.0  0.63899  0.34773  0.74946  1.0000
  H   H4323     1.0  0.62786  0.35019  0.73141  1.0000
  H   H4324     1.0  0.63587  0.30575  0.71270  1.0000
  H   H4325     1.0  0.50812  0.42007  0.59130  1.0000
  C   C2450     1.0  0.66772  0.48888  0.50313  1.0000
  H   H4326     1.0  0.54764  0.37144  0.82273  1.0000
  H   H4327     1.0  0.68945  0.49690  0.84258  1.0000
  H   H4328     1.0  0.67096  0.40806  0.59424  1.0000
  C   C2451     1.0  0.60364  0.32015  0.72761  1.0000
  H   H4329     1.0  0.59596  0.32065  0.86417  1.0000
  H   H4330     1.0  0.59802  0.31679  0.71444  1.0000
  H   H4331     1.0  0.69923  0.29906  0.86735  1.0000
  C   C2452     1.0  0.59618  0.32224  0.75401  1.0000
  H   H4332     1.0  0.59327  0.32217  0.81557  1.0000
  H   H4333     1.0  0.60100  0.30759  0.86146  1.0000
  C   C2453     1.0  0.59322  0.31093  0.86815  1.0000
  H   H4334     1.0  0.59626  0.30855  0.81307  1.0000
  H   H4335     1.0  0.66454  0.25710  0.57099  1.0000
  H   H4336     1.0  0.59186  0.32915  0.74634  1.0000
  H   H4337     1.0  0.58938  0.30711  0.89141  1.0000
  H   H4338     1.0  0.60993  0.32854  0.71447  1.0000
  H   H4339     1.0  0.54560  0.48721  0.56680  1.0000
  H   H4340     1.0  0.57743  0.27068  0.57785  1.0000
  C   C2454     1.0  0.58898  0.31265  0.81943  1.0000
  H   H4341     1.0  0.59159  0.30372  0.77385  1.0000
  C   C2455     1.0  0.57854  0.32880  0.61263  1.0000
  C   C2456     1.0  0.56454  0.48460  0.53220  1.0000
  H   H4342     1.0  0.53654  0.46743  0.93685  1.0000
  H   H4343     1.0  0.51707  0.41828  0.81478  1.0000
  C   C2457     1.0  0.58689  0.31082  0.77206  1.0000
  H   H4344     1.0  0.57312  0.38794  0.94452  1.0000
  N   N141      1.0  0.58040  0.31110  0.80131  1.0000
  C   C2458     1.0  0.57479  0.32129  0.79744  1.0000
  H   H4345     1.0  0.58061  0.30862  0.75916  1.0000
  S   S549      1.0  0.68139  0.27066  0.66861  1.0000
  H   H4346     1.0  0.71494  0.29545  0.77816  1.0000
  H   H4347     1.0  0.72638  0.27965  0.78363  1.0000
  H   H4348     1.0  0.56595  0.26432  0.50473  1.0000
  H   H4349     1.0  0.60451  0.28260  0.70094  1.0000
  C   C2459     1.0  0.54228  0.37491  0.83839  1.0000
  H   H4350     1.0  0.56922  0.32043  0.78226  1.0000
  H   H4351     1.0  0.58146  0.29769  0.85761  1.0000
  H   H4352     1.0  0.57634  0.28697  0.79126  1.0000
  H   H4353     1.0  0.58328  0.28875  0.81941  1.0000
  C   C2460     1.0  0.74477  0.46540  0.78659  1.0000
  H   H4354     1.0  0.53662  0.38533  0.80597  1.0000
  C   C2461     1.0  0.57088  0.29979  0.81340  1.0000
  C   C2462     1.0  0.57495  0.28834  0.81305  1.0000
  C   C2463     1.0  0.57541  0.48010  0.53640  1.0000
  C   C2464     1.0  0.57615  0.46968  0.52354  1.0000
  H   H4355     1.0  0.52692  0.48467  0.55162  1.0000
  C   C2465     1.0  0.53299  0.39774  0.53321  1.0000
  H   H4356     1.0  0.56511  0.49139  0.97470  1.0000
  H   H4357     1.0  0.52670  0.39556  0.55436  1.0000
  C   C2466     1.0  0.55958  0.29626  0.93586  1.0000
  C   C2467     1.0  0.69489  0.26469  0.51623  1.0000
  C   C2468     1.0  0.56740  0.32320  0.82471  1.0000
  C   C2469     1.0  0.56017  0.33192  0.81731  1.0000
  H   H4358     1.0  0.56403  0.29971  0.80137  1.0000
  H   H4359     1.0  0.56614  0.29905  0.83555  1.0000
  H   H4360     1.0  0.57333  0.32696  0.83679  1.0000
  H   H4361     1.0  0.56588  0.34040  0.80309  1.0000
  H   H4362     1.0  0.72996  0.34157  0.61959  1.0000
  C   C2470     1.0  0.65250  0.28578  0.64278  1.0000
  H   H4363     1.0  0.65157  0.47913  0.91928  1.0000
  H   H4364     1.0  0.74197  0.45685  0.59327  1.0000
  H   H4365     1.0  0.55111  0.48784  0.69383  1.0000
  H   H4366     1.0  0.64425  0.47702  0.97408  1.0000
  C   C2471     1.0  0.56578  0.27760  0.83311  1.0000
  H   H4367     1.0  0.73425  0.28742  0.61386  1.0000
  H   H4368     1.0  0.56825  0.26946  0.83015  1.0000
  H   H4369     1.0  0.54312  0.44819  0.74458  1.0000
  C   C2472     1.0  0.56834  0.49731  0.56556  1.0000
  H   H4370     1.0  0.67745  0.28320  0.52610  1.0000
  H   H4371     1.0  0.56118  0.31499  0.83870  1.0000
  H   H4372     1.0  0.55360  0.32828  0.80662  1.0000
  H   H4373     1.0  0.56533  0.27789  0.85545  1.0000
  C   C2473     1.0  0.51335  0.44742  0.79295  1.0000
  S   S550      1.0  0.58551  0.36134  0.89257  1.0000
  H   H4374     1.0  0.72917  0.44071  0.89123  1.0000
  C   C2474     1.0  0.56295  0.46963  0.97910  1.0000
  H   H4375     1.0  0.72224  0.42887  0.85965  1.0000
  S   S551      1.0  0.51321  0.48326  0.61001  1.0000
  C   C2475     1.0  0.51537  0.45106  0.76309  1.0000
  S   S552      1.0  0.51395  0.48124  0.67790  1.0000
  H   H4376     1.0  0.60715  0.49630  0.53776  1.0000
  S   S553      1.0  0.70566  0.47920  0.93734  1.0000
  C   C2476     1.0  0.52498  0.40755  0.85765  1.0000
  H   H4377     1.0  0.55927  0.26926  0.56147  1.0000
  C   C2477     1.0  0.68169  0.42038  0.55377  1.0000
  C   C2478     1.0  0.73277  0.28536  0.79133  1.0000
  N   N142      1.0  0.54946  0.48295  0.96391  1.0000
  H   H4378     1.0  0.65092  0.42669  0.52949  1.0000
  H   H4379     1.0  0.65443  0.26778  0.75780  1.0000
  H   H4380     1.0  0.67186  0.32619  0.59889  1.0000
  H   H4381     1.0  0.66717  0.25499  0.82086  1.0000
  H   H4382     1.0  0.61290  0.32310  0.50066  1.0000
  H   H4383     1.0  0.55461  0.47004  0.81573  1.0000
  C   C2479     1.0  0.59327  0.25612  0.52116  1.0000
  H   H4384     1.0  0.70713  0.48454  0.56576  1.0000
  H   H4385     1.0  0.58268  0.35135  0.49761  1.0000
  C   C2480     1.0  0.52157  0.41469  0.79807  1.0000
  H   H4386     1.0  0.74666  0.28577  0.84166  1.0000
  C   C2481     1.0  0.55423  0.37758  0.90730  1.0000
  C   C2482     1.0  0.53032  0.45586  0.49646  1.0000
  H   H4387     1.0  0.70387  0.25777  0.54657  1.0000
  H   H4388     1.0  0.54225  0.46022  0.52186  1.0000
  H   H4389     1.0  0.57729  0.27651  0.96768  1.0000
  H   H4390     1.0  0.61502  0.30341  0.97205  1.0000
  H   H4391     1.0  0.57781  0.33762  0.60201  1.0000
  C   C2483     1.0  0.55623  0.47217  0.79211  1.0000
  C   C2484     1.0  0.52456  0.45913  0.54388  1.0000
  C   C2485     1.0  0.53323  0.45863  0.52077  1.0000
  S   S554      1.0  0.65947  0.29106  0.66698  1.0000
  H   H4392     1.0  0.66387  0.45936  0.96659  1.0000
  H   H4393     1.0  0.72923  0.30357  0.75760  1.0000
  Fe  Fe270     1.0  0.72059  0.48125  0.89934  1.0000
  C   C2486     1.0  0.53297  0.44498  0.78791  1.0000
  H   H4394     1.0  0.64115  0.35017  0.56523  1.0000
  H   H4395     1.0  0.52191  0.41107  0.56490  1.0000
  Fe  Fe271     1.0  0.60867  0.49959  0.93679  1.0000
  H   H4396     1.0  0.73443  0.43141  0.75798  1.0000
  H   H4397     1.0  0.54761  0.40940  0.54079  1.0000
  C   C2487     1.0  0.55930  0.29065  0.50592  1.0000
  H   H4398     1.0  0.56213  0.43088  0.81401  1.0000
  C   C2488     1.0  0.56321  0.44598  0.48158  1.0000
  H   H4399     1.0  0.59407  0.38784  0.97083  1.0000
  H   H4400     1.0  0.59213  0.33082  0.48245  1.0000
  Fe  Fe272     1.0  0.56627  0.35256  0.90933  1.0000
  H   H4401     1.0  0.69022  0.42710  0.54685  1.0000
  S   S555      1.0  0.54723  0.26363  0.90402  1.0000
  H   H4402     1.0  0.57592  0.40286  0.88913  1.0000
  H   H4403     1.0  0.70827  0.29336  0.57134  1.0000
  H   H4404     1.0  0.55376  0.40458  0.84532  1.0000
  H   H4405     1.0  0.68345  0.28108  0.57152  1.0000
  Fe  Fe273     1.0  0.69386  0.47602  0.90832  1.0000
  C   C2489     1.0  0.51587  0.41522  0.51739  1.0000
  C   C2490     1.0  0.72507  0.28645  0.48174  1.0000
  H   H4406     1.0  0.58890  0.39474  0.53944  1.0000
  C   C2491     1.0  0.51606  0.42640  0.59209  1.0000
  C   C2492     1.0  0.63188  0.25519  0.67754  1.0000
  H   H4407     1.0  0.74834  0.40538  0.62483  1.0000
  H   H4408     1.0  0.60284  0.29015  0.95473  1.0000
  H   H4409     1.0  0.70451  0.30223  0.81468  1.0000
  H   H4410     1.0  0.52423  0.38504  0.85256  1.0000
  N   N143      1.0  0.73703  0.47247  0.57369  1.0000
  H   H4411     1.0  0.73361  0.29738  0.92104  1.0000
  C   C2493     1.0  0.72614  0.48793  0.55564  1.0000
  H   H4412     1.0  0.51182  0.42135  0.76912  1.0000
  H   H4413     1.0  0.56960  0.32295  0.62222  1.0000
  H   H4414     1.0  0.74409  0.33825  0.86369  1.0000
  H   H4415     1.0  0.61221  0.49078  0.86069  1.0000
  H   H4416     1.0  0.62379  0.49520  0.55976  1.0000
  C   C2494     1.0  0.52908  0.42182  0.50668  1.0000
  C   C2495     1.0  0.55517  0.27495  0.94206  1.0000
  C   C2496     1.0  0.65685  0.48812  0.91252  1.0000
  C   C2497     1.0  0.72643  0.47480  0.56401  1.0000
  H   H4417     1.0  0.60124  0.38843  0.53776  1.0000
  H   H4418     1.0  0.72883  0.47757  0.61092  1.0000
  H   H4419     1.0  0.58343  0.46552  0.78357  1.0000
  H   H4420     1.0  0.71574  0.42082  0.75249  1.0000
  C   C2498     1.0  0.53948  0.38805  0.53322  1.0000
  C   C2499     1.0  0.54934  0.50229  0.79134  1.0000
  S   S556      1.0  0.56037  0.41707  0.90246  1.0000
  Fe  Fe274     1.0  0.57029  0.32788  0.92694  1.0000
  C   C2500     1.0  0.55262  0.27623  0.91556  1.0000
  H   H4421     1.0  0.68299  0.41339  0.54274  1.0000
  H   H4422     1.0  0.58216  0.27897  0.91610  1.0000
  H   H4423     1.0  0.54952  0.39276  0.81412  1.0000
  S   S557      1.0  0.70879  0.47991  0.86922  1.0000
  C   C2501     1.0  0.61237  0.28704  0.70664  1.0000
  H   H4424     1.0  0.72560  0.47143  0.54511  1.0000
  H   H4425     1.0  0.71938  0.43385  0.81401  1.0000
  H   H4426     1.0  0.73831  0.26325  0.49601  1.0000
  H   H4427     1.0  0.55316  0.26737  0.52251  1.0000
  H   H4428     1.0  0.60139  0.49248  0.84114  1.0000
  H   H4429     1.0  0.67994  0.28587  0.79821  1.0000
  C   C2502     1.0  0.54462  0.38237  0.91419  1.0000
  C   C2503     1.0  0.57355  0.28143  0.52634  1.0000
  H   H4430     1.0  0.56214  0.42761  0.49651  1.0000
  S   S558      1.0  0.55029  0.44309  0.92609  1.0000
  Fe  Fe275     1.0  0.54806  0.42919  0.90169  1.0000
  H   H4431     1.0  0.74443  0.46608  0.80866  1.0000
  C   C2504     1.0  0.73080  0.31787  0.68470  1.0000
  C   C2505     1.0  0.68895  0.40827  0.59161  1.0000
  C   C2506     1.0  0.63545  0.28263  0.62390  1.0000
  H   H4432     1.0  0.55764  0.30630  0.89669  1.0000
  C   C2507     1.0  0.56181  0.48830  0.59441  1.0000
  H   H4433     1.0  0.57292  0.38153  0.89210  1.0000
  H   H4434     1.0  0.54174  0.42155  0.81362  1.0000
  S   S559      1.0  0.52839  0.42586  0.91242  1.0000
  H   H4435     1.0  0.53638  0.39130  0.86384  1.0000
  H   H4436     1.0  0.53482  0.46489  0.83281  1.0000
  C   C2508     1.0  0.69209  0.33286  0.65393  1.0000
  C   C2509     1.0  0.55759  0.40192  0.90350  1.0000
  C   C2510     1.0  0.51004  0.45442  0.51773  1.0000
  H   H4437     1.0  0.70151  0.29728  0.48480  1.0000
  H   H4438     1.0  0.64661  0.48989  0.53059  1.0000
  C   C2511     1.0  0.56548  0.38507  0.89787  1.0000
  Fe  Fe276     1.0  0.70283  0.30166  0.63838  1.0000
  C   C2512     1.0  0.74159  0.47620  0.77103  1.0000
  H   H4439     1.0  0.58083  0.39855  0.49584  1.0000
  H   H4440     1.0  0.63766  0.29277  0.65435  1.0000
  C   C2513     1.0  0.64154  0.28763  0.64146  1.0000
  C   C2514     1.0  0.68336  0.33099  0.63594  1.0000
  S   S560      1.0  0.67533  0.47816  0.91057  1.0000
  H   H4441     1.0  0.62702  0.30653  0.57771  1.0000
  H   H4442     1.0  0.54730  0.41096  0.79905  1.0000
  H   H4443     1.0  0.69775  0.41456  0.58408  1.0000
  C   C2515     1.0  0.72291  0.30178  0.77878  1.0000
  H   H4444     1.0  0.61614  0.26064  0.76792  1.0000
  H   H4445     1.0  0.52550  0.41712  0.85132  1.0000
  H   H4446     1.0  0.59562  0.27635  0.97967  1.0000
  C   C2516     1.0  0.72391  0.31480  0.66651  1.0000
  C   C2517     1.0  0.62475  0.33909  0.56427  1.0000
  C   C2518     1.0  0.61936  0.26831  0.71134  1.0000
  H   H4447     1.0  0.74613  0.47566  0.52937  1.0000
  H   H4448     1.0  0.65980  0.34504  0.66673  1.0000
  H   H4449     1.0  0.64123  0.34669  0.53157  1.0000
  H   H4450     1.0  0.62703  0.28410  0.62288  1.0000
  C   C2519     1.0  0.70512  0.31021  0.75291  1.0000
  H   H4451     1.0  0.59919  0.26021  0.53202  1.0000
  H   H4452     1.0  0.67345  0.35089  0.64062  1.0000
  C   C2520     1.0  0.64087  0.40877  0.54477  1.0000
  C   C2521     1.0  0.74015  0.34272  0.54145  1.0000
  C   C2522     1.0  0.56056  0.27081  0.50303  1.0000
  C   C2523     1.0  0.61671  0.27811  0.72581  1.0000
  H   H4453     1.0  0.56887  0.38030  0.50991  1.0000
  C   C2524     1.0  0.72762  0.29480  0.80180  1.0000
  C   C2525     1.0  0.51296  0.45721  0.54204  1.0000
  H   H4454     1.0  0.51535  0.46585  0.82401  1.0000
  H   H4455     1.0  0.57056  0.30861  0.48797  1.0000
  H   H4456     1.0  0.63609  0.27043  0.74585  1.0000
  H   H4457     1.0  0.71886  0.30582  0.67069  1.0000
  H   H4458     1.0  0.62581  0.25880  0.66630  1.0000
  H   H4459     1.0  0.50854  0.45336  0.75373  1.0000
  H   H4460     1.0  0.73258  0.43479  0.55483  1.0000
  C   C2526     1.0  0.69227  0.27702  0.81297  1.0000
  Fe  Fe277     1.0  0.67755  0.28840  0.65997  1.0000
  C   C2527     1.0  0.56346  0.42201  0.82172  1.0000
  H   H4461     1.0  0.56634  0.49381  0.93796  1.0000
  C   C2528     1.0  0.73709  0.44338  0.83293  1.0000
  C   C2529     1.0  0.71568  0.31830  0.75849  1.0000
  C   C2530     1.0  0.52213  0.44442  0.80551  1.0000
  H   H4462     1.0  0.56028  0.28454  0.56012  1.0000
  C   C2531     1.0  0.58868  0.39720  0.48196  1.0000
  C   C2532     1.0  0.68137  0.42485  0.49397  1.0000
  H   H4463     1.0  0.55394  0.49097  0.60391  1.0000
  H   H4464     1.0  0.54524  0.46390  0.97513  1.0000
  H   H4465     1.0  0.58755  0.26967  0.74693  1.0000
  S   S561      1.0  0.51885  0.43908  0.84306  1.0000
  C   C2533     1.0  0.60788  0.31608  0.56829  1.0000
  C   C2534     1.0  0.55709  0.29760  0.90921  1.0000
  H   H4466     1.0  0.55095  0.28863  0.87945  1.0000
  C   C2535     1.0  0.65716  0.26674  0.73590  1.0000
  C   C2536     1.0  0.59820  0.33125  0.57867  1.0000
  C   C2537     1.0  0.54302  0.41253  0.81952  1.0000
  H   H4467     1.0  0.68397  0.44003  0.51085  1.0000
  H   H4468     1.0  0.51085  0.39132  0.87824  1.0000
  H   H4469     1.0  0.52964  0.40072  0.79257  1.0000
  H   H4470     1.0  0.51773  0.48063  0.82867  1.0000
  C   C2538     1.0  0.56689  0.37811  0.49053  1.0000
  H   H4471     1.0  0.72007  0.30642  0.56375  1.0000
  C   C2539     1.0  0.52609  0.45129  0.74546  1.0000
  S   S562      1.0  0.52898  0.45509  0.70772  1.0000
  C   C2540     1.0  0.74931  0.43787  0.67746  1.0000
  H   H4472     1.0  0.53449  0.47048  0.78423  1.0000
  H   H4473     1.0  0.56769  0.41910  0.80328  1.0000
  H   H4474     1.0  0.68485  0.28282  0.74953  1.0000
  H   H4475     1.0  0.71039  0.26509  0.77224  1.0000
  Fe  Fe278     1.0  0.58718  0.34973  0.93266  1.0000
  C   C2541     1.0  0.65149  0.27435  0.60797  1.0000
  H   H4476     1.0  0.69657  0.32402  0.73961  1.0000
  H   H4477     1.0  0.51941  0.42253  0.61012  1.0000
  H   H4478     1.0  0.55176  0.46396  0.78770  1.0000
  H   H4479     1.0  0.73549  0.28092  0.51173  1.0000
  C   C2542     1.0  0.63418  0.31453  0.70599  1.0000
  C   C2543     1.0  0.63587  0.34893  0.54969  1.0000
  H   H4480     1.0  0.51358  0.43447  0.59588  1.0000
  C   C2544     1.0  0.55129  0.47650  0.73401  1.0000
  C   C2545     1.0  0.53483  0.44814  0.75807  1.0000
  H   H4481     1.0  0.54089  0.49345  0.93808  1.0000
  C   C2546     1.0  0.69995  0.31710  0.73135  1.0000
  S   S563      1.0  0.71528  0.31953  0.61962  1.0000
  H   H4482     1.0  0.51098  0.40328  0.91339  1.0000
  H   H4483     1.0  0.71297  0.32638  0.76147  1.0000
  H   H4484     1.0  0.72278  0.32121  0.73844  1.0000
  H   H4485     1.0  0.55609  0.47062  0.94269  1.0000
  H   H4486     1.0  0.54169  0.47305  0.73866  1.0000
  S   S564      1.0  0.68860  0.27931  0.84728  1.0000
  H   H4487     1.0  0.56086  0.38325  0.48369  1.0000
  C   C2547     1.0  0.74554  0.47967  0.64177  1.0000
  N   N144      1.0  0.73773  0.44248  0.80269  1.0000
  H   H4488     1.0  0.66410  0.36341  0.60993  1.0000
  H   H4489     1.0  0.69259  0.31103  0.72738  1.0000
  H   H4490     1.0  0.58044  0.28955  0.52372  1.0000
  H   H4491     1.0  0.61497  0.34581  0.53542  1.0000
  H   H4492     1.0  0.67585  0.48377  0.97856  1.0000
  H   H4493     1.0  0.55524  0.46914  0.74026  1.0000
  C   C2548     1.0  0.74149  0.34183  0.78597  1.0000
  H   H4494     1.0  0.51667  0.46834  0.85783  1.0000
  H   H4495     1.0  0.73153  0.44934  0.83856  1.0000
  S   S565      1.0  0.68100  0.25583  0.91925  1.0000
  C   C2549     1.0  0.55579  0.48132  0.70172  1.0000
  H   H4496     1.0  0.53976  0.44257  0.79726  1.0000
  H   H4497     1.0  0.69903  0.31437  0.86167  1.0000
  S   S566      1.0  0.70271  0.27865  0.91260  1.0000
  H   H4498     1.0  0.58807  0.26044  0.70660  1.0000
  H   H4499     1.0  0.69161  0.32442  0.66899  1.0000
  H   H4500     1.0  0.71798  0.30757  0.51498  1.0000
  C   C2550     1.0  0.66909  0.49034  0.90635  1.0000
  H   H4501     1.0  0.73713  0.48073  0.65368  1.0000
  H   H4502     1.0  0.57838  0.27447  0.52544  1.0000
  S   S567      1.0  0.70111  0.27045  0.72440  1.0000
  H   H4503     1.0  0.70667  0.32127  0.71080  1.0000
  H   H4504     1.0  0.68575  0.32462  0.62385  1.0000
  H   H4505     1.0  0.64210  0.39970  0.54825  1.0000
  H   H4506     1.0  0.73839  0.32191  0.76305  1.0000
  H   H4507     1.0  0.73107  0.31121  0.70271  1.0000
  C   C2551     1.0  0.59421  0.38912  0.50078  1.0000
  C   C2552     1.0  0.60106  0.35952  0.48790  1.0000
  H   H4508     1.0  0.58227  0.29191  0.94841  1.0000
  H   H4509     1.0  0.73328  0.29731  0.53566  1.0000
  H   H4510     1.0  0.57708  0.48461  0.60787  1.0000
  H   H4511     1.0  0.66415  0.26198  0.73511  1.0000
  C   C2553     1.0  0.58969  0.35547  0.50556  1.0000
  C   C2554     1.0  0.70461  0.30811  0.86415  1.0000
  H   H4512     1.0  0.72052  0.30516  0.84218  1.0000
  H   H4513     1.0  0.74712  0.35075  0.53880  1.0000
  C   C2555     1.0  0.74753  0.31041  0.58574  1.0000
  H   H4514     1.0  0.66962  0.33069  0.67197  1.0000
  H   H4515     1.0  0.56757  0.44863  0.49770  1.0000
  C   C2556     1.0  0.59517  0.38677  0.92810  1.0000
  C   C2557     1.0  0.58500  0.28366  0.95435  1.0000
  H   H4516     1.0  0.55083  0.37258  0.97352  1.0000
  H   H4517     1.0  0.73574  0.42463  0.85302  1.0000
  C   C2558     1.0  0.54421  0.48545  0.93886  1.0000
  C   C2559     1.0  0.66328  0.49996  0.50237  1.0000
  N   N145      1.0  0.56330  0.49576  0.54078  1.0000
  H   H4518     1.0  0.72032  0.29027  0.82110  1.0000
  H   H4519     1.0  0.58179  0.39977  0.95281  1.0000
  H   H4520     1.0  0.52643  0.47357  0.95733  1.0000
  H   H4521     1.0  0.53600  0.48101  0.89225  1.0000
  H   H4522     1.0  0.66607  0.27787  0.62637  1.0000
  C   C2560     1.0  0.53791  0.47801  0.79257  1.0000
  C   C2561     1.0  0.59703  0.39422  0.52505  1.0000
  H   H4523     1.0  0.70824  0.42119  0.78747  1.0000
  H   H4524     1.0  0.56819  0.46233  0.53368  1.0000
  C   C2562     1.0  0.61698  0.33730  0.54341  1.0000
  Fe  Fe279     1.0  0.71474  0.26671  0.91091  1.0000
  C   C2563     1.0  0.62120  0.30224  0.56613  1.0000
  C   C2564     1.0  0.68939  0.27966  0.76498  1.0000
  C   C2565     1.0  0.72777  0.43276  0.80201  1.0000
  Fe  Fe280     1.0  0.53096  0.44093  0.93332  1.0000
  C   C2566     1.0  0.55040  0.49527  0.54942  1.0000
  C   C2567     1.0  0.53311  0.47360  0.82538  1.0000
  C   C2568     1.0  0.68671  0.27656  0.55614  1.0000
  C   C2569     1.0  0.55588  0.49240  0.79296  1.0000
  N   N146      1.0  0.60575  0.32769  0.55529  1.0000
  C   C2570     1.0  0.73145  0.32166  0.78197  1.0000
  H   H4525     1.0  0.54442  0.38768  0.54982  1.0000
  C   C2571     1.0  0.61089  0.49337  0.83900  1.0000
  H   H4526     1.0  0.66977  0.31677  0.66598  1.0000
  C   C2572     1.0  0.55602  0.43317  0.49252  1.0000
  C   C2573     1.0  0.69415  0.26936  0.56205  1.0000
  H   H4527     1.0  0.54713  0.35128  0.98004  1.0000
  H   H4528     1.0  0.72014  0.32027  0.83653  1.0000
  Fe  Fe281     1.0  0.69447  0.27807  0.62587  1.0000
  C   C2574     1.0  0.58931  0.28012  0.92702  1.0000
  C   C2575     1.0  0.70086  0.27119  0.80551  1.0000
  H   H4529     1.0  0.63524  0.40981  0.52984  1.0000
  C   C2576     1.0  0.64026  0.27569  0.60779  1.0000
  H   H4530     1.0  0.72675  0.45535  0.60004  1.0000
  H   H4531     1.0  0.72281  0.33494  0.79526  1.0000
  C   C2577     1.0  0.73346  0.43383  0.88569  1.0000
  C   C2578     1.0  0.73180  0.43186  0.85719  1.0000
  H   H4532     1.0  0.56650  0.27500  0.60089  1.0000
  H   H4533     1.0  0.72729  0.45464  0.79277  1.0000
  C   C2579     1.0  0.72375  0.29372  0.53959  1.0000
  H   H4534     1.0  0.55562  0.39108  0.96852  1.0000
  H   H4535     1.0  0.74082  0.28950  0.77374  1.0000
  H   H4536     1.0  0.62463  0.28290  0.73057  1.0000
  C   C2580     1.0  0.72365  0.32332  0.64291  1.0000
  H   H4537     1.0  0.63481  0.26294  0.48412  1.0000
  H   H4538     1.0  0.55618  0.48938  0.81553  1.0000
  C   C2581     1.0  0.59920  0.32664  0.53264  1.0000
  H   H4539     1.0  0.61898  0.36779  0.48507  1.0000
  H   H4540     1.0  0.66594  0.43277  0.88268  1.0000
  H   H4541     1.0  0.74591  0.44755  0.83486  1.0000
  H   H4542     1.0  0.56439  0.45385  0.96481  1.0000
  H   H4543     1.0  0.64078  0.27429  0.70839  1.0000
  C   C2582     1.0  0.65759  0.27934  0.62556  1.0000
  H   H4544     1.0  0.70781  0.30846  0.88347  1.0000
  C   C2583     1.0  0.50156  0.50142  0.55547  1.0000
  H   H4545     1.0  0.69803  0.26002  0.50111  1.0000
  H   H4546     1.0  0.65016  0.25855  0.70646  1.0000
  C   C2584     1.0  0.61642  0.31129  0.54869  1.0000
  H   H4547     1.0  0.66645  0.30279  0.93621  1.0000
  H   H4548     1.0  0.70137  0.49327  0.82031  1.0000
  H   H4549     1.0  0.62485  0.27296  0.68952  1.0000
  H   H4550     1.0  0.54689  0.37595  0.85524  1.0000
  H   H4551     1.0  0.65262  0.43590  0.56274  1.0000
  H   H4552     1.0  0.58064  0.32316  0.57432  1.0000
  H   H4553     1.0  0.72392  0.43599  0.58777  1.0000
  H   H4554     1.0  0.71829  0.46996  0.58104  1.0000
  C   C2585     1.0  0.61129  0.48884  0.53791  1.0000
  C   C2586     1.0  0.69794  0.27373  0.75766  1.0000
  C   C2587     1.0  0.68331  0.27773  0.53041  1.0000
  H   H4555     1.0  0.59778  0.34049  0.57101  1.0000
  S   S568      1.0  0.57808  0.25980  0.88435  1.0000
  C   C2588     1.0  0.66322  0.29307  0.94141  1.0000
  C   C2589     1.0  0.66060  0.33912  0.62687  1.0000
  H   H4556     1.0  0.60256  0.38255  0.92749  1.0000
  H   H4557     1.0  0.74082  0.35105  0.78377  1.0000
  H   H4558     1.0  0.59954  0.30907  0.57642  1.0000
  C   C2590     1.0  0.73261  0.43939  0.57205  1.0000
  C   C2591     1.0  0.51990  0.47204  0.83440  1.0000
  C   C2592     1.0  0.72625  0.43192  0.77206  1.0000
  Fe  Fe282     1.0  0.69537  0.27941  0.68680  1.0000
  H   H4559     1.0  0.62749  0.33099  0.57204  1.0000
  S   S569      1.0  0.56793  0.34176  0.95057  1.0000
  C   C2593     1.0  0.73021  0.33493  0.63770  1.0000
  C   C2594     1.0  0.55298  0.47150  0.96473  1.0000
  H   H4560     1.0  0.72823  0.45411  0.54832  1.0000
  H   H4561     1.0  0.61766  0.25313  0.51352  1.0000
  H   H4562     1.0  0.64243  0.31980  0.64828  1.0000
  H   H4563     1.0  0.59183  0.27168  0.93193  1.0000
  H   H4564     1.0  0.61168  0.30690  0.53523  1.0000
  H   H4565     1.0  0.58367  0.48698  0.52649  1.0000
  C   C2595     1.0  0.55530  0.30925  0.51804  1.0000
  Fe  Fe283     1.0  0.69061  0.26372  0.94792  1.0000
  H   H4566     1.0  0.65035  0.35753  0.63700  1.0000
  H   H4567     1.0  0.74178  0.28505  0.64144  1.0000
  H   H4568     1.0  0.74421  0.41832  0.63190  1.0000
  C   C2596     1.0  0.73064  0.47040  0.97987  1.0000
  H   H4569     1.0  0.53587  0.37662  0.92139  1.0000
  H   H4570     1.0  0.73977  0.33071  0.95869  1.0000
  H   H4571     1.0  0.66539  0.31217  0.62314  1.0000
  H   H4572     1.0  0.65641  0.41687  0.51099  1.0000
  C   C2597     1.0  0.73442  0.28033  0.49046  1.0000
  H   H4573     1.0  0.59690  0.28705  0.91235  1.0000
  H   H4574     1.0  0.59400  0.33333  0.53088  1.0000
  Fe  Fe284     1.0  0.69461  0.26947  0.88345  1.0000
  C   C2598     1.0  0.73513  0.45928  0.58312  1.0000
  H   H4575     1.0  0.66281  0.36611  0.64468  1.0000
  C   C2599     1.0  0.53287  0.39160  0.84473  1.0000
  H   H4576     1.0  0.55945  0.31840  0.51794  1.0000
  S   S570      1.0  0.57955  0.25696  0.64215  1.0000
  H   H4577     1.0  0.66440  0.48406  0.48840  1.0000
  H   H4578     1.0  0.73496  0.31873  0.80037  1.0000
  H   H4579     1.0  0.65932  0.44687  0.59615  1.0000
  H   H4580     1.0  0.61103  0.31663  0.58756  1.0000
  C   C2600     1.0  0.54165  0.40994  0.52639  1.0000
  C   C2601     1.0  0.59859  0.32540  0.48252  1.0000
  S   S571      1.0  0.60027  0.35664  0.95620  1.0000
  C   C2602     1.0  0.54642  0.43119  0.52037  1.0000
  H   H4581     1.0  0.55967  0.28369  0.97352  1.0000
  H   H4582     1.0  0.55094  0.43113  0.53784  1.0000
  H   H4583     1.0  0.70985  0.29308  0.51919  1.0000
  H   H4584     1.0  0.54301  0.43917  0.51850  1.0000
  C   C2603     1.0  0.63708  0.26657  0.72720  1.0000
  C   C2604     1.0  0.64968  0.49689  0.51023  1.0000
  H   H4585     1.0  0.52910  0.50031  0.54793  1.0000
  C   C2605     1.0  0.57389  0.46386  0.79289  1.0000
  H   H4586     1.0  0.51779  0.40954  0.76063  1.0000
  H   H4587     1.0  0.50509  0.40649  0.79041  1.0000
  H   H4588     1.0  0.60619  0.48150  0.55669  1.0000
  C   C2606     1.0  0.61015  0.36467  0.49861  1.0000
  H   H4589     1.0  0.68441  0.33945  0.62040  1.0000
  C   C2607     1.0  0.71895  0.29860  0.51431  1.0000
  H   H4590     1.0  0.50671  0.40242  0.85491  1.0000
  H   H4591     1.0  0.61931  0.29174  0.68682  1.0000
  H   H4592     1.0  0.58291  0.32967  0.62996  1.0000
  H   H4593     1.0  0.64632  0.31195  0.61260  1.0000
  C   C2608     1.0  0.62396  0.49249  0.53965  1.0000
  H   H4594     1.0  0.53372  0.48496  0.78419  1.0000
  C   C2609     1.0  0.71676  0.42101  0.77414  1.0000
  H   H4595     1.0  0.72670  0.49209  0.57344  1.0000
  H   H4596     1.0  0.58966  0.38312  0.91507  1.0000
  N   N147      1.0  0.55104  0.48216  0.78185  1.0000
  H   H4597     1.0  0.74290  0.43655  0.88481  1.0000
  H   H4598     1.0  0.55535  0.42180  0.97120  1.0000
  H   H4599     1.0  0.66082  0.30605  0.57935  1.0000
  H   H4600     1.0  0.65190  0.32411  0.69903  1.0000
  N   N148      1.0  0.56753  0.28282  0.50249  1.0000
  C   C2610     1.0  0.51190  0.40091  0.87069  1.0000
  C   C2611     1.0  0.64529  0.32341  0.68656  1.0000
  S   S572      1.0  0.73436  0.27402  0.90786  1.0000
  C   C2612     1.0  0.51866  0.45354  0.49502  1.0000
  C   C2613     1.0  0.67061  0.32609  0.65480  1.0000
  H   H4601     1.0  0.66073  0.27779  0.97517  1.0000
  H   H4602     1.0  0.52965  0.42142  0.78516  1.0000
  H   H4603     1.0  0.54712  0.41112  0.50454  1.0000
  C   C2614     1.0  0.53086  0.49350  0.53673  1.0000
  H   H4604     1.0  0.73503  0.27974  0.80905  1.0000
  C   C2615     1.0  0.51023  0.41479  0.49268  1.0000
  H   H4605     1.0  0.59745  0.30725  0.95907  1.0000
  C   C2616     1.0  0.67670  0.43217  0.51397  1.0000
  H   H4606     1.0  0.54957  0.30964  0.50319  1.0000
  Fe  Fe285     1.0  0.61271  0.26415  0.60837  1.0000
  C   C2617     1.0  0.66370  0.32088  0.61515  1.0000
  H   H4607     1.0  0.58520  0.31453  0.60206  1.0000
  H   H4608     1.0  0.54985  0.30454  0.53988  1.0000
  H   H4609     1.0  0.64964  0.31017  0.66567  1.0000
  H   H4610     1.0  0.72843  0.42403  0.81324  1.0000
  H   H4611     1.0  0.69201  0.42640  0.97752  1.0000
  H   H4612     1.0  0.54531  0.48812  0.51489  1.0000
  H   H4613     1.0  0.54734  0.40879  0.96438  1.0000
  H   H4614     1.0  0.66086  0.27558  0.72075  1.0000
  S   S573      1.0  0.58764  0.26069  0.80496  1.0000
  H   H4615     1.0  0.53725  0.47968  0.83656  1.0000
  H   H4616     1.0  0.52152  0.47242  0.91261  1.0000
  S   S574      1.0  0.74571  0.33314  0.70309  1.0000
  C   C2618     1.0  0.71790  0.29676  0.56640  1.0000
  H   H4617     1.0  0.66336  0.48031  0.96591  1.0000
  H   H4618     1.0  0.72297  0.26258  0.50719  1.0000
  C   C2619     1.0  0.52913  0.47945  0.91229  1.0000
  H   H4619     1.0  0.61099  0.26344  0.70853  1.0000
  S   S575      1.0  0.63206  0.26806  0.58883  1.0000
  H   H4620     1.0  0.57707  0.47233  0.50022  1.0000
  C   C2620     1.0  0.74340  0.47206  0.62129  1.0000
  H   H4621     1.0  0.63365  0.35734  0.54179  1.0000
  H   H4622     1.0  0.71487  0.49863  0.54168  1.0000
  C   C2621     1.0  0.73738  0.32948  0.67952  1.0000
  H   H4623     1.0  0.69037  0.33940  0.66605  1.0000
  H   H4624     1.0  0.70537  0.26795  0.82091  1.0000
  H   H4625     1.0  0.65987  0.26048  0.51820  1.0000
  C   C2622     1.0  0.56960  0.47438  0.78011  1.0000
  H   H4626     1.0  0.62410  0.31820  0.53468  1.0000
  H   H4627     1.0  0.63366  0.50148  0.80735  1.0000
  C   C2623     1.0  0.56542  0.27803  0.55696  1.0000
  H   H4628     1.0  0.66891  0.28976  0.92598  1.0000
  C   C2624     1.0  0.68276  0.42224  0.97897  1.0000
  C   C2625     1.0  0.73504  0.45264  0.55947  1.0000
  H   H4629     1.0  0.57196  0.47583  0.75664  1.0000
  H   H4630     1.0  0.74278  0.30612  0.57211  1.0000
  C   C2626     1.0  0.65410  0.31885  0.59887  1.0000
  H   H4631     1.0  0.62630  0.29800  0.55191  1.0000
  H   H4632     1.0  0.73401  0.29637  0.63921  1.0000
  H   H4633     1.0  0.57767  0.49708  0.56100  1.0000
  H   H4634     1.0  0.62263  0.33593  0.52446  1.0000
  H   H4635     1.0  0.60209  0.33113  0.59712  1.0000
  H   H4636     1.0  0.65531  0.26910  0.59532  1.0000
  H   H4637     1.0  0.65122  0.31280  0.56201  1.0000
  C   C2627     1.0  0.65835  0.31445  0.57281  1.0000
  C   C2628     1.0  0.60649  0.32850  0.50174  1.0000
  C   C2629     1.0  0.50652  0.40512  0.89612  1.0000
  S   S576      1.0  0.73739  0.49567  0.88915  1.0000
  H   H4638     1.0  0.56932  0.45575  0.78829  1.0000
  H   H4639     1.0  0.59273  0.31791  0.53891  1.0000
  H   H4640     1.0  0.73468  0.32452  0.56394  1.0000
  C   C2630     1.0  0.64953  0.31957  0.65920  1.0000
  H   H4641     1.0  0.72096  0.29259  0.58457  1.0000
  C   C2631     1.0  0.56031  0.36513  0.49908  1.0000
  H   H4642     1.0  0.74209  0.33822  0.80794  1.0000
  H   H4643     1.0  0.68094  0.43571  0.86220  1.0000
  H   H4644     1.0  0.50082  0.41012  0.50100  1.0000
  H   H4645     1.0  0.65143  0.32705  0.59175  1.0000
  C   C2632     1.0  0.66004  0.35952  0.63307  1.0000
  H   H4646     1.0  0.57853  0.49449  0.87561  1.0000
  H   H4647     1.0  0.65416  0.29073  0.93905  1.0000
  H   H4648     1.0  0.55155  0.28622  0.52429  1.0000
  H   H4649     1.0  0.65169  0.33910  0.62387  1.0000
  H   H4650     1.0  0.57233  0.46250  0.81633  1.0000
  H   H4651     1.0  0.58292  0.30417  0.97952  1.0000
  C   C2633     1.0  0.54068  0.38673  0.82351  1.0000
  H   H4652     1.0  0.56367  0.49075  0.74109  1.0000
  C   C2634     1.0  0.58699  0.26036  0.75052  1.0000
  C   C2635     1.0  0.66384  0.34836  0.64360  1.0000
  H   H4653     1.0  0.63632  0.40998  0.56539  1.0000
  H   H4654     1.0  0.55105  0.48728  0.91845  1.0000
  H   H4655     1.0  0.70112  0.33621  0.63983  1.0000
  H   H4656     1.0  0.64903  0.26383  0.54236  1.0000
  C   C2636     1.0  0.71484  0.48919  0.54754  1.0000
  H   H4657     1.0  0.52936  0.40654  0.87536  1.0000
  C   C2637     1.0  0.69321  0.49622  0.82077  1.0000
  H   H4658     1.0  0.65919  0.27576  0.48665  1.0000
  H   H4659     1.0  0.52663  0.49412  0.51880  1.0000
  H   H4660     1.0  0.66088  0.49979  0.96208  1.0000
  H   H4661     1.0  0.66655  0.34279  0.60503  1.0000
  H   H4662     1.0  0.57243  0.49677  0.61880  1.0000
  H   H4663     1.0  0.73942  0.43732  0.58286  1.0000
  H   H4664     1.0  0.63119  0.31752  0.72531  1.0000
  H   H4665     1.0  0.73743  0.46345  0.63411  1.0000
  C   C2638     1.0  0.74240  0.29630  0.91886  1.0000
  H   H4666     1.0  0.64301  0.33195  0.68100  1.0000
  N   N149      1.0  0.64218  0.25365  0.51543  1.0000
  C   C2639     1.0  0.57249  0.27746  0.57919  1.0000
  H   H4667     1.0  0.66600  0.32108  0.55746  1.0000
  H   H4668     1.0  0.59877  0.39639  0.91869  1.0000
  H   H4669     1.0  0.58816  0.38029  0.51048  1.0000
  C   C2640     1.0  0.73127  0.26731  0.49085  1.0000
  H   H4670     1.0  0.63994  0.26227  0.67327  1.0000
  H   H4671     1.0  0.54077  0.49925  0.80745  1.0000
  H   H4672     1.0  0.62811  0.25342  0.55084  1.0000
  C   C2641     1.0  0.74478  0.28582  0.91345  1.0000
  H   H4673     1.0  0.65321  0.25516  0.86408  1.0000
  H   H4674     1.0  0.52617  0.48760  0.91275  1.0000
  H   H4675     1.0  0.73256  0.47634  0.78140  1.0000
  H   H4676     1.0  0.54084  0.25464  0.49990  1.0000
  H   H4677     1.0  0.53292  0.41924  0.48727  1.0000
  H   H4678     1.0  0.71406  0.48559  0.52895  1.0000
  H   H4679     1.0  0.51433  0.40606  0.52992  1.0000
  H   H4680     1.0  0.54562  0.38965  0.51204  1.0000
  H   H4681     1.0  0.57487  0.47704  0.55940  1.0000
  H   H4682     1.0  0.55408  0.47401  0.69140  1.0000
  H   H4683     1.0  0.74089  0.46166  0.71364  1.0000
  H   H4684     1.0  0.71630  0.28059  0.49357  1.0000
  C   C2642     1.0  0.56938  0.48790  0.61559  1.0000
  H   H4685     1.0  0.56443  0.48556  0.50945  1.0000
  H   H4686     1.0  0.73158  0.34423  0.55083  1.0000
  H   H4687     1.0  0.54956  0.49288  0.74267  1.0000
  H   H4688     1.0  0.56572  0.35956  0.50770  1.0000
  C   C2643     1.0  0.56008  0.49302  0.95863  1.0000
  H   H4689     1.0  0.74012  0.34113  0.52020  1.0000
  H   H4690     1.0  0.66489  0.48297  0.52503  1.0000
  C   C2644     1.0  0.65132  0.49740  0.91081  1.0000
  H   H4691     1.0  0.61369  0.48728  0.82654  1.0000
  H   H4692     1.0  0.74327  0.30119  0.49199  1.0000
  H   H4693     1.0  0.66996  0.43583  0.50579  1.0000
  H   H4694     1.0  0.74197  0.34701  0.65206  1.0000
  C   C2645     1.0  0.54399  0.49526  0.52530  1.0000
  H   H4695     1.0  0.64187  0.49554  0.91615  1.0000
  H   H4696     1.0  0.56415  0.48187  0.63644  1.0000
  H   H4697     1.0  0.69021  0.42408  0.49594  1.0000
  H   H4698     1.0  0.59279  0.49726  0.90443  1.0000
  H   H4699     1.0  0.67287  0.28977  0.97261  1.0000
  C   C2646     1.0  0.57775  0.39014  0.96055  1.0000
  C   C2647     1.0  0.61745  0.25402  0.75576  1.0000
  C   C2648     1.0  0.59451  0.28528  0.97089  1.0000
  H   H4700     1.0  0.60317  0.40310  0.51660  1.0000
  C   C2649     1.0  0.58803  0.38424  0.95889  1.0000
  Fe  Fe286     1.0  0.58873  0.25453  0.60027  1.0000
  C   C2650     1.0  0.74766  0.47819  0.54892  1.0000
  H   H4701     1.0  0.63058  0.49985  0.49400  1.0000
  H   H4702     1.0  0.56517  0.49660  0.78105  1.0000
  H   H4703     1.0  0.50720  0.41472  0.88961  1.0000
  H   H4704     1.0  0.67743  0.49134  0.49624  1.0000
  H   H4705     1.0  0.73710  0.31854  0.50393  1.0000
  H   H4706     1.0  0.73250  0.46527  0.96404  1.0000
  H   H4707     1.0  0.67830  0.46428  0.97151  1.0000
  C   C2651     1.0  0.66362  0.28746  0.97163  1.0000
  H   H4708     1.0  0.57143  0.47523  0.96493  1.0000
  H   H4709     1.0  0.66781  0.25812  0.86875  1.0000
  H   H4710     1.0  0.68027  0.42713  0.96055  1.0000
  H   H4711     1.0  0.74360  0.45553  0.54340  1.0000
  C   C2652     1.0  0.65090  0.25669  0.53231  1.0000
  H   H4712     1.0  0.74212  0.45254  0.48682  1.0000
  H   H4713     1.0  0.61133  0.33790  0.49267  1.0000
  H   H4714     1.0  0.56897  0.41053  0.95572  1.0000
  H   H4715     1.0  0.59837  0.32881  0.96248  1.0000
  H   H4716     1.0  0.55556  0.29221  0.48717  1.0000
  N   N150      1.0  0.72578  0.29880  0.48511  1.0000
  C   C2653     1.0  0.56321  0.40704  0.97768  1.0000
  C   C2654     1.0  0.55249  0.41205  0.97859  1.0000
  C   C2655     1.0  0.67582  0.50199  0.89769  1.0000
  C   C2656     1.0  0.74051  0.31846  0.48146  1.0000
  C   C2657     1.0  0.55744  0.36824  0.98023  1.0000
  H   H4717     1.0  0.59388  0.31593  0.48977  1.0000
  H   H4718     1.0  0.59061  0.27963  0.48138  1.0000
  H   H4719     1.0  0.58607  0.57438  0.20990  1.0000
  C   C2658     1.0  0.53608  0.55343  0.19641  1.0000
  H   H4720     1.0  0.51896  0.52298  0.11630  1.0000
  H   H4721     1.0  0.58651  0.52961  0.04744  1.0000
  H   H4722     1.0  0.64540  0.52097  0.35716  1.0000
  Fe  Fe287     1.0  0.50819  0.59593  0.18815  1.0000
  H   H4723     1.0  0.58890  0.60354  0.01473  1.0000
  C   C2659     1.0  0.50017  0.63620  0.03503  1.0000
  Fe  Fe288     1.0  0.53225  0.61106  0.17761  1.0000
  S   S577      1.0  0.52591  0.62775  0.17381  1.0000
  S   S578      1.0  0.55080  0.60984  0.17810  1.0000
  Fe  Fe289     1.0  0.51131  0.61736  0.21264  1.0000
  H   H4724     1.0  0.61139  0.57311  0.01238  1.0000
  Fe  Fe290     1.0  0.51484  0.62016  0.14683  1.0000
  H   H4725     1.0  0.54687  0.68586  0.01174  1.0000
  S   S579      1.0  0.51837  0.60137  0.21806  1.0000
  S   S580      1.0  0.52243  0.60441  0.14785  1.0000
  Fe  Fe291     1.0  0.57505  0.53152  0.18945  1.0000
  S   S581      1.0  0.59307  0.53020  0.19189  1.0000
  S   S582      1.0  0.55950  0.51609  0.20775  1.0000
  Fe  Fe292     1.0  0.58230  0.55780  0.16141  1.0000
  S   S583      1.0  0.60111  0.55883  0.16209  1.0000
  S   S584      1.0  0.57381  0.57074  0.13792  1.0000
  Fe  Fe293     1.0  0.59876  0.54210  0.14708  1.0000
  S   S585      1.0  0.61188  0.53928  0.11023  1.0000
  Fe  Fe294     1.0  0.59401  0.54672  0.20679  1.0000
  S   S586      1.0  0.59762  0.54889  0.24921  1.0000
  S   S587      1.0  0.58059  0.54187  0.14395  1.0000
  S   S588      1.0  0.57540  0.54719  0.20680  1.0000
  S   S589      1.0  0.60571  0.52454  0.41423  1.0000
  H   H4726     1.0  0.59217  0.50769  0.06942  1.0000
  S   S590      1.0  0.63338  0.52522  0.40979  1.0000
  H   H4727     1.0  0.59631  0.52445  0.47650  1.0000
  Fe  Fe295     1.0  0.61789  0.52611  0.44314  1.0000
  H   H4728     1.0  0.60640  0.55901  0.03626  1.0000
  Fe  Fe296     1.0  0.62060  0.52173  0.38297  1.0000
  S   S591      1.0  0.62562  0.52686  0.33409  1.0000
  C   C2660     1.0  0.51352  0.52088  0.13854  1.0000
  C   C2661     1.0  0.51009  0.53180  0.14517  1.0000
  C   C2662     1.0  0.50891  0.61976  0.03835  1.0000
  H   H4729     1.0  0.64569  0.54266  0.44634  1.0000
  C   C2663     1.0  0.59390  0.60021  0.99810  1.0000
  H   H4730     1.0  0.63470  0.51050  0.27152  1.0000
  C   C2664     1.0  0.50423  0.59134  0.29737  1.0000
  H   H4731     1.0  0.50507  0.52927  0.16777  1.0000
  S   S592      1.0  0.51168  0.63575  0.36288  1.0000
  H   H4732     1.0  0.56223  0.53212  0.31349  1.0000
  H   H4733     1.0  0.54691  0.55569  0.34520  1.0000
  C   C2665     1.0  0.60327  0.56642  0.02559  1.0000
  C   C2666     1.0  0.64314  0.52598  0.47678  1.0000
  H   H4734     1.0  0.58340  0.52053  0.46431  1.0000
  H   H4735     1.0  0.50241  0.56508  0.12339  1.0000
  C   C2667     1.0  0.60446  0.53030  0.02839  1.0000
  Fe  Fe297     1.0  0.60192  0.50516  0.43391  1.0000
  H   H4736     1.0  0.59036  0.55281  0.01747  1.0000
  H   H4737     1.0  0.55696  0.51682  0.28826  1.0000
  C   C2668     1.0  0.56519  0.53408  0.28993  1.0000
  H   H4738     1.0  0.60527  0.58874  0.99386  1.0000
  H   H4739     1.0  0.52730  0.68408  0.00374  1.0000
  S   S593      1.0  0.50979  0.63153  0.11010  1.0000
  H   H4740     1.0  0.57751  0.51162  0.03174  1.0000
  H   H4741     1.0  0.55983  0.51520  0.01971  1.0000
  H   H4742     1.0  0.62293  0.53181  0.01562  1.0000
  C   C2669     1.0  0.60874  0.53567  0.07908  1.0000
  C   C2670     1.0  0.61791  0.53505  0.05724  1.0000
  C   C2671     1.0  0.61579  0.53231  0.03212  1.0000
  C   C2672     1.0  0.55262  0.51380  0.18086  1.0000
  C   C2673     1.0  0.59531  0.53110  0.05005  1.0000
  C   C2674     1.0  0.59739  0.53350  0.07545  1.0000
  H   H4743     1.0  0.62673  0.53668  0.05980  1.0000
  H   H4744     1.0  0.57541  0.55745  0.04167  1.0000
  H   H4745     1.0  0.50247  0.54934  0.07117  1.0000
  H   H4746     1.0  0.59020  0.53366  0.09225  1.0000
  C   C2675     1.0  0.60498  0.54188  0.27270  1.0000
  C   C2676     1.0  0.60196  0.54193  0.30161  1.0000
  C   C2677     1.0  0.60794  0.53708  0.32083  1.0000
  C   C2678     1.0  0.61726  0.53240  0.31120  1.0000
  C   C2679     1.0  0.62027  0.53233  0.28229  1.0000
  C   C2680     1.0  0.61405  0.53686  0.26324  1.0000
  H   H4747     1.0  0.59502  0.54585  0.30917  1.0000
  H   H4748     1.0  0.60556  0.53727  0.34292  1.0000
  H   H4749     1.0  0.62751  0.52883  0.27450  1.0000
  H   H4750     1.0  0.61657  0.53686  0.24105  1.0000
  H   H4751     1.0  0.65885  0.50575  0.99215  1.0000
  H   H4752     1.0  0.50201  0.59092  0.14110  1.0000
  S   S594      1.0  0.61891  0.53946  0.47004  1.0000
  C   C2681     1.0  0.51490  0.62565  0.28834  1.0000
  C   C2682     1.0  0.51687  0.62831  0.31368  1.0000
  C   C2683     1.0  0.50888  0.63267  0.33088  1.0000
  H   H4753     1.0  0.58780  0.59589  0.98715  1.0000
  H   H4754     1.0  0.57493  0.51822  0.31349  1.0000
  H   H4755     1.0  0.52108  0.62220  0.27557  1.0000
  H   H4756     1.0  0.52464  0.62693  0.32008  1.0000
  C   C2684     1.0  0.60462  0.50306  0.30832  1.0000
  C   C2685     1.0  0.66157  0.50585  0.41705  1.0000
  H   H4757     1.0  0.52836  0.63856  0.99025  1.0000
  H   H4758     1.0  0.61331  0.50818  0.06313  1.0000
  C   C2686     1.0  0.50725  0.62945  0.07706  1.0000
  H   H4759     1.0  0.56043  0.51866  0.05311  1.0000
  H   H4760     1.0  0.61436  0.57949  0.10849  1.0000
  H   H4761     1.0  0.61264  0.58345  0.04702  1.0000
  H   H4762     1.0  0.55607  0.53217  0.15967  1.0000
  H   H4763     1.0  0.53609  0.54477  0.19182  1.0000
  C   C2687     1.0  0.59308  0.50665  0.31067  1.0000
  H   H4764     1.0  0.51769  0.65490  0.99377  1.0000
  C   C2688     1.0  0.55693  0.59878  0.16706  1.0000
  C   C2689     1.0  0.55140  0.59121  0.15313  1.0000
  C   C2690     1.0  0.55663  0.58259  0.14457  1.0000
  C   C2691     1.0  0.56719  0.58117  0.15072  1.0000
  C   C2692     1.0  0.57272  0.58875  0.16461  1.0000
  C   C2693     1.0  0.56765  0.59757  0.17250  1.0000
  H   H4765     1.0  0.54322  0.59215  0.14848  1.0000
  H   H4766     1.0  0.55247  0.57701  0.13306  1.0000
  H   H4767     1.0  0.58105  0.58802  0.16860  1.0000
  H   H4768     1.0  0.57208  0.60350  0.18287  1.0000
  H   H4769     1.0  0.51834  0.53849  0.14226  1.0000
  H   H4770     1.0  0.50933  0.53996  0.10342  1.0000
  H   H4771     1.0  0.54028  0.56039  0.17626  1.0000
  C   C2694     1.0  0.56678  0.54759  0.08457  1.0000
  C   C2695     1.0  0.58702  0.56173  0.06948  1.0000
  H   H4772     1.0  0.54610  0.57405  0.20570  1.0000
  H   H4773     1.0  0.65279  0.52986  0.32157  1.0000
  H   H4774     1.0  0.56449  0.57080  0.21179  1.0000
  H   H4775     1.0  0.57387  0.54052  0.28246  1.0000
  H   H4776     1.0  0.58995  0.55351  0.07389  1.0000
  C   C2696     1.0  0.54276  0.55415  0.32785  1.0000
  H   H4777     1.0  0.65819  0.51357  0.41405  1.0000
  H   H4778     1.0  0.67963  0.51558  0.39905  1.0000
  C   C2697     1.0  0.66118  0.51611  0.33757  1.0000
  H   H4779     1.0  0.61527  0.56350  0.06762  1.0000
  H   H4780     1.0  0.54974  0.57205  0.30341  1.0000
  H   H4781     1.0  0.58350  0.56559  0.24596  1.0000
  H   H4782     1.0  0.53043  0.59904  0.26844  1.0000
  H   H4783     1.0  0.53856  0.54760  0.23787  1.0000
  H   H4784     1.0  0.54371  0.59841  0.27910  1.0000
  H   H4785     1.0  0.66161  0.53086  0.37501  1.0000
  H   H4786     1.0  0.54269  0.54509  0.32591  1.0000
  H   H4787     1.0  0.49987  0.58717  0.34261  1.0000
  H   H4788     1.0  0.51448  0.61451  0.07686  1.0000
  C   C2698     1.0  0.60504  0.57680  0.06254  1.0000
  H   H4789     1.0  0.58529  0.56407  0.09023  1.0000
  H   H4790     1.0  0.51387  0.55874  0.11049  1.0000
  C   C2699     1.0  0.50663  0.67844  0.44964  1.0000
  H   H4791     1.0  0.55889  0.53812  0.28054  1.0000
  C   C2700     1.0  0.53915  0.59731  0.26218  1.0000
  H   H4792     1.0  0.59508  0.51633  0.30717  1.0000
  C   C2701     1.0  0.54987  0.58242  0.24831  1.0000
  C   C2702     1.0  0.54968  0.56321  0.29996  1.0000
  C   C2703     1.0  0.51050  0.62057  0.06537  1.0000
  S   S595      1.0  0.50120  0.62313  0.24971  1.0000
  C   C2704     1.0  0.65408  0.52528  0.34209  1.0000
  Fe  Fe298     1.0  0.62777  0.50577  0.42998  1.0000
  H   H4793     1.0  0.62629  0.58121  0.07784  1.0000
  H   H4794     1.0  0.56299  0.55997  0.24319  1.0000
  H   H4795     1.0  0.53138  0.67045  0.00515  1.0000
  C   C2705     1.0  0.54287  0.56704  0.22610  1.0000
  H   H4796     1.0  0.51044  0.68696  0.45364  1.0000
  H   H4797     1.0  0.55826  0.54558  0.07911  1.0000
  H   H4798     1.0  0.56242  0.50397  0.26407  1.0000
  C   C2706     1.0  0.52082  0.57019  0.14723  1.0000
  C   C2707     1.0  0.65103  0.53666  0.45344  1.0000
  C   C2708     1.0  0.56226  0.56911  0.23539  1.0000
  C   C2709     1.0  0.57517  0.51723  0.29157  1.0000
  H   H4799     1.0  0.50373  0.56006  0.17175  1.0000
  H   H4800     1.0  0.62243  0.56841  0.10748  1.0000
  H   H4801     1.0  0.51799  0.57803  0.13783  1.0000
  N   N151      1.0  0.59657  0.57136  0.04741  1.0000
  H   H4802     1.0  0.66925  0.52075  0.32016  1.0000
  H   H4803     1.0  0.58370  0.52313  0.27789  1.0000
  C   C2710     1.0  0.55256  0.52325  0.15904  1.0000
  H   H4804     1.0  0.60037  0.60784  0.98216  1.0000
  H   H4805     1.0  0.57054  0.56600  0.06514  1.0000
  H   H4806     1.0  0.59262  0.50765  0.26701  1.0000
  H   H4807     1.0  0.50894  0.58435  0.29628  1.0000
  H   H4808     1.0  0.55182  0.55435  0.21009  1.0000
  H   H4809     1.0  0.51081  0.67004  0.00492  1.0000
  H   H4810     1.0  0.53258  0.57866  0.27878  1.0000
  N   N152      1.0  0.54990  0.57000  0.24675  1.0000
  H   H4811     1.0  0.52344  0.57157  0.16670  1.0000
  S   S596      1.0  0.49992  0.61097  0.18540  1.0000
  H   H4812     1.0  0.61044  0.55349  0.98905  1.0000
  C   C2711     1.0  0.50620  0.55741  0.12875  1.0000
  C   C2712     1.0  0.50204  0.63722  0.06168  1.0000
  H   H4813     1.0  0.54419  0.60394  0.24198  1.0000
  C   C2713     1.0  0.53776  0.58486  0.25819  1.0000
  H   H4814     1.0  0.51398  0.55153  0.16441  1.0000
  C   C2714     1.0  0.54284  0.55505  0.21877  1.0000
  C   C2715     1.0  0.57241  0.57767  0.24132  1.0000
  C   C2716     1.0  0.56918  0.50513  0.04408  1.0000
  H   H4815     1.0  0.55516  0.58531  0.26257  1.0000
  H   H4816     1.0  0.53353  0.56686  0.23439  1.0000
  H   H4817     1.0  0.55076  0.50513  0.05259  1.0000
  H   H4818     1.0  0.54470  0.55222  0.27356  1.0000
  S   S597      1.0  0.49962  0.65250  0.42343  1.0000
  H   H4819     1.0  0.54758  0.52842  0.11985  1.0000
  H   H4820     1.0  0.53362  0.55494  0.33376  1.0000
  H   H4821     1.0  0.52687  0.55375  0.20418  1.0000
  H   H4822     1.0  0.53273  0.58420  0.24196  1.0000
  H   H4823     1.0  0.56514  0.54886  0.10644  1.0000
  H   H4824     1.0  0.57198  0.50831  0.08375  1.0000
  H   H4825     1.0  0.53473  0.56067  0.28178  1.0000
  H   H4826     1.0  0.57351  0.58679  0.22865  1.0000
  H   H4827     1.0  0.57084  0.57768  0.26405  1.0000
  S   S598      1.0  0.53705  0.50684  0.10793  1.0000
  H   H4828     1.0  0.59117  0.58090  0.23614  1.0000
  C   C2717     1.0  0.61032  0.56819  0.08075  1.0000
  H   H4829     1.0  0.55420  0.58863  0.22702  1.0000
  H   H4830     1.0  0.64833  0.50937  0.25019  1.0000
  H   H4831     1.0  0.60070  0.58156  0.07693  1.0000
  C   C2718     1.0  0.54774  0.52115  0.13657  1.0000
  H   H4832     1.0  0.58676  0.58437  0.05107  1.0000
  C   C2719     1.0  0.57484  0.55874  0.06324  1.0000
  H   H4833     1.0  0.60338  0.56156  0.09810  1.0000
  H   H4834     1.0  0.55873  0.56213  0.29562  1.0000
  H   H4835     1.0  0.65528  0.53388  0.43479  1.0000
  H   H4836     1.0  0.60648  0.59657  0.02092  1.0000
  H   H4837     1.0  0.52854  0.56941  0.13185  1.0000
  C   C2720     1.0  0.58398  0.57442  0.23273  1.0000
  H   H4838     1.0  0.49941  0.64406  0.07057  1.0000
  H   H4839     1.0  0.57065  0.53997  0.08409  1.0000
  H   H4840     1.0  0.51175  0.61304  0.02929  1.0000
  C   C2721     1.0  0.54576  0.68597  0.99003  1.0000
  C   C2722     1.0  0.50489  0.62737  0.27978  1.0000
  C   C2723     1.0  0.55945  0.51141  0.04234  1.0000
  C   C2724     1.0  0.59658  0.56140  0.00554  1.0000
  H   H4841     1.0  0.66417  0.51372  0.35724  1.0000
  H   H4842     1.0  0.57723  0.50860  0.24516  1.0000
  H   H4843     1.0  0.58472  0.57748  0.02372  1.0000
  H   H4844     1.0  0.51069  0.59972  0.29496  1.0000
  H   H4845     1.0  0.59177  0.56742  0.99605  1.0000
  C   C2725     1.0  0.64036  0.50447  0.26748  1.0000
  C   C2726     1.0  0.54424  0.56122  0.27520  1.0000
  C   C2727     1.0  0.56583  0.52280  0.28070  1.0000
  C   C2728     1.0  0.53319  0.67963  0.99212  1.0000
  H   H4846     1.0  0.51872  0.51765  0.15307  1.0000
  H   H4847     1.0  0.50563  0.51370  0.14146  1.0000
  H   H4848     1.0  0.61060  0.50728  0.28680  1.0000
  C   C2729     1.0  0.67370  0.50696  0.40868  1.0000
  C   C2730     1.0  0.61886  0.57479  0.09442  1.0000
  C   C2731     1.0  0.65032  0.50906  0.30552  1.0000
  N   N153      1.0  0.57463  0.50460  0.29083  1.0000
  C   C2732     1.0  0.59147  0.58094  0.03407  1.0000
  H   H4849     1.0  0.64399  0.51441  0.31023  1.0000
  C   C2733     1.0  0.51083  0.55906  0.15500  1.0000
  H   H4850     1.0  0.56818  0.52507  0.25703  1.0000
  S   S599      1.0  0.50281  0.62660  0.98802  1.0000
  C   C2734     1.0  0.60026  0.59161  0.01134  1.0000
  S   S600      1.0  0.61303  0.50688  0.46452  1.0000
  C   C2735     1.0  0.66047  0.53476  0.35379  1.0000
  H   H4851     1.0  0.65525  0.54130  0.35613  1.0000
  H   H4852     1.0  0.61232  0.50537  0.02916  1.0000
  H   H4853     1.0  0.68135  0.50593  0.98902  1.0000
  H   H4854     1.0  0.66917  0.53940  0.33899  1.0000
  H   H4855     1.0  0.65766  0.51488  0.28748  1.0000
  H   H4856     1.0  0.50227  0.56352  0.07756  1.0000
  S   S601      1.0  0.60113  0.52683  0.99731  1.0000
  C   C2736     1.0  0.51001  0.67283  0.98272  1.0000
  C   C2737     1.0  0.54297  0.50962  0.13600  1.0000
  H   H4857     1.0  0.65784  0.54157  0.46164  1.0000
  H   H4858     1.0  0.71410  0.50397  0.27060  1.0000
  H   H4859     1.0  0.55182  0.50359  0.32932  1.0000
  C   C2738     1.0  0.50305  0.53665  0.12479  1.0000
  H   H4860     1.0  0.63616  0.52177  0.46799  1.0000
  H   H4861     1.0  0.50754  0.67982  0.42638  1.0000
  C   C2739     1.0  0.50386  0.62763  0.02284  1.0000
  H   H4862     1.0  0.65241  0.51346  0.46734  1.0000
  H   H4863     1.0  0.51156  0.67194  0.45636  1.0000
  N   N154      1.0  0.65484  0.50515  0.33116  1.0000
  H   H4864     1.0  0.50010  0.59242  0.27933  1.0000
  H   H4865     1.0  0.58770  0.50265  0.33278  1.0000
  H   H4866     1.0  0.60892  0.50592  0.32436  1.0000
  C   C2740     1.0  0.58679  0.50279  0.28852  1.0000
  H   H4867     1.0  0.67031  0.50333  0.30325  1.0000
  H   H4868     1.0  0.67756  0.50348  0.34480  1.0000
  H   H4869     1.0  0.66703  0.50579  0.48047  1.0000
  C   C2741     1.0  0.60499  0.55914  0.98093  1.0000
  C   C2742     1.0  0.59769  0.57504  0.71221  1.0000
  C   C2743     1.0  0.55748  0.51229  0.63866  1.0000
  H   H4870     1.0  0.52415  0.68739  0.87607  1.0000
  H   H4871     1.0  0.61813  0.57492  0.67454  1.0000
  H   H4872     1.0  0.60225  0.56838  0.72018  1.0000
  H   H4873     1.0  0.55088  0.68704  0.61523  1.0000
  H   H4874     1.0  0.67256  0.51135  0.83072  1.0000
  H   H4875     1.0  0.50088  0.60692  0.82560  1.0000
  Fe  Fe299     1.0  0.52808  0.59672  0.68932  1.0000
  S   S602      1.0  0.53202  0.61624  0.66961  1.0000
  S   S603      1.0  0.53901  0.58464  0.70517  1.0000
  Fe  Fe300     1.0  0.51609  0.61605  0.70307  1.0000
  S   S604      1.0  0.51559  0.63083  0.72572  1.0000
  Fe  Fe301     1.0  0.51940  0.61154  0.64312  1.0000
  S   S605      1.0  0.52401  0.61870  0.59453  1.0000
  S   S606      1.0  0.51305  0.59696  0.72448  1.0000
  S   S607      1.0  0.51683  0.59209  0.66052  1.0000
  Fe  Fe302     1.0  0.57997  0.53016  0.69024  1.0000
  S   S608      1.0  0.59755  0.52637  0.68544  1.0000
  S   S609      1.0  0.56302  0.51693  0.71334  1.0000
  Fe  Fe303     1.0  0.58965  0.55579  0.65824  1.0000
  S   S610      1.0  0.60822  0.55398  0.64995  1.0000
  S   S611      1.0  0.58449  0.57248  0.64080  1.0000
  Fe  Fe304     1.0  0.60119  0.53688  0.63965  1.0000
  S   S612      1.0  0.60780  0.52758  0.60592  1.0000
  Fe  Fe305     1.0  0.60293  0.54361  0.69627  1.0000
  S   S613      1.0  0.61447  0.54789  0.72594  1.0000
  S   S614      1.0  0.58318  0.53966  0.64450  1.0000
  S   S615      1.0  0.58488  0.54648  0.70456  1.0000
  S   S616      1.0  0.59840  0.51299  0.93791  1.0000
  Fe  Fe306     1.0  0.63162  0.51790  0.91725  1.0000
  S   S617      1.0  0.62288  0.53299  0.91664  1.0000
  H   H4876     1.0  0.51511  0.65295  0.96119  1.0000
  C   C2744     1.0  0.61535  0.54518  0.52173  1.0000
  H   H4877     1.0  0.63515  0.53404  0.72393  1.0000
  Fe  Fe307     1.0  0.61074  0.52310  0.89551  1.0000
  S   S618      1.0  0.60121  0.52889  0.86163  1.0000
  C   C2745     1.0  0.50305  0.61564  0.81159  1.0000
  H   H4878     1.0  0.53099  0.53762  0.55765  1.0000
  H   H4879     1.0  0.63432  0.51263  0.59279  1.0000
  C   C2746     1.0  0.64003  0.52025  0.54683  1.0000
  H   H4880     1.0  0.65856  0.52198  0.48856  1.0000
  S   S619      1.0  0.50376  0.64594  0.91035  1.0000
  H   H4881     1.0  0.65399  0.54063  0.81029  1.0000
  H   H4882     1.0  0.54072  0.66674  0.64531  1.0000
  H   H4883     1.0  0.57491  0.51565  0.93268  1.0000
  H   H4884     1.0  0.51753  0.66757  0.52914  1.0000
  H   H4885     1.0  0.53292  0.63600  0.61775  1.0000
  H   H4886     1.0  0.59148  0.55352  0.75373  1.0000
  C   C2747     1.0  0.57489  0.54536  0.78355  1.0000
  C   C2748     1.0  0.58296  0.55497  0.57414  1.0000
  H   H4887     1.0  0.58483  0.54625  0.58036  1.0000
  H   H4888     1.0  0.59351  0.58846  0.82147  1.0000
  H   H4889     1.0  0.58780  0.55919  0.55155  1.0000
  H   H4890     1.0  0.58910  0.55897  0.78488  1.0000
  H   H4891     1.0  0.63403  0.54567  0.85163  1.0000
  H   H4892     1.0  0.56322  0.68176  0.60042  1.0000
  H   H4893     1.0  0.55653  0.56589  0.61521  1.0000
  C   C2749     1.0  0.61765  0.50610  0.82397  1.0000
  H   H4894     1.0  0.56575  0.51414  0.52060  1.0000
  H   H4895     1.0  0.52972  0.55602  0.63114  1.0000
  C   C2750     1.0  0.67029  0.51130  0.89560  1.0000
  H   H4896     1.0  0.56480  0.51695  0.78056  1.0000
  C   C2751     1.0  0.60936  0.53115  0.56844  1.0000
  C   C2752     1.0  0.60830  0.52199  0.55470  1.0000
  C   C2753     1.0  0.61074  0.52440  0.52474  1.0000
  C   C2754     1.0  0.55622  0.51286  0.68769  1.0000
  H   H4897     1.0  0.51512  0.51797  0.66472  1.0000
  C   C2755     1.0  0.61267  0.54278  0.55176  1.0000
  H   H4898     1.0  0.55666  0.63441  0.63001  1.0000
  H   H4899     1.0  0.67401  0.52097  0.94101  1.0000
  H   H4900     1.0  0.57069  0.54197  0.76793  1.0000
  H   H4901     1.0  0.61362  0.54993  0.56192  1.0000
  C   C2756     1.0  0.61082  0.54211  0.76355  1.0000
  C   C2757     1.0  0.61797  0.54711  0.77926  1.0000
  C   C2758     1.0  0.61538  0.54287  0.80914  1.0000
  C   C2759     1.0  0.60567  0.53345  0.82372  1.0000
  C   C2760     1.0  0.59849  0.52848  0.80799  1.0000
  C   C2761     1.0  0.60108  0.53271  0.77808  1.0000
  H   H4902     1.0  0.62547  0.55444  0.76830  1.0000
  H   H4903     1.0  0.62066  0.54715  0.82099  1.0000
  H   H4904     1.0  0.59080  0.52138  0.81906  1.0000
  H   H4905     1.0  0.59547  0.52879  0.76633  1.0000
  H   H4906     1.0  0.51649  0.67257  0.87797  1.0000
  H   H4907     1.0  0.64123  0.53464  0.76989  1.0000
  C   C2762     1.0  0.51027  0.62845  0.76334  1.0000
  C   C2763     1.0  0.50717  0.61721  0.78198  1.0000
  C   C2764     1.0  0.50903  0.63806  0.77481  1.0000
  H   H4908     1.0  0.53810  0.66063  0.93999  1.0000
  C   C2765     1.0  0.65676  0.51582  0.82305  1.0000
  H   H4909     1.0  0.51945  0.56625  0.68810  1.0000
  H   H4910     1.0  0.50807  0.60973  0.77362  1.0000
  C   C2766     1.0  0.55089  0.64427  0.59571  1.0000
  H   H4911     1.0  0.50687  0.51759  0.52127  1.0000
  H   H4912     1.0  0.50998  0.68231  0.97888  1.0000
  H   H4913     1.0  0.60575  0.51296  0.56735  1.0000
  C   C2767     1.0  0.51992  0.62547  0.54176  1.0000
  C   C2768     1.0  0.55638  0.51320  0.79718  1.0000
  H   H4914     1.0  0.60985  0.51729  0.51455  1.0000
  H   H4915     1.0  0.66683  0.50442  0.51735  1.0000
  C   C2769     1.0  0.56293  0.51412  0.66021  1.0000
  H   H4916     1.0  0.50346  0.51973  0.55679  1.0000
  H   H4917     1.0  0.53832  0.67353  0.59550  1.0000
  H   H4918     1.0  0.60386  0.59301  0.68318  1.0000
  C   C2770     1.0  0.52486  0.67817  0.87891  1.0000
  C   C2771     1.0  0.55128  0.58113  0.68590  1.0000
  C   C2772     1.0  0.55508  0.57164  0.69929  1.0000
  C   C2773     1.0  0.56522  0.56892  0.68568  1.0000
  C   C2774     1.0  0.57162  0.57559  0.65837  1.0000
  C   C2775     1.0  0.56778  0.58502  0.64481  1.0000
  C   C2776     1.0  0.55763  0.58778  0.65848  1.0000
  H   H4919     1.0  0.55018  0.56643  0.72045  1.0000
  H   H4920     1.0  0.56799  0.56156  0.69619  1.0000
  H   H4921     1.0  0.57271  0.59026  0.62369  1.0000
  H   H4922     1.0  0.55483  0.59515  0.64804  1.0000
  H   H4923     1.0  0.54769  0.50497  0.77012  1.0000
  C   C2777     1.0  0.64580  0.51053  0.53917  1.0000
  H   H4924     1.0  0.61081  0.56757  0.96668  1.0000
  C   C2778     1.0  0.64332  0.54588  0.84290  1.0000
  H   H4925     1.0  0.55303  0.66156  0.63073  1.0000
  C   C2779     1.0  0.53102  0.68002  0.96220  1.0000
  H   H4926     1.0  0.57365  0.60589  0.72746  1.0000
  C   C2780     1.0  0.63978  0.52095  0.57732  1.0000
  H   H4927     1.0  0.50893  0.64542  0.61109  1.0000
  H   H4928     1.0  0.52873  0.52389  0.58392  1.0000
  H   H4929     1.0  0.52814  0.66449  0.90872  1.0000
  H   H4930     1.0  0.67554  0.52029  0.88903  1.0000
  C   C2781     1.0  0.65801  0.50905  0.90268  1.0000
  H   H4931     1.0  0.69545  0.50509  0.80585  1.0000
  H   H4932     1.0  0.52505  0.65226  0.64919  1.0000
  H   H4933     1.0  0.58293  0.57668  0.79525  1.0000
  N   N155      1.0  0.54992  0.54758  0.61567  1.0000
  H   H4934     1.0  0.54911  0.62547  0.61075  1.0000
  N   N156      1.0  0.53403  0.65456  0.60515  1.0000
  H   H4935     1.0  0.61392  0.58899  0.70341  1.0000
  H   H4936     1.0  0.53508  0.57587  0.59751  1.0000
  C   C2782     1.0  0.65124  0.51943  0.79797  1.0000
  C   C2783     1.0  0.50719  0.51936  0.67807  1.0000
  H   H4937     1.0  0.52056  0.66215  0.62470  1.0000
  C   C2784     1.0  0.51521  0.62293  0.57138  1.0000
  H   H4938     1.0  0.55875  0.59706  0.73773  1.0000
  H   H4939     1.0  0.57235  0.51636  0.65560  1.0000
  C   C2785     1.0  0.63601  0.51906  0.75631  1.0000
  C   C2786     1.0  0.50234  0.64293  0.65588  1.0000
  H   H4940     1.0  0.65690  0.52799  0.78387  1.0000
  H   H4941     1.0  0.49984  0.51149  0.68187  1.0000
  H   H4942     1.0  0.65206  0.51302  0.78485  1.0000
  C   C2787     1.0  0.63071  0.52454  0.73305  1.0000
  H   H4943     1.0  0.56727  0.55249  0.62210  1.0000
  H   H4944     1.0  0.64175  0.54541  0.80096  1.0000
  H   H4945     1.0  0.53183  0.67191  0.55614  1.0000
  H   H4946     1.0  0.65525  0.51383  0.53757  1.0000
  N   N157      1.0  0.52023  0.67124  0.96181  1.0000
  C   C2788     1.0  0.54442  0.54028  0.64593  1.0000
  H   H4947     1.0  0.56823  0.54745  0.79944  1.0000
  H   H4948     1.0  0.55941  0.68122  0.63779  1.0000
  C   C2789     1.0  0.54238  0.53972  0.69841  1.0000
  H   H4949     1.0  0.55373  0.55364  0.66325  1.0000
  H   H4950     1.0  0.62123  0.52358  0.74179  1.0000
  H   H4951     1.0  0.51765  0.63196  0.49970  1.0000
  H   H4952     1.0  0.51718  0.53130  0.58398  1.0000
  H   H4953     1.0  0.53882  0.50773  0.71552  1.0000
  C   C2790     1.0  0.54258  0.66623  0.60046  1.0000
  C   C2791     1.0  0.50413  0.62461  0.58144  1.0000
  C   C2792     1.0  0.53858  0.50660  0.67285  1.0000
  H   H4954     1.0  0.60593  0.59433  0.79089  1.0000
  C   C2793     1.0  0.64458  0.54010  0.81813  1.0000
  C   C2794     1.0  0.58055  0.56632  0.75249  1.0000
  C   C2795     1.0  0.53794  0.56231  0.63012  1.0000
  H   H4955     1.0  0.62776  0.52766  0.83359  1.0000
  H   H4956     1.0  0.54735  0.54192  0.71392  1.0000
  H   H4957     1.0  0.56812  0.59790  0.70379  1.0000
  H   H4958     1.0  0.53191  0.67783  0.86104  1.0000
  C   C2796     1.0  0.56275  0.54771  0.60882  1.0000
  H   H4959     1.0  0.64877  0.52273  0.58034  1.0000
  C   C2797     1.0  0.56788  0.59763  0.72641  1.0000
  H   H4960     1.0  0.63869  0.52287  0.84790  1.0000
  H   H4961     1.0  0.53876  0.53005  0.70418  1.0000
  H   H4962     1.0  0.55819  0.54017  0.66855  1.0000
  C   C2798     1.0  0.50190  0.62524  0.82315  1.0000
  H   H4963     1.0  0.60331  0.59069  0.74320  1.0000
  H   H4964     1.0  0.54461  0.58140  0.61817  1.0000
  H   H4965     1.0  0.53509  0.54411  0.69990  1.0000
  C   C2799     1.0  0.58403  0.58689  0.72359  1.0000
  C   C2800     1.0  0.58499  0.55625  0.76843  1.0000
  C   C2801     1.0  0.56984  0.55358  0.57746  1.0000
  H   H4966     1.0  0.60175  0.57879  0.80883  1.0000
  H   H4967     1.0  0.55176  0.50502  0.97896  1.0000
  H   H4968     1.0  0.61825  0.55421  0.50905  1.0000
  H   H4969     1.0  0.53878  0.56145  0.65226  1.0000
  N   N158      1.0  0.64412  0.50701  0.51252  1.0000
  H   H4970     1.0  0.57824  0.53832  0.79491  1.0000
  H   H4971     1.0  0.50322  0.52920  0.64183  1.0000
  H   H4972     1.0  0.50732  0.55764  0.65755  1.0000
  H   H4973     1.0  0.58622  0.56061  0.58745  1.0000
  H   H4974     1.0  0.58697  0.59220  0.77756  1.0000
  H   H4975     1.0  0.58292  0.58593  0.70233  1.0000
  C   C2802     1.0  0.61421  0.58220  0.66689  1.0000
  H   H4976     1.0  0.56837  0.50622  0.56894  1.0000
  H   H4977     1.0  0.56845  0.56243  0.56997  1.0000
  H   H4978     1.0  0.56380  0.53856  0.61430  1.0000
  H   H4979     1.0  0.51787  0.66414  0.58025  1.0000
  H   H4980     1.0  0.56724  0.54807  0.56330  1.0000
  H   H4981     1.0  0.68806  0.52398  0.94886  1.0000
  C   C2803     1.0  0.51802  0.67414  0.93261  1.0000
  H   H4982     1.0  0.52647  0.53415  0.62228  1.0000
  H   H4983     1.0  0.49974  0.65136  0.65392  1.0000
  H   H4984     1.0  0.54724  0.50381  0.50890  1.0000
  H   H4985     1.0  0.52908  0.57614  0.63361  1.0000
  C   C2804     1.0  0.55580  0.68026  0.61930  1.0000
  H   H4986     1.0  0.52781  0.65878  0.52344  1.0000
  C   C2805     1.0  0.54887  0.56014  0.61125  1.0000
  C   C2806     1.0  0.53116  0.65375  0.57733  1.0000
  C   C2807     1.0  0.53115  0.53945  0.60044  1.0000
  H   H4987     1.0  0.52873  0.54795  0.59608  1.0000
  H   H4988     1.0  0.54156  0.64184  0.96226  1.0000
  H   H4989     1.0  0.53633  0.67922  0.90631  1.0000
  C   C2808     1.0  0.53664  0.57469  0.61907  1.0000
  H   H4990     1.0  0.61541  0.50831  0.80327  1.0000
  H   H4991     1.0  0.56389  0.63413  0.59466  1.0000
  C   C2809     1.0  0.54455  0.54160  0.59578  1.0000
  C   C2810     1.0  0.59701  0.58212  0.75507  1.0000
  C   C2811     1.0  0.51229  0.64378  0.63034  1.0000
  H   H4992     1.0  0.58986  0.59585  0.71933  1.0000
  H   H4993     1.0  0.60832  0.57939  0.65374  1.0000
  N   N159      1.0  0.63867  0.52001  0.80630  1.0000
  S   S620      1.0  0.62023  0.50894  0.89364  1.0000
  C   C2812     1.0  0.58663  0.52188  0.48309  1.0000
  H   H4994     1.0  0.63585  0.52820  0.58179  1.0000
  C   C2813     1.0  0.55054  0.54397  0.66840  1.0000
  H   H4995     1.0  0.54925  0.56392  0.58852  1.0000
  H   H4996     1.0  0.58607  0.51251  0.52497  1.0000
  H   H4997     1.0  0.51694  0.51612  0.54321  1.0000
  C   C2814     1.0  0.59841  0.58661  0.80208  1.0000
  C   C2815     1.0  0.57168  0.58694  0.74031  1.0000
  H   H4998     1.0  0.57368  0.56779  0.76891  1.0000
  H   H4999     1.0  0.54032  0.64411  0.63705  1.0000
  C   C2816     1.0  0.60748  0.58570  0.69202  1.0000
  H   H5000     1.0  0.54977  0.64317  0.57472  1.0000
  H   H5001     1.0  0.52916  0.50373  0.67776  1.0000
  H   H5002     1.0  0.51013  0.54475  0.69944  1.0000
  H   H5003     1.0  0.52850  0.62426  0.53368  1.0000
  H   H5004     1.0  0.64849  0.55520  0.83543  1.0000
  C   C2817     1.0  0.50484  0.63648  0.80450  1.0000
  H   H5005     1.0  0.63169  0.52003  0.71563  1.0000
  H   H5006     1.0  0.56271  0.51361  0.61724  1.0000
  H   H5007     1.0  0.57127  0.58702  0.76270  1.0000
  C   C2818     1.0  0.51199  0.56182  0.70706  1.0000
  Fe  Fe308     1.0  0.61117  0.52163  0.95923  1.0000
  H   H5008     1.0  0.50035  0.62268  0.60413  1.0000
  C   C2819     1.0  0.59032  0.58429  0.78279  1.0000
  H   H5009     1.0  0.51136  0.64680  0.76067  1.0000
  H   H5010     1.0  0.50686  0.58585  0.88724  1.0000
  S   S621      1.0  0.65136  0.52094  0.90173  1.0000
  C   C2820     1.0  0.63701  0.52721  0.82765  1.0000
  H   H5011     1.0  0.54834  0.54685  0.57332  1.0000
  H   H5012     1.0  0.62685  0.50987  0.51336  1.0000
  C   C2821     1.0  0.53915  0.64449  0.61524  1.0000
  H   H5013     1.0  0.66880  0.50773  0.79967  1.0000
  H   H5014     1.0  0.64517  0.52895  0.53255  1.0000
  H   H5015     1.0  0.55777  0.65244  0.59229  1.0000
  H   H5016     1.0  0.58627  0.50392  0.49903  1.0000
  H   H5017     1.0  0.59246  0.57119  0.69875  1.0000
  H   H5018     1.0  0.63090  0.51872  0.54519  1.0000
  C   C2822     1.0  0.50281  0.63178  0.53236  1.0000
  H   H5019     1.0  0.54997  0.66784  0.58137  1.0000
  H   H5020     1.0  0.50042  0.54709  0.62716  1.0000
  H   H5021     1.0  0.60256  0.57607  0.76057  1.0000
  H   H5022     1.0  0.54668  0.53291  0.59698  1.0000
  H   H5023     1.0  0.67516  0.52406  0.97454  1.0000
  S   S622      1.0  0.50385  0.61278  0.67508  1.0000
  C   C2823     1.0  0.65013  0.51702  0.48621  1.0000
  H   H5024     1.0  0.56514  0.57899  0.74036  1.0000
  C   C2824     1.0  0.63538  0.52567  0.78008  1.0000
  H   H5025     1.0  0.64663  0.54127  0.86017  1.0000
  C   C2825     1.0  0.58247  0.51058  0.50715  1.0000
  H   H5026     1.0  0.50667  0.56811  0.71132  1.0000
  C   C2826     1.0  0.52680  0.53266  0.58018  1.0000
  C   C2827     1.0  0.50449  0.55085  0.70249  1.0000
  H   H5027     1.0  0.51440  0.63515  0.63292  1.0000
  H   H5028     1.0  0.51558  0.55934  0.72567  1.0000
  H   H5029     1.0  0.68526  0.50383  0.89281  1.0000
  N   N160      1.0  0.58968  0.57764  0.73651  1.0000
  H   H5030     1.0  0.62137  0.58984  0.65322  1.0000
  C   C2828     1.0  0.53336  0.65634  0.96245  1.0000
  H   H5031     1.0  0.53507  0.54015  0.65285  1.0000
  H   H5032     1.0  0.62647  0.52705  0.78595  1.0000
  H   H5033     1.0  0.50502  0.64071  0.67604  1.0000
  H   H5034     1.0  0.64526  0.51957  0.74624  1.0000
  C   C2829     1.0  0.52320  0.65371  0.62783  1.0000
  C   C2830     1.0  0.50429  0.53041  0.66283  1.0000
  C   C2831     1.0  0.51374  0.62977  0.52238  1.0000
  H   H5035     1.0  0.54440  0.53092  0.64741  1.0000
  H   H5036     1.0  0.51624  0.68301  0.92795  1.0000
  C   C2832     1.0  0.54404  0.50887  0.69419  1.0000
  H   H5037     1.0  0.57585  0.56290  0.73762  1.0000
  S   S623      1.0  0.62072  0.50724  0.96099  1.0000
  H   H5038     1.0  0.65758  0.52262  0.83512  1.0000
  S   S624      1.0  0.53856  0.50653  0.61787  1.0000
  H   H5039     1.0  0.55818  0.51099  0.81844  1.0000
  H   H5040     1.0  0.52562  0.64486  0.57945  1.0000
  H   H5041     1.0  0.59994  0.55455  0.96830  1.0000
  C   C2833     1.0  0.54776  0.66792  0.62590  1.0000
  H   H5042     1.0  0.53899  0.67904  0.94822  1.0000
  H   H5043     1.0  0.63121  0.50966  0.76459  1.0000
  H   H5044     1.0  0.68142  0.50288  0.95507  1.0000
  H   H5045     1.0  0.63886  0.52921  0.49438  1.0000
  H   H5046     1.0  0.53921  0.65465  0.56065  1.0000
  C   C2834     1.0  0.55538  0.63394  0.60871  1.0000
  H   H5047     1.0  0.53881  0.65977  0.97586  1.0000
  C   C2835     1.0  0.52766  0.67371  0.90724  1.0000
  Fe  Fe309     1.0  0.50226  0.59375  0.69403  1.0000
  C   C2836     1.0  0.54531  0.50855  0.64497  1.0000
  H   H5048     1.0  0.51003  0.66787  0.93187  1.0000
  H   H5049     1.0  0.51345  0.65220  0.54741  1.0000
  H   H5050     1.0  0.55136  0.52000  0.79667  1.0000
  H   H5051     1.0  0.55364  0.50821  0.94094  1.0000
  C   C2837     1.0  0.67860  0.51969  0.95818  1.0000
  C   C2838     1.0  0.61457  0.53602  0.50799  1.0000
  C   C2839     1.0  0.56894  0.51463  0.95380  1.0000
  C   C2840     1.0  0.55764  0.50525  0.95840  1.0000
  H   H5052     1.0  0.61434  0.51177  0.83696  1.0000
  H   H5053     1.0  0.67497  0.52288  0.79884  1.0000
  H   H5054     1.0  0.53053  0.68915  0.95301  1.0000
  C   C2841     1.0  0.52533  0.66324  0.56443  1.0000
  C   C2842     1.0  0.52078  0.66025  0.53959  1.0000
  H   H5055     1.0  0.50892  0.52024  0.69875  1.0000
  H   H5056     1.0  0.58360  0.52918  0.49025  1.0000
  C   C2843     1.0  0.56895  0.50648  0.51596  1.0000
  H   H5057     1.0  0.51179  0.53807  0.65907  1.0000
  C   C2844     1.0  0.63104  0.50766  0.81979  1.0000
  C   C2845     1.0  0.50754  0.51453  0.54342  1.0000
  H   H5058     1.0  0.50402  0.64396  0.81294  1.0000
  C   C2846     1.0  0.49954  0.55404  0.67621  1.0000
  C   C2847     1.0  0.52102  0.65863  0.97029  1.0000
  H   H5059     1.0  0.63238  0.50425  0.84115  1.0000
  H   H5060     1.0  0.50080  0.56141  0.58350  1.0000
  C   C2848     1.0  0.66903  0.51436  0.81228  1.0000
  H   H5061     1.0  0.65141  0.50738  0.83808  1.0000
  H   H5062     1.0  0.56694  0.52321  0.95430  1.0000
  H   H5063     1.0  0.56636  0.50503  0.49643  1.0000
  C   C2849     1.0  0.67690  0.50661  0.97156  1.0000
  H   H5064     1.0  0.54783  0.69527  0.97752  1.0000
  H   H5065     1.0  0.54907  0.50281  0.55845  1.0000
  H   H5066     1.0  0.57341  0.51228  0.97082  1.0000
  C   C2850     1.0  0.53263  0.64321  0.96755  1.0000
  H   H5067     1.0  0.52760  0.63932  0.95387  1.0000
  H   H5068     1.0  0.49956  0.59030  0.91709  1.0000
  C   C2851     1.0  0.63136  0.50271  0.51363  1.0000
  H   H5069     1.0  0.64270  0.50270  0.55782  1.0000
  H   H5070     1.0  0.55201  0.68150  0.97982  1.0000
  Fe  Fe310     1.0  0.53639  0.99441  0.13692  1.0000
  C   C2852     1.0  0.53122  0.98085  0.07421  1.0000
  S   S625      1.0  0.53859  0.99042  0.09232  1.0000
  S   S626      1.0  0.52260  0.98365  0.17637  1.0000
  Fe  Fe311     1.0  0.50953  0.95376  0.47891  1.0000
  H   H5071     1.0  0.53172  0.95503  0.28829  1.0000
  H   H5072     1.0  0.55900  0.97423  0.40909  1.0000
  S   S627      1.0  0.52131  0.94608  0.45019  1.0000
  C   C2853     1.0  0.56115  0.98976  0.47115  1.0000
  H   H5073     1.0  0.54145  0.99139  0.03258  1.0000
  S   S628      1.0  0.50370  0.91232  0.46246  1.0000
  H   H5074     1.0  0.56752  0.98817  0.42892  1.0000
  S   S629      1.0  0.50577  0.96487  0.44109  1.0000
  C   C2854     1.0  0.55941  0.98470  0.35723  1.0000
  S   S630      1.0  0.53479  0.97426  0.24010  1.0000
  H   H5075     1.0  0.52914  0.98980  0.32557  1.0000
  H   H5076     1.0  0.50033  0.97939  0.17607  1.0000
  H   H5077     1.0  0.56009  0.99620  0.38500  1.0000
  H   H5078     1.0  0.56266  0.96698  0.45580  1.0000
  Fe  Fe312     1.0  0.53501  0.98915  0.20227  1.0000
  C   C2855     1.0  0.53103  0.98314  0.28810  1.0000
  H   H5079     1.0  0.51962  0.96824  0.11162  1.0000
  S   S631      1.0  0.52768  0.97072  0.37317  1.0000
  H   H5080     1.0  0.50342  0.00015  0.01571  1.0000
  C   C2856     1.0  0.55129  0.97803  0.41115  1.0000
  Fe  Fe313     1.0  0.51646  0.95651  0.41277  1.0000
  C   C2857     1.0  0.52824  0.97126  0.33678  1.0000
  H   H5081     1.0  0.54385  0.97100  0.41032  1.0000
  C   C2858     1.0  0.52937  0.98210  0.31762  1.0000
  C   C2859     1.0  0.53427  0.99101  0.46684  1.0000
  C   C2860     1.0  0.52908  0.97639  0.02878  1.0000
  C   C2861     1.0  0.53455  0.98359  0.04414  1.0000
  C   C2862     1.0  0.53085  0.96257  0.29646  1.0000
  H   H5082     1.0  0.52830  0.95313  0.34034  1.0000
  C   C2863     1.0  0.50389  0.95373  0.23815  1.0000
  H   H5083     1.0  0.56053  0.99185  0.33794  1.0000
  C   C2864     1.0  0.51695  0.96332  0.07324  1.0000
  C   C2865     1.0  0.52232  0.97061  0.08860  1.0000
  H   H5084     1.0  0.50153  0.88745  0.47311  1.0000
  H   H5085     1.0  0.55367  0.97659  0.35530  1.0000
  S   S632      1.0  0.54973  0.99874  0.16235  1.0000
  N   N161      1.0  0.54866  0.98130  0.43920  1.0000
  H   H5086     1.0  0.51017  0.95543  0.08485  1.0000
  H   H5087     1.0  0.54061  0.99480  0.42193  1.0000
  H   H5088     1.0  0.51170  0.93948  0.32286  1.0000
  C   C2866     1.0  0.53197  0.97341  0.27726  1.0000
  H   H5089     1.0  0.51118  0.91546  0.34592  1.0000
  C   C2867     1.0  0.52021  0.96613  0.04316  1.0000
  H   H5090     1.0  0.56812  0.98317  0.35801  1.0000
  H   H5091     1.0  0.53179  0.97876  0.00576  1.0000
  H   H5092     1.0  0.51583  0.98661  0.46759  1.0000
  H   H5093     1.0  0.55956  0.99897  0.43014  1.0000
  C   C2868     1.0  0.55941  0.98982  0.44094  1.0000
  C   C2869     1.0  0.52883  0.96145  0.32604  1.0000
  S   S633      1.0  0.50121  0.94206  0.41423  1.0000
  C   C2870     1.0  0.50827  0.91994  0.36253  1.0000
  C   C2871     1.0  0.50242  0.93454  0.32651  1.0000
  H   H5094     1.0  0.53198  0.99155  0.27363  1.0000
  C   C2872     1.0  0.53847  0.98684  0.43993  1.0000
  S   S634      1.0  0.51253  0.95685  0.02487  1.0000
  H   H5095     1.0  0.50255  0.92912  0.31092  1.0000
  C   C2873     1.0  0.50149  0.98547  0.07879  1.0000
  H   H5096     1.0  0.50921  0.95567  0.28912  1.0000
  H   H5097     1.0  0.50900  0.98599  0.06111  1.0000
  H   H5098     1.0  0.54575  0.99047  0.38076  1.0000
  C   C2874     1.0  0.50078  0.99378  0.00352  1.0000
  Fe  Fe314     1.0  0.50485  0.93209  0.45362  1.0000
  H   H5099     1.0  0.49975  0.97707  0.09524  1.0000
  H   H5100     1.0  0.51278  0.95940  0.23498  1.0000
  C   C2875     1.0  0.55396  0.98821  0.38382  1.0000
  H   H5101     1.0  0.54080  0.99894  0.46697  1.0000
  H   H5102     1.0  0.50466  0.97841  0.02691  1.0000
  H   H5103     1.0  0.53087  0.98060  0.43700  1.0000
  H   H5104     1.0  0.50507  0.91331  0.38350  1.0000
  H   H5105     1.0  0.51584  0.92672  0.36346  1.0000
  H   H5106     1.0  0.50392  0.95090  0.34980  1.0000
  Fe  Fe315     1.0  0.51040  0.95307  0.98160  1.0000
  H   H5107     1.0  0.53623  0.96481  0.46298  1.0000
  H   H5108     1.0  0.50297  0.96855  0.31745  1.0000
  C   C2876     1.0  0.57118  0.00004  0.46998  1.0000
  H   H5109     1.0  0.50417  0.94916  0.22084  1.0000
  C   C2877     1.0  0.55340  0.96189  0.46134  1.0000
  H   H5110     1.0  0.55226  0.95711  0.44477  1.0000
  H   H5111     1.0  0.50628  0.93907  0.26687  1.0000
  H   H5112     1.0  0.57948  0.99963  0.45606  1.0000
  C   C2878     1.0  0.52270  0.99436  0.46729  1.0000
  H   H5113     1.0  0.50173  0.96839  0.36853  1.0000
  H   H5114     1.0  0.51888  0.99345  0.98695  1.0000
  C   C2879     1.0  0.54497  0.97007  0.46278  1.0000
  Fe  Fe316     1.0  0.51766  0.00048  0.17868  1.0000
  H   H5115     1.0  0.51245  0.99395  0.10211  1.0000
  C   C2880     1.0  0.50520  0.99546  0.09234  1.0000
  H   H5116     1.0  0.52364  0.00161  0.44835  1.0000
  H   H5117     1.0  0.56335  0.98154  0.48058  1.0000
  C   C2881     1.0  0.50004  0.94469  0.26712  1.0000
  C   C2882     1.0  0.50001  0.95085  0.29169  1.0000
  Fe  Fe317     1.0  0.53810  0.99107  0.63674  1.0000
  H   H5118     1.0  0.55476  0.94306  0.88650  1.0000
  S   S635      1.0  0.54074  0.98088  0.60174  1.0000
  N   N162      1.0  0.53047  0.93457  0.83950  1.0000
  H   H5119     1.0  0.51568  0.92535  0.87563  1.0000
  H   H5120     1.0  0.53026  0.95054  0.81054  1.0000
  H   H5121     1.0  0.53710  0.92704  0.89164  1.0000
  H   H5122     1.0  0.50790  0.96226  0.80091  1.0000
  C   C2883     1.0  0.53661  0.93631  0.88613  1.0000
  H   H5123     1.0  0.51733  0.94077  0.86460  1.0000
  H   H5124     1.0  0.51369  0.95782  0.69072  1.0000
  H   H5125     1.0  0.54757  0.93682  0.78748  1.0000
  C   C2884     1.0  0.51593  0.97513  0.55615  1.0000
  H   H5126     1.0  0.52680  0.89862  0.81206  1.0000
  S   S636      1.0  0.54910  0.99402  0.66829  1.0000
  H   H5127     1.0  0.54330  0.96068  0.76135  1.0000
  C   C2885     1.0  0.52667  0.91485  0.82473  1.0000
  H   H5128     1.0  0.54290  0.92423  0.83091  1.0000
  H   H5129     1.0  0.50905  0.92512  0.82715  1.0000
  H   H5130     1.0  0.53323  0.95866  0.53086  1.0000
  H   H5131     1.0  0.54790  0.94154  0.84370  1.0000
  H   H5132     1.0  0.53818  0.95055  0.84976  1.0000
  C   C2886     1.0  0.54586  0.94341  0.89717  1.0000
  C   C2887     1.0  0.54558  0.95225  0.76017  1.0000
  C   C2888     1.0  0.53631  0.96855  0.56172  1.0000
  C   C2889     1.0  0.55088  0.95266  0.48956  1.0000
  Fe  Fe318     1.0  0.51695  0.95692  0.91539  1.0000
  C   C2890     1.0  0.53865  0.94122  0.85348  1.0000
  H   H5133     1.0  0.54420  0.96588  0.56379  1.0000
  C   C2891     1.0  0.52502  0.97396  0.78146  1.0000
  H   H5134     1.0  0.54113  0.90756  0.80892  1.0000
  C   C2892     1.0  0.53657  0.97782  0.81501  1.0000
  C   C2893     1.0  0.52203  0.97909  0.57539  1.0000
  H   H5135     1.0  0.50325  0.75461  0.63329  1.0000
  H   H5136     1.0  0.50443  0.95949  0.66648  1.0000
  H   H5137     1.0  0.50803  0.97774  0.55446  1.0000
  C   C2894     1.0  0.51993  0.96784  0.53943  1.0000
  C   C2895     1.0  0.51704  0.96505  0.83293  1.0000
  C   C2896     1.0  0.51589  0.96670  0.80473  1.0000
  Fe  Fe319     1.0  0.53202  0.98851  0.70314  1.0000
  H   H5138     1.0  0.53951  0.94733  0.75013  1.0000
  H   H5139     1.0  0.54248  0.98518  0.76926  1.0000
  H   H5140     1.0  0.53178  0.89921  0.84366  1.0000
  C   C2897     1.0  0.51804  0.93291  0.85639  1.0000
  H   H5141     1.0  0.54428  0.93969  0.92044  1.0000
  S   S637      1.0  0.52985  0.96787  0.87308  1.0000
  C   C2898     1.0  0.53336  0.92289  0.83989  1.0000
  S   S638      1.0  0.50662  0.96522  0.94521  1.0000
  S   S639      1.0  0.52185  0.94563  0.95150  1.0000
  C   C2899     1.0  0.53243  0.94202  0.80961  1.0000
  S   S640      1.0  0.52345  0.97469  0.74621  1.0000
  C   C2900     1.0  0.54494  0.94496  0.78987  1.0000
  S   S641      1.0  0.52170  0.98432  0.67194  1.0000
  H   H5142     1.0  0.50815  0.98936  0.63431  1.0000
  C   C2901     1.0  0.53235  0.97589  0.57831  1.0000
  H   H5143     1.0  0.54540  0.95273  0.89343  1.0000
  C   C2902     1.0  0.53014  0.96449  0.54274  1.0000
  H   H5144     1.0  0.50994  0.95943  0.85051  1.0000
  H   H5145     1.0  0.50408  0.98942  0.71813  1.0000
  H   H5146     1.0  0.55461  0.95432  0.74640  1.0000
  S   S642      1.0  0.51209  0.96348  0.51432  1.0000
  H   H5147     1.0  0.52642  0.93792  0.79824  1.0000
  C   C2903     1.0  0.53196  0.90444  0.82224  1.0000
  C   C2904     1.0  0.52748  0.97047  0.83824  1.0000
  H   H5148     1.0  0.54468  0.98207  0.81879  1.0000
  C   C2905     1.0  0.53533  0.97965  0.78685  1.0000
  H   H5149     1.0  0.55139  0.95026  0.79827  1.0000
  H   H5150     1.0  0.52689  0.91959  0.80291  1.0000
  H   H5151     1.0  0.51875  0.98467  0.58788  1.0000
  Fe  Fe320     1.0  0.50552  0.93189  0.95391  1.0000
  H   H5152     1.0  0.51747  0.91109  0.83751  1.0000
  H   H5153     1.0  0.53153  0.91754  0.86217  1.0000
  H   H5154     1.0  0.50875  0.93997  0.82592  1.0000
  H   H5155     1.0  0.52793  0.93679  0.89791  1.0000
  H   H5156     1.0  0.50439  0.99949  0.53177  1.0000
  H   H5157     1.0  0.53286  0.98414  0.48668  1.0000
  H   H5158     1.0  0.50489  0.94505  0.68473  1.0000
  C   C2906     1.0  0.50826  0.93138  0.84037  1.0000
  H   H5159     1.0  0.54358  0.97188  0.48401  1.0000
  H   H5160     1.0  0.50919  0.98929  0.96534  1.0000
  H   H5161     1.0  0.55323  0.99034  0.48602  1.0000
  C   C2907     1.0  0.51135  0.99531  0.97880  1.0000
  H   H5162     1.0  0.55264  0.95694  0.50659  1.0000
  H   H5163     1.0  0.55664  0.94659  0.48728  1.0000
  H   H5164     1.0  0.54163  0.94741  0.49586  1.0000
  H   H5165     1.0  0.57236  0.99960  0.49174  1.0000
  S   S643      1.0  0.50550  0.91248  0.95833  1.0000
  H   H5166     1.0  0.50492  0.88815  0.96301  1.0000
  C   C2908     1.0  0.50514  0.95411  0.68685  1.0000
  H   H5167     1.0  0.50333  0.97001  0.71872  1.0000
  H   H5168     1.0  0.51987  0.99727  0.48683  1.0000
  S   S644      1.0  0.50172  0.94267  0.91596  1.0000
  H   H5169     1.0  0.49935  0.98364  0.75600  1.0000
  H   H5170     1.0  0.81183  0.44983  0.27146  1.0000
  H   H5171     1.0  0.85151  0.43868  0.35928  1.0000
  C   C2909     1.0  0.89768  0.48488  0.43670  1.0000
  H   H5172     1.0  0.90390  0.48829  0.04087  1.0000
  H   H5173     1.0  0.79091  0.41309  0.39434  1.0000
  H   H5174     1.0  0.83457  0.46406  0.47377  1.0000
  C   C2910     1.0  0.77691  0.31088  0.32918  1.0000
  H   H5175     1.0  0.78398  0.40012  0.36474  1.0000
  Fe  Fe321     1.0  0.89186  0.44540  0.43080  1.0000
  C   C2911     1.0  0.79879  0.39873  0.06234  1.0000
  S   S645      1.0  0.88760  0.46281  0.43283  1.0000
  Fe  Fe322     1.0  0.90574  0.43190  0.39669  1.0000
  S   S646      1.0  0.89769  0.41483  0.43159  1.0000
  S   S647      1.0  0.92034  0.43809  0.35475  1.0000
  Fe  Fe323     1.0  0.88039  0.41974  0.43220  1.0000
  S   S648      1.0  0.86182  0.41036  0.42990  1.0000
  H   H5176     1.0  0.79490  0.42220  0.34245  1.0000
  H   H5177     1.0  0.75712  0.32549  0.44923  1.0000
  S   S649      1.0  0.88859  0.43641  0.39688  1.0000
  S   S650      1.0  0.90958  0.44207  0.42857  1.0000
  Fe  Fe324     1.0  0.93533  0.44610  0.18456  1.0000
  S   S651      1.0  0.92632  0.43246  0.22738  1.0000
  Fe  Fe325     1.0  0.93854  0.47110  0.15200  1.0000
  S   S652      1.0  0.95122  0.46991  0.11348  1.0000
  S   S653      1.0  0.93396  0.48753  0.15969  1.0000
  Fe  Fe326     1.0  0.93854  0.45235  0.11838  1.0000
  S   S654      1.0  0.93428  0.44907  0.07592  1.0000
  S   S655      1.0  0.92538  0.45440  0.15561  1.0000
  S   S656      1.0  0.94735  0.46304  0.18334  1.0000
  Fe  Fe327     1.0  0.80692  0.35979  0.41282  1.0000
  S   S657      1.0  0.79568  0.37255  0.41348  1.0000
  S   S658      1.0  0.82632  0.36538  0.41441  1.0000
  Fe  Fe328     1.0  0.78542  0.33923  0.41369  1.0000
  S   S659      1.0  0.77343  0.35116  0.41534  1.0000
  S   S660      1.0  0.77786  0.31965  0.41550  1.0000
  Fe  Fe329     1.0  0.78819  0.36450  0.38179  1.0000
  S   S661      1.0  0.78365  0.37513  0.34402  1.0000
  Fe  Fe330     1.0  0.78230  0.35770  0.44679  1.0000
  H   H5178     1.0  0.94795  0.44805  0.34436  1.0000
  S   S662      1.0  0.80016  0.35245  0.37877  1.0000
  S   S663      1.0  0.79358  0.34504  0.44742  1.0000
  Fe  Fe331     1.0  0.75789  0.35574  0.17884  1.0000
  S   S664      1.0  0.77252  0.34676  0.17848  1.0000
  H   H5179     1.0  0.76034  0.32765  0.24798  1.0000
  Fe  Fe332     1.0  0.77436  0.37992  0.15620  1.0000
  S   S665      1.0  0.79031  0.37305  0.15426  1.0000
  S   S666      1.0  0.77591  0.39902  0.13844  1.0000
  Fe  Fe333     1.0  0.78101  0.35959  0.13569  1.0000
  S   S667      1.0  0.79134  0.35566  0.09682  1.0000
  Fe  Fe334     1.0  0.78035  0.36108  0.19719  1.0000
  S   S668      1.0  0.78957  0.35676  0.23196  1.0000
  S   S669      1.0  0.76574  0.36740  0.13469  1.0000
  S   S670      1.0  0.76504  0.36910  0.20066  1.0000
  H   H5180     1.0  0.78574  0.48854  0.38804  1.0000
  S   S671      1.0  0.82464  0.47258  0.42865  1.0000
  H   H5181     1.0  0.83244  0.48432  0.07429  1.0000
  S   S672      1.0  0.79665  0.47028  0.44634  1.0000
  H   H5182     1.0  0.92740  0.47781  0.43976  1.0000
  Fe  Fe335     1.0  0.81134  0.47272  0.46738  1.0000
  Fe  Fe336     1.0  0.95943  0.46068  0.14551  1.0000
  Fe  Fe337     1.0  0.81023  0.47210  0.40636  1.0000
  S   S673      1.0  0.80517  0.45893  0.38140  1.0000
  H   H5183     1.0  0.75444  0.40486  0.14924  1.0000
  Fe  Fe338     1.0  0.77166  0.45292  0.22285  1.0000
  S   S674      1.0  0.78102  0.47199  0.20710  1.0000
  H   H5184     1.0  0.75557  0.46726  0.27763  1.0000
  Fe  Fe339     1.0  0.79385  0.44523  0.20693  1.0000
  S   S675      1.0  0.80517  0.46368  0.19024  1.0000
  S   S676      1.0  0.80082  0.42924  0.20855  1.0000
  Fe  Fe340     1.0  0.79439  0.46688  0.22928  1.0000
  S   S677      1.0  0.80185  0.47856  0.25512  1.0000
  Fe  Fe341     1.0  0.79076  0.46695  0.16973  1.0000
  S   S678      1.0  0.79389  0.47861  0.12547  1.0000
  S   S679      1.0  0.78428  0.44807  0.24768  1.0000
  S   S680      1.0  0.78019  0.44821  0.18376  1.0000
  C   C2912     1.0  0.80400  0.46443  0.34657  1.0000
  C   C2913     1.0  0.79837  0.45678  0.33283  1.0000
  C   C2914     1.0  0.79750  0.46098  0.30490  1.0000
  C   C2915     1.0  0.80247  0.47283  0.29036  1.0000
  C   C2916     1.0  0.80813  0.48042  0.30413  1.0000
  C   C2917     1.0  0.80880  0.47628  0.33218  1.0000
  H   H5185     1.0  0.79470  0.44758  0.34380  1.0000
  H   H5186     1.0  0.79307  0.45507  0.29456  1.0000
  H   H5187     1.0  0.81220  0.48952  0.29289  1.0000
  H   H5188     1.0  0.81335  0.48220  0.34231  1.0000
  H   H5189     1.0  0.76039  0.40735  0.25705  1.0000
  C   C2918     1.0  0.81580  0.44427  0.25907  1.0000
  C   C2919     1.0  0.79426  0.47979  0.06978  1.0000
  C   C2920     1.0  0.79337  0.47240  0.09640  1.0000
  C   C2921     1.0  0.79235  0.46039  0.09906  1.0000
  C   C2922     1.0  0.79236  0.45586  0.07507  1.0000
  H   H5190     1.0  0.82576  0.37904  0.10045  1.0000
  H   H5191     1.0  0.79500  0.48908  0.06762  1.0000
  H   H5192     1.0  0.79169  0.45462  0.11947  1.0000
  H   H5193     1.0  0.79169  0.44659  0.07717  1.0000
  C   C2923     1.0  0.78386  0.40736  0.15634  1.0000
  C   C2924     1.0  0.78701  0.41964  0.14683  1.0000
  C   C2925     1.0  0.79251  0.42640  0.16247  1.0000
  C   C2926     1.0  0.79498  0.42088  0.18742  1.0000
  C   C2927     1.0  0.79230  0.40860  0.19619  1.0000
  C   C2928     1.0  0.78668  0.40183  0.18074  1.0000
  H   H5194     1.0  0.78506  0.42393  0.12761  1.0000
  H   H5195     1.0  0.79493  0.43588  0.15511  1.0000
  H   H5196     1.0  0.79426  0.40429  0.21534  1.0000
  H   H5197     1.0  0.78435  0.39234  0.18805  1.0000
  C   C2929     1.0  0.77622  0.35620  0.01931  1.0000
  C   C2930     1.0  0.76931  0.35683  0.04505  1.0000
  C   C2931     1.0  0.77382  0.35653  0.06903  1.0000
  C   C2932     1.0  0.78532  0.35577  0.06733  1.0000
  C   C2933     1.0  0.79222  0.35508  0.04162  1.0000
  C   C2934     1.0  0.78768  0.35524  0.01767  1.0000
  H   H5198     1.0  0.76038  0.35737  0.04660  1.0000
  H   H5199     1.0  0.76828  0.35666  0.08893  1.0000
  H   H5200     1.0  0.80107  0.35434  0.04035  1.0000
  H   H5201     1.0  0.88062  0.48922  0.02177  1.0000
  C   C2935     1.0  0.78562  0.37046  0.31223  1.0000
  C   C2936     1.0  0.79355  0.36374  0.30628  1.0000
  C   C2937     1.0  0.79492  0.35999  0.28109  1.0000
  C   C2938     1.0  0.78826  0.36273  0.26181  1.0000
  C   C2939     1.0  0.78048  0.36967  0.26741  1.0000
  C   C2940     1.0  0.77924  0.37360  0.29246  1.0000
  H   H5202     1.0  0.79874  0.36153  0.32090  1.0000
  H   H5203     1.0  0.80117  0.35489  0.27658  1.0000
  H   H5204     1.0  0.77535  0.37192  0.25261  1.0000
  H   H5205     1.0  0.77316  0.37890  0.29678  1.0000
  C   C2941     1.0  0.92985  0.48978  0.33541  1.0000
  C   C2942     1.0  0.95768  0.49630  0.14920  1.0000
  C   C2943     1.0  0.77092  0.32431  0.07938  1.0000
  H   H5206     1.0  0.77178  0.46425  0.38679  1.0000
  H   H5207     1.0  0.81455  0.32170  0.33776  1.0000
  C   C2944     1.0  0.75938  0.39060  0.07687  1.0000
  C   C2945     1.0  0.76392  0.41644  0.24315  1.0000
  C   C2946     1.0  0.76396  0.46899  0.07074  1.0000
  H   H5208     1.0  0.76738  0.46829  0.08999  1.0000
  H   H5209     1.0  0.79263  0.31841  0.22181  1.0000
  H   H5210     1.0  0.82174  0.44838  0.98351  1.0000
  C   C2947     1.0  0.96382  0.45174  0.31012  1.0000
  H   H5211     1.0  0.77936  0.32276  0.23299  1.0000
  H   H5212     1.0  0.84646  0.39356  0.31927  1.0000
  H   H5213     1.0  0.75863  0.45450  0.18295  1.0000
  H   H5214     1.0  0.86252  0.43667  0.37822  1.0000
  H   H5215     1.0  0.84149  0.38582  0.35644  1.0000
  H   H5216     1.0  0.85433  0.38364  0.33470  1.0000
  H   H5217     1.0  0.94986  0.49524  0.23627  1.0000
  H   H5218     1.0  0.80493  0.40951  0.38720  1.0000
  H   H5219     1.0  0.78261  0.40340  0.07776  1.0000
  H   H5220     1.0  0.76516  0.46144  0.06184  1.0000
  H   H5221     1.0  0.96170  0.44260  0.30797  1.0000
  C   C2948     1.0  0.82794  0.46766  0.06176  1.0000
  H   H5222     1.0  0.84159  0.47459  0.08184  1.0000
  H   H5223     1.0  0.82399  0.41216  0.00477  1.0000
  C   C2949     1.0  0.95973  0.46011  0.28825  1.0000
  H   H5224     1.0  0.94610  0.48367  0.21920  1.0000
  H   H5225     1.0  0.95861  0.48913  0.13966  1.0000
  C   C2950     1.0  0.85207  0.39767  0.42593  1.0000
  C   C2951     1.0  0.84082  0.39832  0.42302  1.0000
  C   C2952     1.0  0.83279  0.38859  0.41985  1.0000
  C   C2953     1.0  0.83591  0.37800  0.41920  1.0000
  C   C2954     1.0  0.84719  0.37739  0.42197  1.0000
  C   C2955     1.0  0.85516  0.38707  0.42545  1.0000
  H   H5226     1.0  0.83829  0.40645  0.42310  1.0000
  H   H5227     1.0  0.82423  0.38932  0.41758  1.0000
  H   H5228     1.0  0.84978  0.36930  0.42152  1.0000
  H   H5229     1.0  0.86372  0.38631  0.42771  1.0000
  C   C2956     1.0  0.91093  0.43075  0.02435  1.0000
  C   C2957     1.0  0.90801  0.42718  0.05442  1.0000
  C   C2958     1.0  0.91487  0.43267  0.07047  1.0000
  C   C2959     1.0  0.92508  0.44171  0.05683  1.0000
  C   C2960     1.0  0.92808  0.44516  0.02674  1.0000
  C   C2961     1.0  0.92102  0.43992  0.01074  1.0000
  H   H5230     1.0  0.90032  0.42008  0.06552  1.0000
  H   H5231     1.0  0.91234  0.42976  0.09348  1.0000
  H   H5232     1.0  0.93597  0.45200  0.01568  1.0000
  H   H5233     1.0  0.77006  0.49257  0.24827  1.0000
  C   C2962     1.0  0.92054  0.43665  0.31960  1.0000
  C   C2963     1.0  0.92543  0.44660  0.29622  1.0000
  C   C2964     1.0  0.92715  0.44555  0.26788  1.0000
  C   C2965     1.0  0.92419  0.43447  0.26255  1.0000
  C   C2966     1.0  0.91937  0.42454  0.28593  1.0000
  C   C2967     1.0  0.91755  0.42561  0.31418  1.0000
  H   H5234     1.0  0.92798  0.45517  0.30005  1.0000
  H   H5235     1.0  0.93081  0.45329  0.25018  1.0000
  H   H5236     1.0  0.91725  0.41591  0.28213  1.0000
  H   H5237     1.0  0.91434  0.41781  0.33178  1.0000
  C   C2968     1.0  0.82024  0.44432  0.00656  1.0000
  H   H5238     1.0  0.90595  0.48962  0.18230  1.0000
  C   C2969     1.0  0.75751  0.28806  0.41622  1.0000
  H   H5239     1.0  0.97713  0.48446  0.16653  1.0000
  H   H5240     1.0  0.85823  0.39078  0.02879  1.0000
  C   C2970     1.0  0.89908  0.47362  0.43622  1.0000
  H   H5241     1.0  0.85069  0.42429  0.38061  1.0000
  H   H5242     1.0  0.82539  0.44819  0.25167  1.0000
  H   H5243     1.0  0.76063  0.40743  0.30727  1.0000
  H   H5244     1.0  0.75854  0.44092  0.09182  1.0000
  C   C2971     1.0  0.89580  0.49623  0.36543  1.0000
  C   C2972     1.0  0.90973  0.47112  0.43812  1.0000
  C   C2973     1.0  0.91913  0.47985  0.43888  1.0000
  H   H5245     1.0  0.79675  0.42553  0.26789  1.0000
  C   C2974     1.0  0.77485  0.41490  0.32428  1.0000
  H   H5246     1.0  0.91080  0.46248  0.43908  1.0000
  H   H5247     1.0  0.77115  0.48525  0.36001  1.0000
  H   H5248     1.0  0.93891  0.48939  0.32600  1.0000
  H   H5249     1.0  0.76881  0.42465  0.43252  1.0000
  H   H5250     1.0  0.81827  0.46408  0.02120  1.0000
  H   H5251     1.0  0.82830  0.47557  0.12567  1.0000
  H   H5252     1.0  0.76516  0.28942  0.31939  1.0000
  C   C2975     1.0  0.85880  0.39165  0.00585  1.0000
  C   C2976     1.0  0.92540  0.48021  0.36410  1.0000
  H   H5253     1.0  0.84735  0.44886  0.46447  1.0000
  C   C2977     1.0  0.85439  0.47382  0.99626  1.0000
  H   H5254     1.0  0.76379  0.38709  0.03589  1.0000
  C   C2978     1.0  0.92695  0.46831  0.35996  1.0000
  H   H5255     1.0  0.92342  0.44296  0.98785  1.0000
  C   C2979     1.0  0.90729  0.49814  0.34323  1.0000
  H   H5256     1.0  0.84211  0.49179  0.46710  1.0000
  H   H5257     1.0  0.76018  0.32832  0.31824  1.0000
  H   H5258     1.0  0.97754  0.45094  0.21446  1.0000
  H   H5259     1.0  0.81094  0.32656  0.36972  1.0000
  H   H5260     1.0  0.76713  0.48564  0.28596  1.0000
  H   H5261     1.0  0.76934  0.29176  0.01344  1.0000
  H   H5262     1.0  0.93031  0.48251  0.37959  1.0000
  H   H5263     1.0  0.91594  0.47907  0.37347  1.0000
  C   C2980     1.0  0.92902  0.47405  0.99307  1.0000
  H   H5264     1.0  0.96093  0.49274  0.20954  1.0000
  H   H5265     1.0  0.82246  0.34258  0.00674  1.0000
  C   C2981     1.0  0.78739  0.39081  0.02199  1.0000
  C   C2982     1.0  0.77694  0.48927  0.39594  1.0000
  H   H5266     1.0  0.75673  0.33807  0.26762  1.0000
  H   H5267     1.0  0.89682  0.49619  0.16268  1.0000
  H   H5268     1.0  0.92167  0.46529  0.34575  1.0000
  H   H5269     1.0  0.93628  0.46878  0.35085  1.0000
  H   H5270     1.0  0.92393  0.46168  0.38084  1.0000
  H   H5271     1.0  0.80090  0.41000  0.09118  1.0000
  H   H5272     1.0  0.81229  0.44438  0.24006  1.0000
  H   H5273     1.0  0.78067  0.45122  0.40989  1.0000
  C   C2983     1.0  0.79545  0.40636  0.38899  1.0000
  H   H5274     1.0  0.95009  0.45662  0.29220  1.0000
  H   H5275     1.0  0.78819  0.50072  0.26784  1.0000
  C   C2984     1.0  0.99541  0.48290  0.06760  1.0000
  H   H5276     1.0  0.77626  0.42389  0.31056  1.0000
  C   C2985     1.0  0.79351  0.40374  0.36123  1.0000
  H   H5277     1.0  0.80129  0.39058  0.05929  1.0000
  C   C2986     1.0  0.78889  0.31966  0.26562  1.0000
  H   H5278     1.0  0.80036  0.33494  0.30492  1.0000
  C   C2987     1.0  0.96239  0.43841  0.21326  1.0000
  H   H5279     1.0  0.79314  0.38647  0.46002  1.0000
  H   H5280     1.0  0.79531  0.41972  0.02826  1.0000
  H   H5281     1.0  0.86245  0.45906  0.00063  1.0000
  C   C2988     1.0  0.75410  0.49120  0.41587  1.0000
  H   H5282     1.0  0.93650  0.50184  0.37412  1.0000
  C   C2989     1.0  0.82501  0.50100  0.00926  1.0000
  H   H5283     1.0  0.79341  0.33314  0.22540  1.0000
  H   H5284     1.0  0.76328  0.30941  0.30516  1.0000
  H   H5285     1.0  0.78809  0.38203  0.03340  1.0000
  H   H5286     1.0  0.77289  0.41735  0.23026  1.0000
  C   C2990     1.0  0.75716  0.48819  0.39008  1.0000
  C   C2991     1.0  0.84665  0.47027  0.02734  1.0000
  H   H5287     1.0  0.77229  0.44974  0.35401  1.0000
  H   H5288     1.0  0.76923  0.31567  0.09489  1.0000
  H   H5289     1.0  0.76507  0.42315  0.15405  1.0000
  H   H5290     1.0  0.82151  0.43529  0.00920  1.0000
  H   H5291     1.0  0.79981  0.31976  0.30861  1.0000
  H   H5292     1.0  0.82683  0.44703  0.04210  1.0000
  H   H5293     1.0  0.78621  0.42423  0.45020  1.0000
  Fe  Fe342     1.0  0.82767  0.49231  0.41737  1.0000
  H   H5294     1.0  0.82269  0.39976  0.46963  1.0000
  H   H5295     1.0  0.85112  0.37333  0.01186  1.0000
  H   H5296     1.0  0.78891  0.49281  0.30220  1.0000
  H   H5297     1.0  0.77624  0.44093  0.39090  1.0000
  C   C2992     1.0  0.81001  0.32761  0.34759  1.0000
  H   H5298     1.0  0.79821  0.32059  0.26555  1.0000
  H   H5299     1.0  0.75087  0.29006  0.33770  1.0000
  C   C2993     1.0  0.77354  0.44350  0.41096  1.0000
  H   H5300     1.0  0.90680  0.49641  0.99043  1.0000
  C   C2994     1.0  0.78852  0.32376  0.23462  1.0000
  H   H5301     1.0  0.82458  0.35647  0.03600  1.0000
  H   H5302     1.0  0.78808  0.33639  0.27459  1.0000
  C   C2995     1.0  0.79044  0.41738  0.01275  1.0000
  C   C2996     1.0  0.82335  0.48801  0.02327  1.0000
  C   C2997     1.0  0.99436  0.49189  0.17120  1.0000
  H   H5303     1.0  0.90897  0.49146  0.14446  1.0000
  H   H5304     1.0  0.96689  0.44380  0.26319  1.0000
  C   C2998     1.0  0.82343  0.39512  0.99543  1.0000
  C   C2999     1.0  0.83253  0.47497  0.08137  1.0000
  H   H5305     1.0  0.76354  0.33048  0.99730  1.0000
  C   C3000     1.0  0.85488  0.47707  0.44572  1.0000
  C   C3001     1.0  0.89446  0.45042  0.99094  1.0000
  C   C3002     1.0  0.79533  0.32588  0.31767  1.0000
  C   C3003     1.0  0.82774  0.46445  0.01480  1.0000
  S   S681      1.0  0.78479  0.49701  0.43903  1.0000
  H   H5306     1.0  0.98256  0.46778  0.22700  1.0000
  C   C3004     1.0  0.85672  0.46923  0.42490  1.0000
  C   C3005     1.0  0.86096  0.47663  0.39403  1.0000
  H   H5307     1.0  0.81997  0.37290  0.00735  1.0000
  H   H5308     1.0  0.76988  0.43394  0.45648  1.0000
  H   H5309     1.0  0.81037  0.37455  0.10295  1.0000
  H   H5310     1.0  0.75821  0.30972  0.34173  1.0000
  H   H5311     1.0  0.99497  0.47573  0.08624  1.0000
  H   H5312     1.0  0.87048  0.47203  0.00809  1.0000
  H   H5313     1.0  0.86285  0.48454  0.43980  1.0000
  N   N163      1.0  0.85196  0.47112  0.47716  1.0000
  H   H5314     1.0  0.82033  0.38755  0.05610  1.0000
  H   H5315     1.0  0.85149  0.47581  0.03868  1.0000
  H   H5316     1.0  0.82815  0.45847  0.07084  1.0000
  H   H5317     1.0  0.77337  0.40706  0.01332  1.0000
  H   H5318     1.0  0.75338  0.38976  0.19068  1.0000
  N   N164      1.0  0.83674  0.38173  0.01254  1.0000
  H   H5319     1.0  0.76290  0.39127  0.09559  1.0000
  H   H5320     1.0  0.92063  0.39236  0.98990  1.0000
  C   C3006     1.0  0.77532  0.30048  0.00179  1.0000
  H   H5321     1.0  0.86333  0.46432  0.42861  1.0000
  H   H5322     1.0  0.89619  0.48442  0.98744  1.0000
  H   H5323     1.0  0.86242  0.47085  0.37957  1.0000
  H   H5324     1.0  0.85433  0.48125  0.38838  1.0000
  H   H5325     1.0  0.86933  0.48322  0.39077  1.0000
  H   H5326     1.0  0.75440  0.34582  0.33030  1.0000
  H   H5327     1.0  0.97337  0.45475  0.30759  1.0000
  H   H5328     1.0  0.76806  0.30693  0.05361  1.0000
  C   C3007     1.0  0.76810  0.38759  0.05351  1.0000
  H   H5329     1.0  0.79490  0.37854  0.98354  1.0000
  S   S682      1.0  0.81486  0.49241  0.45730  1.0000
  H   H5330     1.0  0.75409  0.29384  0.04213  1.0000
  C   C3008     1.0  0.75603  0.32254  0.00673  1.0000
  C   C3009     1.0  0.76425  0.30649  0.32700  1.0000
  C   C3010     1.0  0.90590  0.49550  0.16189  1.0000
  C   C3011     1.0  0.78353  0.40850  0.31048  1.0000
  H   H5331     1.0  0.89902  0.42866  0.23001  1.0000
  H   H5332     1.0  0.78202  0.40854  0.28909  1.0000
  H   H5333     1.0  0.83562  0.36998  0.05300  1.0000
  H   H5334     1.0  0.92541  0.46555  0.98884  1.0000
  H   H5335     1.0  0.81429  0.35314  0.99735  1.0000
  H   H5336     1.0  0.75800  0.46860  0.42983  1.0000
  C   C3012     1.0  0.76757  0.31512  0.03908  1.0000
  H   H5337     1.0  0.79182  0.39820  0.40660  1.0000
  H   H5338     1.0  0.75511  0.32030  0.39974  1.0000
  C   C3013     1.0  0.75270  0.43658  0.41374  1.0000
  H   H5339     1.0  0.96050  0.44512  0.35594  1.0000
  H   H5340     1.0  0.83041  0.46867  0.99148  1.0000
  S   S683      1.0  0.81402  0.49178  0.39174  1.0000
  H   H5341     1.0  0.78256  0.43222  0.01297  1.0000
  C   C3014     1.0  0.78629  0.43216  0.43398  1.0000
  C   C3015     1.0  0.82320  0.35197  0.99692  1.0000
  C   C3016     1.0  0.75407  0.33303  0.25261  1.0000
  N   N165      1.0  0.76210  0.44700  0.41342  1.0000
  H   H5342     1.0  0.87048  0.47395  0.47441  1.0000
  H   H5343     1.0  0.83014  0.36485  0.47981  1.0000
  H   H5344     1.0  0.77677  0.31983  0.02710  1.0000
  H   H5345     1.0  0.96633  0.47400  0.21730  1.0000
  H   H5346     1.0  0.75156  0.42915  0.43249  1.0000
  H   H5347     1.0  0.75836  0.27911  0.42085  1.0000
  H   H5348     1.0  0.89439  0.48815  0.38260  1.0000
  H   H5349     1.0  0.75702  0.44876  0.35744  1.0000
  H   H5350     1.0  0.78416  0.31022  0.27348  1.0000
  H   H5351     1.0  0.80648  0.39783  0.44275  1.0000
  H   H5352     1.0  0.76172  0.47048  0.33698  1.0000
  C   C3017     1.0  0.76371  0.32330  0.05764  1.0000
  H   H5353     1.0  0.76919  0.46315  0.31359  1.0000
  H   H5354     1.0  0.78338  0.33972  0.32946  1.0000
  H   H5355     1.0  0.79589  0.39960  0.47226  1.0000
  C   C3018     1.0  0.80298  0.40173  0.08759  1.0000
  H   H5356     1.0  0.78040  0.32754  0.06856  1.0000
  H   H5357     1.0  0.79317  0.31534  0.36139  1.0000
  H   H5358     1.0  0.76975  0.43537  0.10482  1.0000
  H   H5359     1.0  0.75497  0.33356  0.47575  1.0000
  H   H5360     1.0  0.99174  0.49900  0.17894  1.0000
  N   N166      1.0  0.78017  0.39590  0.04254  1.0000
  H   H5361     1.0  0.81925  0.36442  0.09792  1.0000
  H   H5362     1.0  0.76023  0.39932  0.34261  1.0000
  H   H5363     1.0  0.81606  0.39055  0.01432  1.0000
  C   C3019     1.0  0.75213  0.42802  0.13280  1.0000
  C   C3020     1.0  0.81913  0.37383  0.09229  1.0000
  H   H5364     1.0  0.76760  0.45435  0.44660  1.0000
  H   H5365     1.0  0.85748  0.48356  0.98860  1.0000
  H   H5366     1.0  0.95340  0.44599  0.25688  1.0000
  C   C3021     1.0  0.95304  0.48836  0.22745  1.0000
  H   H5367     1.0  0.79629  0.43546  0.98686  1.0000
  H   H5368     1.0  0.84649  0.46109  0.03787  1.0000
  H   H5369     1.0  0.76878  0.37851  0.06231  1.0000
  H   H5370     1.0  0.81107  0.44363  0.01770  1.0000
  H   H5371     1.0  0.75538  0.43313  0.39492  1.0000
  H   H5372     1.0  0.80357  0.40597  0.04326  1.0000
  H   H5373     1.0  0.77713  0.47122  0.33335  1.0000
  H   H5374     1.0  0.90076  0.43896  0.25135  1.0000
  C   C3022     1.0  0.95758  0.45127  0.34059  1.0000
  N   N167      1.0  0.83439  0.47175  0.03057  1.0000
  H   H5375     1.0  0.77525  0.47982  0.26014  1.0000
  H   H5376     1.0  0.81923  0.48647  0.04625  1.0000
  C   C3023     1.0  0.75454  0.41039  0.20530  1.0000
  C   C3024     1.0  0.76650  0.29714  0.41796  1.0000
  C   C3025     1.0  0.97863  0.46664  0.25007  1.0000
  C   C3026     1.0  0.83389  0.37862  0.04459  1.0000
  C   C3027     1.0  0.75601  0.41930  0.22373  1.0000
  H   H5377     1.0  0.77420  0.41160  0.04452  1.0000
  H   H5378     1.0  0.95222  0.46463  0.23505  1.0000
  C   C3028     1.0  0.96304  0.45002  0.25059  1.0000
  C   C3029     1.0  0.78324  0.32702  0.28407  1.0000
  H   H5379     1.0  0.79299  0.33045  0.35900  1.0000
  H   H5380     1.0  0.92473  0.48694  0.32065  1.0000
  C   C3030     1.0  0.78289  0.38911  0.99565  1.0000
  H   H5381     1.0  0.83979  0.38504  0.05187  1.0000
  H   H5382     1.0  0.96636  0.45718  0.20391  1.0000
  H   H5383     1.0  0.89148  0.50170  0.02339  1.0000
  C   C3031     1.0  0.82137  0.37844  0.06008  1.0000
  H   H5384     1.0  0.76336  0.40939  0.19567  1.0000
  H   H5385     1.0  0.77054  0.34202  0.29868  1.0000
  C   C3032     1.0  0.98923  0.47454  0.15334  1.0000
  C   C3033     1.0  0.96020  0.46987  0.23878  1.0000
  C   C3034     1.0  0.76690  0.33569  0.32001  1.0000
  H   H5386     1.0  0.88725  0.43524  0.24084  1.0000
  H   H5387     1.0  0.78175  0.38815  0.08487  1.0000
  N   N168      1.0  0.90905  0.47419  0.02467  1.0000
  C   C3035     1.0  0.91932  0.48057  0.99936  1.0000
  C   C3036     1.0  0.90067  0.48186  0.02917  1.0000
  C   C3037     1.0  0.91381  0.47191  0.05067  1.0000
  C   C3038     1.0  0.90289  0.46245  0.02169  1.0000
  H   H5388     1.0  0.75685  0.43191  0.16964  1.0000
  C   C3039     1.0  0.77895  0.40783  0.02843  1.0000
  C   C3040     1.0  0.90463  0.46755  0.08006  1.0000
  C   C3041     1.0  0.91601  0.39948  0.98980  1.0000
  C   C3042     1.0  0.96794  0.44995  0.21916  1.0000
  H   H5389     1.0  0.75435  0.32024  0.06924  1.0000
  H   H5390     1.0  0.82502  0.46092  0.12072  1.0000
  C   C3043     1.0  0.91057  0.46538  0.10431  1.0000
  H   H5391     1.0  0.92351  0.48926  0.00222  1.0000
  C   C3044     1.0  0.75585  0.31134  0.40417  1.0000
  H   H5392     1.0  0.89198  0.47639  0.04287  1.0000
  H   H5393     1.0  0.76354  0.44584  0.12022  1.0000
  H   H5394     1.0  0.92009  0.48004  0.05105  1.0000
  H   H5395     1.0  0.91888  0.46514  0.04993  1.0000
  H   H5396     1.0  0.90879  0.45646  0.02151  1.0000
  H   H5397     1.0  0.89549  0.45787  0.04067  1.0000
  C   C3045     1.0  0.83544  0.39395  0.00069  1.0000
  H   H5398     1.0  0.98115  0.48571  0.24004  1.0000
  H   H5399     1.0  0.93312  0.47250  0.01109  1.0000
  H   H5400     1.0  0.77441  0.32652  0.28057  1.0000
  H   H5401     1.0  0.89837  0.45915  0.08177  1.0000
  H   H5402     1.0  0.89964  0.47413  0.08375  1.0000
  H   H5403     1.0  0.79305  0.35471  0.99791  1.0000
  H   H5404     1.0  0.81258  0.40294  0.08339  1.0000
  S   S684      1.0  0.79382  0.45752  0.01842  1.0000
  H   H5405     1.0  0.94797  0.47588  0.26824  1.0000
  H   H5406     1.0  0.78112  0.30321  0.01518  1.0000
  N   N169      1.0  0.76042  0.31214  0.01858  1.0000
  H   H5407     1.0  0.77495  0.38166  0.00209  1.0000
  H   H5408     1.0  0.75738  0.39905  0.06843  1.0000
  S   S685      1.0  0.97924  0.46407  0.14288  1.0000
  C   C3046     1.0  0.89866  0.48953  0.00223  1.0000
  C   C3047     1.0  0.82494  0.47019  0.11199  1.0000
  H   H5409     1.0  0.90392  0.46257  0.12512  1.0000
  H   H5410     1.0  0.91511  0.45828  0.10270  1.0000
  H   H5411     1.0  0.91703  0.47349  0.10379  1.0000
  N   N170      1.0  0.87701  0.41617  0.32701  1.0000
  C   C3048     1.0  0.87204  0.42207  0.34899  1.0000
  C   C3049     1.0  0.88619  0.41069  0.33681  1.0000
  C   C3050     1.0  0.88319  0.42567  0.29980  1.0000
  C   C3051     1.0  0.86774  0.40720  0.32102  1.0000
  C   C3052     1.0  0.85689  0.40037  0.34615  1.0000
  C   C3053     1.0  0.86407  0.43005  0.34023  1.0000
  C   C3054     1.0  0.88946  0.42158  0.27446  1.0000
  C   C3055     1.0  0.88212  0.40100  0.36524  1.0000
  C   C3056     1.0  0.89257  0.39744  0.37412  1.0000
  C   C3057     1.0  0.84937  0.39025  0.33852  1.0000
  C   C3058     1.0  0.85676  0.43256  0.36621  1.0000
  C   C3059     1.0  0.89437  0.43176  0.24760  1.0000
  H   H5412     1.0  0.87926  0.42766  0.35470  1.0000
  H   H5413     1.0  0.86705  0.41552  0.36919  1.0000
  H   H5414     1.0  0.89028  0.40648  0.32086  1.0000
  H   H5415     1.0  0.89335  0.41769  0.33878  1.0000
  H   H5416     1.0  0.88981  0.43261  0.30396  1.0000
  H   H5417     1.0  0.87688  0.43017  0.29171  1.0000
  H   H5418     1.0  0.86416  0.41145  0.30378  1.0000
  H   H5419     1.0  0.87173  0.40062  0.31256  1.0000
  H   H5420     1.0  0.85129  0.40627  0.35160  1.0000
  H   H5421     1.0  0.85935  0.39664  0.36562  1.0000
  H   H5422     1.0  0.86954  0.43864  0.32595  1.0000
  H   H5423     1.0  0.85808  0.42600  0.32873  1.0000
  H   H5424     1.0  0.88337  0.41450  0.26954  1.0000
  H   H5425     1.0  0.89696  0.41828  0.27906  1.0000
  H   H5426     1.0  0.87742  0.40396  0.38290  1.0000
  H   H5427     1.0  0.87644  0.39299  0.36275  1.0000
  H   H5428     1.0  0.89752  0.39402  0.35762  1.0000
  H   H5429     1.0  0.89852  0.40508  0.37748  1.0000
  H   H5430     1.0  0.78229  0.30525  0.32073  1.0000
  H   H5431     1.0  0.88840  0.49504  0.35535  1.0000
  H   H5432     1.0  0.88943  0.39044  0.39444  1.0000
  H   H5433     1.0  0.95962  0.46010  0.34473  1.0000
  H   H5434     1.0  0.76733  0.34946  0.34268  1.0000
  C   C3060     1.0  0.76837  0.30971  0.99389  1.0000
  C   C3061     1.0  0.79340  0.46332  0.04837  1.0000
  C   C3062     1.0  0.79422  0.47526  0.04589  1.0000
  C   C3063     1.0  0.91790  0.49117  0.43832  1.0000
  S   S686      1.0  0.92999  0.50193  0.43842  1.0000
  H   H5435     1.0  0.79569  0.43195  0.29683  1.0000
  H   H5436     1.0  0.79798  0.39680  0.35731  1.0000
  C   C3064     1.0  0.77376  0.43306  0.43506  1.0000
  C   C3065     1.0  0.90710  0.49368  0.43773  1.0000
  H   H5437     1.0  0.88940  0.48688  0.43578  1.0000
  S   S687      1.0  0.77025  0.35664  0.98972  1.0000
  H   H5438     1.0  0.80794  0.41775  0.33415  1.0000
  C   C3066     1.0  0.79840  0.41498  0.33604  1.0000
  C   C3067     1.0  0.79995  0.42578  0.28726  1.0000
  C   C3068     1.0  0.81328  0.43170  0.27743  1.0000
  H   H5439     1.0  0.81703  0.43215  0.29586  1.0000
  H   H5440     1.0  0.77582  0.41562  0.34560  1.0000
  H   H5441     1.0  0.84779  0.48101  0.44051  1.0000
  N   N171      1.0  0.96554  0.46189  0.25714  1.0000
  C   C3069     1.0  0.98602  0.48365  0.16410  1.0000
  H   H5442     1.0  0.76848  0.33070  0.09127  1.0000
  H   H5443     1.0  0.95282  0.43725  0.21634  1.0000
  H   H5444     1.0  0.91644  0.49762  0.37702  1.0000
  H   H5445     1.0  0.80824  0.38742  0.27439  1.0000
  N   N172      1.0  0.79629  0.41372  0.30777  1.0000
  C   C3070     1.0  0.76220  0.40826  0.32810  1.0000
  H   H5446     1.0  0.90257  0.44772  0.98349  1.0000
  H   H5447     1.0  0.81997  0.40051  0.25626  1.0000
  H   H5448     1.0  0.81797  0.42677  0.26444  1.0000
  H   H5449     1.0  0.79138  0.44003  0.43854  1.0000
  H   H5450     1.0  0.77353  0.32707  0.35400  1.0000
  H   H5451     1.0  0.91733  0.40361  0.00734  1.0000
  H   H5452     1.0  0.75615  0.41311  0.33745  1.0000
  H   H5453     1.0  0.88776  0.50106  0.99033  1.0000
  H   H5454     1.0  0.81725  0.48282  0.01389  1.0000
  H   H5455     1.0  0.79480  0.48105  0.02559  1.0000
  H   H5456     1.0  0.81465  0.37282  0.05308  1.0000
  H   H5457     1.0  0.81261  0.40872  0.29722  1.0000
  H   H5458     1.0  0.78085  0.39903  0.32231  1.0000
  C   C3071     1.0  0.80327  0.40565  0.29733  1.0000
  H   H5459     1.0  0.79649  0.39627  0.01373  1.0000
  H   H5460     1.0  0.94805  0.49271  0.47777  1.0000
  H   H5461     1.0  0.81846  0.46729  0.06456  1.0000
  S   S688      1.0  0.90201  0.42315  0.00507  1.0000
  H   H5462     1.0  0.81425  0.33690  0.33549  1.0000
  H   H5463     1.0  0.79072  0.43151  0.41263  1.0000
  C   C3072     1.0  0.82931  0.37278  0.00185  1.0000
  H   H5464     1.0  0.80019  0.39675  0.31227  1.0000
  H   H5465     1.0  0.90649  0.39555  0.99376  1.0000
  H   H5466     1.0  0.79604  0.41445  0.99642  1.0000
  H   H5467     1.0  0.75995  0.42842  0.21071  1.0000
  H   H5468     1.0  0.80548  0.41221  0.25114  1.0000
  C   C3073     1.0  0.77691  0.33145  0.33080  1.0000
  H   H5469     1.0  0.97913  0.47897  0.27751  1.0000
  H   H5470     1.0  0.96401  0.43082  0.22754  1.0000
  C   C3074     1.0  0.80270  0.40376  0.26765  1.0000
  C   C3075     1.0  0.98310  0.47875  0.25551  1.0000
  H   H5471     1.0  0.77637  0.30879  0.35238  1.0000
  C   C3076     1.0  0.79704  0.32452  0.34822  1.0000
  H   H5472     1.0  0.75658  0.46149  0.38995  1.0000
  H   H5473     1.0  0.79369  0.39922  0.26802  1.0000
  H   H5474     1.0  0.80979  0.39457  0.23771  1.0000
  C   C3077     1.0  0.76535  0.45436  0.35849  1.0000
  C   C3078     1.0  0.76395  0.45725  0.38796  1.0000
  H   H5475     1.0  0.88933  0.46545  0.00004  1.0000
  C   C3079     1.0  0.76583  0.30886  0.41218  1.0000
  C   C3080     1.0  0.78531  0.39655  0.06776  1.0000
  Fe  Fe343     1.0  0.90028  0.42588  0.46356  1.0000
  C   C3081     1.0  0.82933  0.35974  0.01309  1.0000
  H   H5476     1.0  0.96267  0.48491  0.25858  1.0000
  S   S689      1.0  0.94786  0.44286  0.14786  1.0000
  S   S690      1.0  0.88243  0.42939  0.46626  1.0000
  C   C3082     1.0  0.95602  0.47978  0.25048  1.0000
  Fe  Fe344     1.0  0.80097  0.48991  0.43299  1.0000
  H   H5477     1.0  0.98265  0.46016  0.26134  1.0000
  N   N173      1.0  0.78282  0.32370  0.31539  1.0000
  C   C3083     1.0  0.81069  0.39610  0.25856  1.0000
  C   C3084     1.0  0.76863  0.48732  0.38016  1.0000
  H   H5478     1.0  0.84831  0.46295  0.42688  1.0000
  H   H5479     1.0  0.75764  0.47502  0.24123  1.0000
  C   C3085     1.0  0.76086  0.34211  0.33974  1.0000
  H   H5480     1.0  0.77409  0.29499  0.42397  1.0000
  C   C3086     1.0  0.75659  0.47600  0.26327  1.0000
  C   C3087     1.0  0.78794  0.42867  0.99752  1.0000
  C   C3088     1.0  0.86512  0.46883  0.99428  1.0000
  H   H5481     1.0  0.96626  0.43856  0.19082  1.0000
  H   H5482     1.0  0.75053  0.47670  0.08763  1.0000
  C   C3089     1.0  0.82875  0.45153  0.01920  1.0000
  C   C3090     1.0  0.76792  0.48404  0.26449  1.0000
  H   H5483     1.0  0.83788  0.39981  0.01438  1.0000
  H   H5484     1.0  0.96089  0.46856  0.29427  1.0000
  H   H5485     1.0  0.79871  0.39453  0.10721  1.0000
  H   H5486     1.0  0.83771  0.45129  0.00864  1.0000
  C   C3091     1.0  0.80007  0.39322  0.46354  1.0000
  C   C3092     1.0  0.76852  0.46552  0.33422  1.0000
  C   C3093     1.0  0.76038  0.29305  0.33566  1.0000
  S   S691      1.0  0.75244  0.44697  0.24437  1.0000
  C   C3094     1.0  0.77404  0.49276  0.42110  1.0000
  C   C3095     1.0  0.75937  0.45057  0.44116  1.0000
  C   C3096     1.0  0.75063  0.30115  0.03250  1.0000
  H   H5487     1.0  0.75621  0.33598  0.36084  1.0000
  C   C3097     1.0  0.76158  0.43817  0.11117  1.0000
  C   C3098     1.0  0.89758  0.46263  0.99584  1.0000
  H   H5488     1.0  0.90601  0.50238  0.43791  1.0000
  C   C3099     1.0  0.83513  0.48455  0.01843  1.0000
  C   C3100     1.0  0.76257  0.49368  0.43105  1.0000
  H   H5489     1.0  0.76202  0.28945  0.35650  1.0000
  H   H5490     1.0  0.76916  0.47729  0.05477  1.0000
  C   C3101     1.0  0.84939  0.38170  0.00155  1.0000
  H   H5491     1.0  0.83827  0.35848  0.01055  1.0000
  H   H5492     1.0  0.75467  0.44270  0.45914  1.0000
  C   C3102     1.0  0.99637  0.48180  0.25103  1.0000
  H   H5493     1.0  0.86393  0.45997  0.47222  1.0000
  H   H5494     1.0  0.84124  0.49031  0.02684  1.0000
  H   H5495     1.0  0.76517  0.33228  0.04396  1.0000
  C   C3103     1.0  0.94654  0.49740  0.16127  1.0000
  H   H5496     1.0  0.76026  0.49642  0.45041  1.0000
  H   H5497     1.0  0.76449  0.42270  0.25674  1.0000
  H   H5498     1.0  0.87277  0.38260  0.00103  1.0000
  C   C3104     1.0  0.82326  0.40805  0.98691  1.0000
  C   C3105     1.0  0.75105  0.46902  0.07870  1.0000
  C   C3106     1.0  0.87113  0.39116  0.99174  1.0000
  H   H5499     1.0  0.83809  0.41250  0.47298  1.0000
  H   H5500     1.0  0.75446  0.33946  0.23265  1.0000
  H   H5501     1.0  0.75020  0.32489  0.02383  1.0000
  C   C3107     1.0  0.88903  0.49572  0.01006  1.0000
  H   H5502     1.0  0.88888  0.44385  0.01069  1.0000
  H   H5503     1.0  0.75045  0.42077  0.12234  1.0000
  C   C3108     1.0  0.75605  0.42421  0.16048  1.0000
  H   H5504     1.0  0.98636  0.48362  0.06794  1.0000
  H   H5505     1.0  0.75330  0.34034  0.14696  1.0000
  H   H5506     1.0  0.83898  0.48711  0.99497  1.0000
  H   H5507     1.0  0.81578  0.47062  0.11293  1.0000
  H   H5508     1.0  0.94479  0.50224  0.28352  1.0000
  C   C3109     1.0  0.75357  0.32459  0.47225  1.0000
  H   H5509     1.0  0.82556  0.44452  0.47116  1.0000
  H   H5510     1.0  0.87768  0.39832  0.99513  1.0000
  C   C3110     1.0  0.75226  0.45994  0.44261  1.0000
  H   H5511     1.0  0.85791  0.40053  0.99636  1.0000
  H   H5512     1.0  0.90730  0.48972  0.33746  1.0000
  H   H5513     1.0  0.80995  0.38094  0.47452  1.0000
  H   H5514     1.0  0.78074  0.39711  0.98478  1.0000
  H   H5515     1.0  0.99822  0.49689  0.08786  1.0000
  H   H5516     1.0  0.99890  0.47551  0.26695  1.0000
  H   H5517     1.0  0.74989  0.47911  0.03843  1.0000
  H   H5518     1.0  0.78820  0.29252  0.98132  1.0000
  C   C3111     1.0  0.79197  0.50146  0.28615  1.0000
  N   N174      1.0  0.92969  0.50216  0.33697  1.0000
  C   C3112     1.0  0.91803  0.50254  0.35440  1.0000
  H   H5519     1.0  0.84960  0.47071  0.98139  1.0000
  H   H5520     1.0  0.99910  0.48055  0.04777  1.0000
  H   H5521     1.0  0.85629  0.42240  0.47983  1.0000
  S   S692      1.0  0.84710  0.50248  0.39940  1.0000
  C   C3113     1.0  0.74936  0.45042  0.19044  1.0000
  H   H5522     1.0  0.74994  0.40182  0.22080  1.0000
  C   C3114     1.0  0.74943  0.32123  0.98344  1.0000
  H   H5523     1.0  0.78329  0.42703  0.98104  1.0000
  H   H5524     1.0  0.81496  0.40876  0.98128  1.0000
  H   H5525     1.0  0.75849  0.31957  0.48452  1.0000
  Fe  Fe345     1.0  0.89717  0.42600  0.96115  1.0000
  H   H5526     1.0  0.93319  0.40294  0.86204  1.0000
  C   C3115     1.0  0.94887  0.50111  0.65496  1.0000
  H   H5527     1.0  0.75886  0.44473  0.52319  1.0000
  C   C3116     1.0  0.89596  0.47346  0.91932  1.0000
  H   H5528     1.0  0.78450  0.47118  0.62384  1.0000
  H   H5529     1.0  0.78149  0.32309  0.77030  1.0000
  Fe  Fe346     1.0  0.88846  0.44417  0.92352  1.0000
  H   H5530     1.0  0.89220  0.45828  0.49177  1.0000
  H   H5531     1.0  0.93415  0.49605  0.79196  1.0000
  Fe  Fe347     1.0  0.90394  0.43077  0.89440  1.0000
  S   S693      1.0  0.89600  0.41411  0.93066  1.0000
  S   S694      1.0  0.92024  0.43631  0.85636  1.0000
  Fe  Fe348     1.0  0.87845  0.41794  0.92787  1.0000
  S   S695      1.0  0.85997  0.40691  0.92908  1.0000
  C   C3117     1.0  0.94082  0.40751  0.72576  1.0000
  C   C3118     1.0  0.82097  0.36991  0.51613  1.0000
  S   S696      1.0  0.88658  0.43408  0.89077  1.0000
  S   S697      1.0  0.90626  0.44195  0.92522  1.0000
  Fe  Fe349     1.0  0.94116  0.44939  0.68272  1.0000
  S   S698      1.0  0.93074  0.43558  0.72455  1.0000
  Fe  Fe350     1.0  0.94301  0.47385  0.64888  1.0000
  C   C3119     1.0  0.89390  0.48363  0.92680  1.0000
  S   S699      1.0  0.93754  0.49048  0.65067  1.0000
  Fe  Fe351     1.0  0.94272  0.45422  0.61743  1.0000
  S   S700      1.0  0.93690  0.44897  0.57842  1.0000
  S   S701      1.0  0.93024  0.45662  0.65502  1.0000
  H   H5532     1.0  0.77401  0.29260  0.91024  1.0000
  Fe  Fe352     1.0  0.80526  0.35538  0.91564  1.0000
  S   S702      1.0  0.79429  0.36840  0.91594  1.0000
  S   S703      1.0  0.82486  0.36117  0.91534  1.0000
  Fe  Fe353     1.0  0.78347  0.33484  0.91809  1.0000
  S   S704      1.0  0.77178  0.34702  0.91934  1.0000
  S   S705      1.0  0.77554  0.31570  0.91695  1.0000
  Fe  Fe354     1.0  0.78645  0.36008  0.88516  1.0000
  S   S706      1.0  0.78129  0.36985  0.84756  1.0000
  Fe  Fe355     1.0  0.78095  0.35382  0.94994  1.0000
  H   H5533     1.0  0.75348  0.35079  0.86937  1.0000
  S   S707      1.0  0.79811  0.34778  0.88236  1.0000
  S   S708      1.0  0.79198  0.34088  0.95122  1.0000
  Fe  Fe356     1.0  0.76123  0.34891  0.68428  1.0000
  S   S709      1.0  0.77882  0.34500  0.67608  1.0000
  C   C3120     1.0  0.86123  0.46122  0.51544  1.0000
  Fe  Fe357     1.0  0.77198  0.37532  0.66667  1.0000
  S   S710      1.0  0.79030  0.37314  0.65709  1.0000
  S   S711      1.0  0.76785  0.39306  0.66202  1.0000
  Fe  Fe358     1.0  0.78322  0.35948  0.63594  1.0000
  S   S712      1.0  0.79340  0.35742  0.59416  1.0000
  Fe  Fe359     1.0  0.78393  0.35901  0.69817  1.0000
  S   S713      1.0  0.79488  0.35661  0.72999  1.0000
  S   S714      1.0  0.76526  0.36257  0.64279  1.0000
  S   S715      1.0  0.76599  0.36194  0.70911  1.0000
  Fe  Fe360     1.0  0.82299  0.48768  0.93388  1.0000
  S   S716      1.0  0.81630  0.46794  0.94542  1.0000
  Fe  Fe361     1.0  0.79826  0.49011  0.92943  1.0000
  S   S717      1.0  0.79041  0.47073  0.94148  1.0000
  H   H5534     1.0  0.95446  0.42573  0.96464  1.0000
  H   H5535     1.0  0.74979  0.47538  0.65736  1.0000
  H   H5536     1.0  0.92955  0.46775  0.53747  1.0000
  Fe  Fe362     1.0  0.80683  0.47039  0.91117  1.0000
  S   S718      1.0  0.80515  0.45801  0.88263  1.0000
  S   S719      1.0  0.80752  0.48984  0.96486  1.0000
  Fe  Fe363     1.0  0.78228  0.45949  0.70727  1.0000
  S   S720      1.0  0.79523  0.47700  0.69578  1.0000
  S   S721      1.0  0.76332  0.45947  0.72146  1.0000
  Fe  Fe364     1.0  0.80118  0.44704  0.69382  1.0000
  S   S722      1.0  0.81569  0.46350  0.68151  1.0000
  S   S723      1.0  0.80596  0.43035  0.68939  1.0000
  Fe  Fe365     1.0  0.80568  0.46743  0.72044  1.0000
  S   S724      1.0  0.81496  0.47654  0.74846  1.0000
  Fe  Fe366     1.0  0.80392  0.47140  0.65822  1.0000
  S   S725      1.0  0.80938  0.48373  0.61412  1.0000
  S   S726      1.0  0.79206  0.45017  0.73472  1.0000
  S   S727      1.0  0.79010  0.45462  0.66784  1.0000
  C   C3121     1.0  0.80729  0.46348  0.84563  1.0000
  C   C3122     1.0  0.80281  0.45600  0.82997  1.0000
  C   C3123     1.0  0.80493  0.45991  0.80019  1.0000
  C   C3124     1.0  0.81178  0.47126  0.78584  1.0000
  C   C3125     1.0  0.81622  0.47875  0.80155  1.0000
  C   C3126     1.0  0.81386  0.47494  0.83137  1.0000
  H   H5537     1.0  0.79773  0.44711  0.84090  1.0000
  H   H5538     1.0  0.80138  0.45412  0.78834  1.0000
  H   H5539     1.0  0.82150  0.48755  0.79055  1.0000
  H   H5540     1.0  0.81741  0.48075  0.84318  1.0000
  H   H5541     1.0  0.79491  0.48431  0.77985  1.0000
  H   H5542     1.0  0.75278  0.32267  0.85047  1.0000
  C   C3127     1.0  0.80826  0.48345  0.55984  1.0000
  C   C3128     1.0  0.80997  0.47729  0.58524  1.0000
  C   C3129     1.0  0.81210  0.46616  0.58711  1.0000
  C   C3130     1.0  0.81256  0.46129  0.56358  1.0000
  H   H5543     1.0  0.92206  0.39528  0.66811  1.0000
  H   H5544     1.0  0.80663  0.49207  0.55829  1.0000
  H   H5545     1.0  0.81351  0.46138  0.60659  1.0000
  H   H5546     1.0  0.81437  0.45277  0.56502  1.0000
  C   C3131     1.0  0.77847  0.40376  0.66866  1.0000
  C   C3132     1.0  0.77537  0.41315  0.67841  1.0000
  C   C3133     1.0  0.78381  0.42154  0.68436  1.0000
  C   C3134     1.0  0.79535  0.42056  0.68042  1.0000
  C   C3135     1.0  0.79847  0.41136  0.67008  1.0000
  C   C3136     1.0  0.79007  0.40302  0.66415  1.0000
  H   H5547     1.0  0.76640  0.41376  0.68211  1.0000
  H   H5548     1.0  0.78131  0.42855  0.69270  1.0000
  H   H5549     1.0  0.80741  0.41067  0.66661  1.0000
  H   H5550     1.0  0.79266  0.39614  0.65567  1.0000
  C   C3137     1.0  0.77775  0.35920  0.51714  1.0000
  C   C3138     1.0  0.77220  0.36233  0.54110  1.0000
  C   C3139     1.0  0.77670  0.36151  0.56519  1.0000
  C   C3140     1.0  0.78678  0.35752  0.56554  1.0000
  C   C3141     1.0  0.79209  0.35401  0.54198  1.0000
  C   C3142     1.0  0.78770  0.35498  0.51772  1.0000
  H   H5551     1.0  0.76447  0.36557  0.54092  1.0000
  H   H5552     1.0  0.77247  0.36420  0.58320  1.0000
  H   H5553     1.0  0.79971  0.35062  0.54238  1.0000
  C   C3143     1.0  0.76906  0.48071  0.52531  1.0000
  C   C3144     1.0  0.78513  0.36608  0.81509  1.0000
  C   C3145     1.0  0.77788  0.36689  0.79646  1.0000
  C   C3146     1.0  0.78080  0.36409  0.77023  1.0000
  C   C3147     1.0  0.79103  0.36048  0.76242  1.0000
  C   C3148     1.0  0.79836  0.35980  0.78094  1.0000
  C   C3149     1.0  0.79542  0.36257  0.80723  1.0000
  H   H5554     1.0  0.76993  0.36965  0.80237  1.0000
  H   H5555     1.0  0.77514  0.36475  0.75612  1.0000
  H   H5556     1.0  0.80636  0.35715  0.77487  1.0000
  H   H5557     1.0  0.80118  0.36211  0.82124  1.0000
  H   H5558     1.0  0.77220  0.46624  0.78473  1.0000
  H   H5559     1.0  0.89898  0.45871  0.58059  1.0000
  C   C3150     1.0  0.78099  0.48096  0.85341  1.0000
  H   H5560     1.0  0.75143  0.48845  0.63005  1.0000
  H   H5561     1.0  0.94130  0.45801  0.94539  1.0000
  H   H5562     1.0  0.88422  0.44426  0.51574  1.0000
  C   C3151     1.0  0.90062  0.43062  0.67872  1.0000
  C   C3152     1.0  0.75150  0.41394  0.62944  1.0000
  H   H5563     1.0  0.93826  0.40726  0.95155  1.0000
  C   C3153     1.0  0.91692  0.40201  0.66781  1.0000
  H   H5564     1.0  0.76909  0.30859  0.56077  1.0000
  H   H5565     1.0  0.77355  0.33845  0.79119  1.0000
  C   C3154     1.0  0.77876  0.48683  0.80396  1.0000
  H   H5566     1.0  0.80050  0.49262  0.81426  1.0000
  H   H5567     1.0  0.76492  0.44096  0.69249  1.0000
  H   H5568     1.0  0.93492  0.44718  0.89783  1.0000
  H   H5569     1.0  0.76868  0.41654  0.60294  1.0000
  C   C3155     1.0  0.76683  0.43345  0.61140  1.0000
  H   H5570     1.0  0.76852  0.48047  0.92574  1.0000
  C   C3156     1.0  0.86905  0.46919  0.52811  1.0000
  H   H5571     1.0  0.90796  0.45200  0.62942  1.0000
  C   C3157     1.0  0.93714  0.41255  0.89291  1.0000
  C   C3158     1.0  0.84061  0.40812  0.49193  1.0000
  H   H5572     1.0  0.98162  0.49207  0.56146  1.0000
  C   C3159     1.0  0.75391  0.45212  0.70436  1.0000
  H   H5573     1.0  0.76725  0.45389  0.63302  1.0000
  C   C3160     1.0  0.93435  0.41263  0.68028  1.0000
  H   H5574     1.0  0.75544  0.30447  0.62080  1.0000
  H   H5575     1.0  0.94670  0.41422  0.88393  1.0000
  C   C3161     1.0  0.85056  0.39435  0.92344  1.0000
  C   C3162     1.0  0.83877  0.39423  0.92428  1.0000
  C   C3163     1.0  0.83084  0.38432  0.92157  1.0000
  C   C3164     1.0  0.83452  0.37424  0.91799  1.0000
  C   C3165     1.0  0.84632  0.37439  0.91701  1.0000
  C   C3166     1.0  0.85426  0.38433  0.91955  1.0000
  H   H5576     1.0  0.97518  0.43920  0.91290  1.0000
  C   C3167     1.0  0.76848  0.44672  0.51438  1.0000
  H   H5577     1.0  0.84936  0.36673  0.91422  1.0000
  H   H5578     1.0  0.86324  0.38416  0.91884  1.0000
  C   C3168     1.0  0.91416  0.43062  0.52586  1.0000
  C   C3169     1.0  0.91049  0.42794  0.55585  1.0000
  C   C3170     1.0  0.91723  0.43346  0.57195  1.0000
  C   C3171     1.0  0.92805  0.44165  0.55860  1.0000
  C   C3172     1.0  0.93179  0.44430  0.52858  1.0000
  C   C3173     1.0  0.92490  0.43894  0.51237  1.0000
  H   H5579     1.0  0.90228  0.42152  0.56676  1.0000
  H   H5580     1.0  0.91396  0.43139  0.59474  1.0000
  H   H5581     1.0  0.94007  0.45059  0.51769  1.0000
  H   H5582     1.0  0.77354  0.33066  0.51129  1.0000
  C   C3174     1.0  0.92217  0.43682  0.81932  1.0000
  C   C3175     1.0  0.93194  0.44494  0.79926  1.0000
  C   C3176     1.0  0.93439  0.44507  0.77005  1.0000
  C   C3177     1.0  0.92729  0.43681  0.76052  1.0000
  C   C3178     1.0  0.91752  0.42868  0.78059  1.0000
  C   C3179     1.0  0.91488  0.42878  0.80965  1.0000
  H   H5583     1.0  0.93772  0.45114  0.80638  1.0000
  H   H5584     1.0  0.94199  0.45130  0.75508  1.0000
  H   H5585     1.0  0.91199  0.42219  0.77366  1.0000
  H   H5586     1.0  0.90742  0.42238  0.82471  1.0000
  H   H5587     1.0  0.82185  0.38446  0.92232  1.0000
  H   H5588     1.0  0.91106  0.46789  0.50169  1.0000
  H   H5589     1.0  0.76686  0.47649  0.50853  1.0000
  H   H5590     1.0  0.92720  0.45579  0.93735  1.0000
  H   H5591     1.0  0.78703  0.47192  0.80947  1.0000
  H   H5592     1.0  0.94776  0.48916  0.51511  1.0000
  H   H5593     1.0  0.83661  0.36326  0.50978  1.0000
  H   H5594     1.0  0.77469  0.33724  0.61968  1.0000
  C   C3180     1.0  0.90330  0.48543  0.51414  1.0000
  H   H5595     1.0  0.76707  0.31355  0.78114  1.0000
  H   H5596     1.0  0.91250  0.45482  0.57428  1.0000
  C   C3181     1.0  0.90747  0.47257  0.91119  1.0000
  C   C3182     1.0  0.91678  0.48131  0.91264  1.0000
  C   C3183     1.0  0.75627  0.28470  0.91084  1.0000
  H   H5597     1.0  0.77072  0.46448  0.90583  1.0000
  H   H5598     1.0  0.90924  0.46520  0.90355  1.0000
  S   S728      1.0  0.81442  0.48990  0.89713  1.0000
  N   N175      1.0  0.82108  0.39190  0.51399  1.0000
  C   C3184     1.0  0.81194  0.38677  0.54211  1.0000
  C   C3185     1.0  0.82779  0.38304  0.50697  1.0000
  C   C3186     1.0  0.82966  0.40226  0.51732  1.0000
  C   C3187     1.0  0.96022  0.49959  0.65142  1.0000
  H   H5599     1.0  0.93452  0.41849  0.85064  1.0000
  C   C3188     1.0  0.80465  0.39510  0.55236  1.0000
  H   H5600     1.0  0.78375  0.44348  0.52656  1.0000
  C   C3189     1.0  0.77377  0.49826  0.83801  1.0000
  C   C3190     1.0  0.79559  0.38889  0.58058  1.0000
  H   H5601     1.0  0.75929  0.43739  0.61625  1.0000
  H   H5602     1.0  0.81617  0.38362  0.55918  1.0000
  H   H5603     1.0  0.80557  0.37879  0.54175  1.0000
  H   H5604     1.0  0.92785  0.48042  0.48883  1.0000
  H   H5605     1.0  0.83514  0.38331  0.51744  1.0000
  H   H5606     1.0  0.83277  0.39957  0.53676  1.0000
  H   H5607     1.0  0.82540  0.40944  0.52043  1.0000
  N   N176      1.0  0.91210  0.47029  0.54345  1.0000
  C   C3191     1.0  0.75226  0.34132  0.86994  1.0000
  H   H5608     1.0  0.78155  0.48417  0.87269  1.0000
  H   H5609     1.0  0.81026  0.40283  0.55612  1.0000
  H   H5610     1.0  0.79988  0.39817  0.53662  1.0000
  H   H5611     1.0  0.81871  0.36659  0.53971  1.0000
  H   H5612     1.0  0.90107  0.50168  0.52497  1.0000
  H   H5613     1.0  0.78900  0.38161  0.57789  1.0000
  H   H5614     1.0  0.79991  0.38530  0.59685  1.0000
  H   H5615     1.0  0.77127  0.47538  0.62098  1.0000
  C   C3192     1.0  0.97101  0.48219  0.71604  1.0000
  C   C3193     1.0  0.86226  0.46675  0.48349  1.0000
  H   H5616     1.0  0.91832  0.40429  0.94461  1.0000
  C   C3194     1.0  0.89625  0.49451  0.51756  1.0000
  H   H5617     1.0  0.95449  0.41933  0.91864  1.0000
  H   H5618     1.0  0.83061  0.41296  0.96799  1.0000
  C   C3195     1.0  0.93375  0.41431  0.95442  1.0000
  H   H5619     1.0  0.76013  0.30996  0.53657  1.0000
  H   H5620     1.0  0.77887  0.47925  0.75522  1.0000
  H   H5621     1.0  0.89213  0.38135  0.71458  1.0000
  N   N177      1.0  0.92482  0.41389  0.66522  1.0000
  H   H5622     1.0  0.76396  0.42827  0.76454  1.0000
  H   H5623     1.0  0.93430  0.41739  0.57799  1.0000
  H   H5624     1.0  0.89528  0.42356  0.69789  1.0000
  H   H5625     1.0  0.93989  0.40732  0.67102  1.0000
  S   S729      1.0  0.87916  0.42856  0.96053  1.0000
  H   H5626     1.0  0.94029  0.42145  0.67716  1.0000
  H   H5627     1.0  0.77736  0.45720  0.88090  1.0000
  C   C3196     1.0  0.75268  0.42966  0.80354  1.0000
  H   H5628     1.0  0.93121  0.49796  0.85395  1.0000
  H   H5629     1.0  0.91366  0.41830  0.69959  1.0000
  H   H5630     1.0  0.94734  0.41476  0.62508  1.0000
  C   C3197     1.0  0.94223  0.41853  0.58620  1.0000
  C   C3198     1.0  0.93903  0.41346  0.61848  1.0000
  C   C3199     1.0  0.75686  0.44343  0.69154  1.0000
  H   H5631     1.0  0.97046  0.47366  0.71039  1.0000
  H   H5632     1.0  0.96499  0.48666  0.70649  1.0000
  C   C3200     1.0  0.94418  0.48596  0.49843  1.0000
  H   H5633     1.0  0.98073  0.49945  0.73570  1.0000
  C   C3201     1.0  0.90567  0.46058  0.62657  1.0000
  C   C3202     1.0  0.93087  0.48378  0.50587  1.0000
  H   H5634     1.0  0.85748  0.46187  0.93908  1.0000
  H   H5635     1.0  0.76017  0.29106  0.81391  1.0000
  H   H5636     1.0  0.91062  0.48730  0.54962  1.0000
  H   H5637     1.0  0.83606  0.48907  0.53165  1.0000
  H   H5638     1.0  0.77066  0.34363  0.85591  1.0000
  H   H5639     1.0  0.89948  0.40242  0.69133  1.0000
  C   C3203     1.0  0.95182  0.42745  0.92143  1.0000
  C   C3204     1.0  0.85671  0.49639  0.85649  1.0000
  H   H5640     1.0  0.88508  0.48459  0.93226  1.0000
  C   C3205     1.0  0.75050  0.30068  0.60691  1.0000
  H   H5641     1.0  0.83574  0.40191  0.92700  1.0000
  C   C3206     1.0  0.77209  0.32287  0.77531  1.0000
  N   N178      1.0  0.85064  0.47382  0.86185  1.0000
  C   C3207     1.0  0.84810  0.47064  0.89392  1.0000
  C   C3208     1.0  0.84838  0.48572  0.85199  1.0000
  C   C3209     1.0  0.84195  0.46493  0.85391  1.0000
  C   C3210     1.0  0.86292  0.47364  0.84754  1.0000
  C   C3211     1.0  0.87266  0.47715  0.86267  1.0000
  C   C3212     1.0  0.84790  0.45779  0.90819  1.0000
  C   C3213     1.0  0.84221  0.46720  0.82179  1.0000
  H   H5642     1.0  0.90159  0.50014  0.93464  1.0000
  C   C3214     1.0  0.78607  0.47886  0.79227  1.0000
  C   C3215     1.0  0.88474  0.47772  0.84459  1.0000
  H   H5643     1.0  0.85135  0.38225  0.97833  1.0000
  C   C3216     1.0  0.83540  0.45633  0.81529  1.0000
  H   H5644     1.0  0.83941  0.47197  0.90335  1.0000
  H   H5645     1.0  0.85436  0.47663  0.90129  1.0000
  H   H5646     1.0  0.84913  0.48797  0.82874  1.0000
  H   H5647     1.0  0.83919  0.48551  0.86245  1.0000
  H   H5648     1.0  0.83283  0.46428  0.86581  1.0000
  H   H5649     1.0  0.84337  0.45600  0.86035  1.0000
  H   H5650     1.0  0.86315  0.46467  0.84509  1.0000
  H   H5651     1.0  0.86571  0.47943  0.82544  1.0000
  H   H5652     1.0  0.87116  0.47055  0.88309  1.0000
  H   H5653     1.0  0.87300  0.48576  0.86750  1.0000
  H   H5654     1.0  0.83948  0.45177  0.90895  1.0000
  H   H5655     1.0  0.85510  0.45485  0.89624  1.0000
  H   H5656     1.0  0.85129  0.46961  0.80816  1.0000
  H   H5657     1.0  0.83806  0.47443  0.81554  1.0000
  H   H5658     1.0  0.85801  0.49478  0.87818  1.0000
  C   C3217     1.0  0.92041  0.40869  0.96115  1.0000
  H   H5659     1.0  0.77485  0.31801  0.98065  1.0000
  H   H5660     1.0  0.92887  0.49241  0.50576  1.0000
  H   H5661     1.0  0.87055  0.47167  0.97196  1.0000
  H   H5662     1.0  0.91535  0.41536  0.96200  1.0000
  H   H5663     1.0  0.88700  0.48459  0.82417  1.0000
  H   H5664     1.0  0.89140  0.47992  0.85640  1.0000
  H   H5665     1.0  0.75157  0.43110  0.66779  1.0000
  H   H5666     1.0  0.93822  0.43097  0.88551  1.0000
  H   H5667     1.0  0.92775  0.49253  0.60171  1.0000
  H   H5668     1.0  0.83477  0.45855  0.79289  1.0000
  H   H5669     1.0  0.83988  0.44912  0.81822  1.0000
  H   H5670     1.0  0.88963  0.45065  0.97421  1.0000
  H   H5671     1.0  0.93499  0.40390  0.62317  1.0000
  H   H5672     1.0  0.75659  0.44833  0.78832  1.0000
  H   H5673     1.0  0.77147  0.43649  0.78509  1.0000
  H   H5674     1.0  0.75883  0.42306  0.58564  1.0000
  H   H5675     1.0  0.78653  0.46805  0.76261  1.0000
  C   C3218     1.0  0.76988  0.46106  0.88704  1.0000
  H   H5676     1.0  0.79641  0.41707  0.58685  1.0000
  H   H5677     1.0  0.91480  0.45648  0.52303  1.0000
  H   H5678     1.0  0.76602  0.32312  0.64257  1.0000
  C   C3219     1.0  0.76545  0.31501  0.54806  1.0000
  H   H5679     1.0  0.91345  0.40213  0.64864  1.0000
  S   S730      1.0  0.81024  0.46068  0.51002  1.0000
  H   H5680     1.0  0.87828  0.47113  0.51582  1.0000
  H   H5681     1.0  0.77741  0.47901  0.52895  1.0000
  H   H5682     1.0  0.80782  0.43069  0.57259  1.0000
  H   H5683     1.0  0.78532  0.31015  0.51974  1.0000
  N   N179      1.0  0.93866  0.42502  0.92937  1.0000
  H   H5684     1.0  0.93572  0.42892  0.63118  1.0000
  C   C3220     1.0  0.82824  0.36232  0.50341  1.0000
  H   H5685     1.0  0.83032  0.43204  0.48694  1.0000
  C   C3221     1.0  0.81583  0.39631  0.49009  1.0000
  C   C3222     1.0  0.90575  0.47995  0.54282  1.0000
  C   C3223     1.0  0.78051  0.47277  0.77249  1.0000
  H   H5686     1.0  0.84682  0.50123  0.50516  1.0000
  H   H5687     1.0  0.94406  0.50250  0.82577  1.0000
  H   H5688     1.0  0.82327  0.35293  0.51118  1.0000
  H   H5689     1.0  0.92463  0.43028  0.67636  1.0000
  H   H5690     1.0  0.79202  0.35245  0.49954  1.0000
  H   H5691     1.0  0.77215  0.45641  0.50657  1.0000
  H   H5692     1.0  0.75861  0.46625  0.56002  1.0000
  H   H5693     1.0  0.90820  0.39768  0.71412  1.0000
  C   C3224     1.0  0.76523  0.29377  0.91283  1.0000
  H   H5694     1.0  0.76224  0.48018  0.56892  1.0000
  H   H5695     1.0  0.90841  0.46492  0.64269  1.0000
  H   H5696     1.0  0.94506  0.41689  0.72349  1.0000
  H   H5697     1.0  0.76324  0.34478  0.82771  1.0000
  Fe  Fe367     1.0  0.96447  0.46435  0.64007  1.0000
  H   H5698     1.0  0.88499  0.46906  0.84019  1.0000
  H   H5699     1.0  0.89472  0.49841  0.49674  1.0000
  S   S731      1.0  0.98451  0.47236  0.62430  1.0000
  H   H5700     1.0  0.77064  0.43186  0.54337  1.0000
  C   C3225     1.0  0.90602  0.39724  0.69376  1.0000
  H   H5701     1.0  0.90969  0.47694  0.59495  1.0000
  H   H5702     1.0  0.89465  0.43364  0.66624  1.0000
  H   H5703     1.0  0.99819  0.31467  0.60489  1.0000
  H   H5704     1.0  0.90474  0.41874  0.65333  1.0000
  C   C3226     1.0  0.90004  0.38445  0.69633  1.0000
  H   H5705     1.0  0.81210  0.33150  0.80068  1.0000
  C   C3227     1.0  0.84891  0.45644  0.93877  1.0000
  H   H5706     1.0  0.79239  0.31889  0.80742  1.0000
  H   H5707     1.0  0.93865  0.48045  0.82704  1.0000
  C   C3228     1.0  0.76279  0.33974  0.84945  1.0000
  C   C3229     1.0  0.92915  0.49352  0.81466  1.0000
  H   H5708     1.0  0.86830  0.46468  0.55055  1.0000
  H   H5709     1.0  0.88762  0.49035  0.53310  1.0000
  C   C3230     1.0  0.79208  0.38631  0.97373  1.0000
  H   H5710     1.0  0.91147  0.48987  0.49742  1.0000
  C   C3231     1.0  0.89631  0.45497  0.53283  1.0000
  H   H5711     1.0  0.89814  0.47872  0.50619  1.0000
  H   H5712     1.0  0.78575  0.42564  0.62146  1.0000
  H   H5713     1.0  0.80593  0.34122  0.81886  1.0000
  H   H5714     1.0  0.76184  0.47414  0.86872  1.0000
  H   H5715     1.0  0.75143  0.33635  0.89208  1.0000
  H   H5716     1.0  0.93778  0.40299  0.74884  1.0000
  C   C3232     1.0  0.93123  0.41065  0.86922  1.0000
  H   H5717     1.0  0.94675  0.42804  0.58043  1.0000
  C   C3233     1.0  0.78306  0.29887  0.97513  1.0000
  H   H5718     1.0  0.82182  0.39127  0.97765  1.0000
  H   H5719     1.0  0.89729  0.38361  0.67665  1.0000
  H   H5720     1.0  0.90602  0.37872  0.70013  1.0000
  H   H5721     1.0  0.75000  0.32437  0.62062  1.0000
  S   S732      1.0  0.95480  0.47225  0.60968  1.0000
  S   S733      1.0  0.92636  0.50140  0.92564  1.0000
  C   C3234     1.0  0.85046  0.48045  0.49292  1.0000
  C   C3235     1.0  0.91198  0.46838  0.59672  1.0000
  H   H5722     1.0  0.94736  0.40337  0.71541  1.0000
  C   C3236     1.0  0.93039  0.40655  0.71261  1.0000
  N   N180      1.0  0.80239  0.40580  0.77189  1.0000
  C   C3237     1.0  0.81173  0.41727  0.76068  1.0000
  C   C3238     1.0  0.80690  0.39661  0.75948  1.0000
  C   C3239     1.0  0.79147  0.40763  0.76335  1.0000
  C   C3240     1.0  0.79954  0.40173  0.80391  1.0000
  C   C3241     1.0  0.81003  0.40028  0.81669  1.0000
  C   C3242     1.0  0.80953  0.42742  0.77425  1.0000
  C   C3243     1.0  0.78121  0.39648  0.77096  1.0000
  C   C3244     1.0  0.80813  0.39819  0.72709  1.0000
  C   C3245     1.0  0.81415  0.38938  0.71612  1.0000
  C   C3246     1.0  0.80623  0.39688  0.84923  1.0000
  C   C3247     1.0  0.81935  0.43863  0.75999  1.0000
  C   C3248     1.0  0.77124  0.39903  0.75817  1.0000
  H   H5723     1.0  0.81294  0.42068  0.73747  1.0000
  H   H5724     1.0  0.82041  0.41592  0.76266  1.0000
  H   H5725     1.0  0.81567  0.39641  0.76299  1.0000
  H   H5726     1.0  0.80126  0.38763  0.77078  1.0000
  H   H5727     1.0  0.79352  0.41172  0.74009  1.0000
  H   H5728     1.0  0.78793  0.41400  0.77365  1.0000
  H   H5729     1.0  0.79508  0.40768  0.81388  1.0000
  H   H5730     1.0  0.79313  0.39299  0.81161  1.0000
  H   H5731     1.0  0.81710  0.40853  0.80987  1.0000
  H   H5732     1.0  0.81367  0.39320  0.81008  1.0000
  H   H5733     1.0  0.80124  0.42956  0.77169  1.0000
  H   H5734     1.0  0.80917  0.42512  0.79728  1.0000
  H   H5735     1.0  0.77763  0.39319  0.79439  1.0000
  H   H5736     1.0  0.78401  0.38938  0.76260  1.0000
  H   H5737     1.0  0.79942  0.39676  0.72250  1.0000
  H   H5738     1.0  0.81339  0.40710  0.71457  1.0000
  H   H5739     1.0  0.82326  0.39094  0.71830  1.0000
  H   H5740     1.0  0.80929  0.38025  0.72807  1.0000
  H   H5741     1.0  0.81438  0.39033  0.69327  1.0000
  H   H5742     1.0  0.80285  0.40386  0.85715  1.0000
  H   H5743     1.0  0.79933  0.38847  0.85731  1.0000
  H   H5744     1.0  0.81382  0.39568  0.85787  1.0000
  H   H5745     1.0  0.82794  0.43708  0.76200  1.0000
  H   H5746     1.0  0.81966  0.44168  0.73706  1.0000
  H   H5747     1.0  0.81778  0.44573  0.77029  1.0000
  H   H5748     1.0  0.76812  0.40632  0.76516  1.0000
  H   H5749     1.0  0.77419  0.40140  0.73459  1.0000
  H   H5750     1.0  0.76382  0.39104  0.76507  1.0000
  N   N181      1.0  0.77670  0.44209  0.58813  1.0000
  C   C3249     1.0  0.78668  0.43671  0.57919  1.0000
  C   C3250     1.0  0.77231  0.44698  0.56271  1.0000
  C   C3251     1.0  0.78131  0.45229  0.59958  1.0000
  H   H5751     1.0  0.76572  0.45929  0.59813  1.0000
  C   C3252     1.0  0.79240  0.43178  0.60278  1.0000
  C   C3253     1.0  0.77216  0.45876  0.61089  1.0000
  C   C3254     1.0  0.77425  0.44152  0.53693  1.0000
  H   H5752     1.0  0.82363  0.44025  0.50929  1.0000
  C   C3255     1.0  0.80106  0.42503  0.59189  1.0000
  C   C3256     1.0  0.77795  0.47126  0.61115  1.0000
  H   H5753     1.0  0.79376  0.44333  0.56201  1.0000
  H   H5754     1.0  0.78386  0.42936  0.56975  1.0000
  H   H5755     1.0  0.76280  0.44646  0.56947  1.0000
  H   H5756     1.0  0.77663  0.45655  0.55337  1.0000
  H   H5757     1.0  0.78866  0.45881  0.58287  1.0000
  H   H5758     1.0  0.78503  0.44942  0.61765  1.0000
  H   H5759     1.0  0.86536  0.49850  0.84095  1.0000
  C   C3257     1.0  0.80836  0.47843  0.53669  1.0000
  H   H5760     1.0  0.79735  0.43896  0.60986  1.0000
  H   H5761     1.0  0.79984  0.39394  0.96451  1.0000
  S   S734      1.0  0.95327  0.44596  0.64531  1.0000
  C   C3258     1.0  0.75588  0.29102  0.83598  1.0000
  H   H5762     1.0  0.92803  0.44108  0.48942  1.0000
  S   S735      1.0  0.88411  0.46178  0.92131  1.0000
  H   H5763     1.0  0.89003  0.45986  0.54084  1.0000
  H   H5764     1.0  0.79744  0.49880  0.86088  1.0000
  S   S736      1.0  0.84272  0.49192  0.93203  1.0000
  C   C3259     1.0  0.76965  0.47085  0.86217  1.0000
  H   H5765     1.0  0.98584  0.49113  0.68115  1.0000
  H   H5766     1.0  0.94823  0.41392  0.57566  1.0000
  H   H5767     1.0  0.76456  0.49285  0.84494  1.0000
  C   C3260     1.0  0.81052  0.46734  0.53845  1.0000
  C   C3261     1.0  0.91466  0.49115  0.92160  1.0000
  C   C3262     1.0  0.93931  0.44726  0.91540  1.0000
  H   H5768     1.0  0.78350  0.32610  0.85220  1.0000
  H   H5769     1.0  0.78001  0.49438  0.78541  1.0000
  H   H5770     1.0  0.98934  0.46673  0.68088  1.0000
  H   H5771     1.0  0.89540  0.44704  0.55007  1.0000
  H   H5772     1.0  0.77042  0.49037  0.51753  1.0000
  C   C3263     1.0  0.93431  0.42311  0.90392  1.0000
  H   H5773     1.0  0.75833  0.27674  0.90683  1.0000
  H   H5774     1.0  0.75983  0.32774  0.75115  1.0000
  H   H5775     1.0  0.78925  0.30738  0.96236  1.0000
  C   C3264     1.0  0.89287  0.45077  0.50802  1.0000
  H   H5776     1.0  0.89706  0.47670  0.55866  1.0000
  C   C3265     1.0  0.76438  0.42875  0.78644  1.0000
  H   H5777     1.0  0.82639  0.45320  0.82949  1.0000
  H   H5778     1.0  0.91995  0.49342  0.81512  1.0000
  H   H5779     1.0  0.94888  0.44940  0.90615  1.0000
  H   H5780     1.0  0.84170  0.39805  0.97942  1.0000
  C   C3266     1.0  0.95802  0.43186  0.94310  1.0000
  C   C3267     1.0  0.76938  0.32882  0.74803  1.0000
  H   H5781     1.0  0.92397  0.42052  0.62193  1.0000
  C   C3268     1.0  0.90325  0.49247  0.92800  1.0000
  C   C3269     1.0  0.91832  0.42207  0.67679  1.0000
  H   H5782     1.0  0.91438  0.43327  0.64124  1.0000
  C   C3270     1.0  0.90953  0.42601  0.66044  1.0000
  H   H5783     1.0  0.84174  0.45921  0.95134  1.0000
  H   H5784     1.0  0.76146  0.33626  0.64545  1.0000
  H   H5785     1.0  0.90514  0.43814  0.68559  1.0000
  H   H5786     1.0  0.77381  0.33834  0.74129  1.0000
  H   H5787     1.0  0.92151  0.46980  0.59496  1.0000
  H   H5788     1.0  0.92158  0.40901  0.87691  1.0000
  H   H5789     1.0  0.76276  0.32246  0.87228  1.0000
  C   C3271     1.0  0.76529  0.48801  0.91859  1.0000
  C   C3272     1.0  0.76567  0.33183  0.63032  1.0000
  H   H5790     1.0  0.76067  0.33790  0.54070  1.0000
  H   H5791     1.0  0.77209  0.33367  0.57065  1.0000
  H   H5792     1.0  0.77726  0.31371  0.49350  1.0000
  C   C3273     1.0  0.76872  0.32899  0.79934  1.0000
  C   C3274     1.0  0.76194  0.42159  0.60521  1.0000
  H   H5793     1.0  0.96817  0.48035  0.73960  1.0000
  S   S737      1.0  0.90533  0.42271  0.50703  1.0000
  H   H5794     1.0  0.92562  0.48039  0.90699  1.0000
  H   H5795     1.0  0.78242  0.32819  0.53584  1.0000
  C   C3275     1.0  0.77225  0.49937  0.91516  1.0000
  H   H5796     1.0  0.80664  0.48313  0.51764  1.0000
  H   H5797     1.0  0.92470  0.42220  0.90831  1.0000
  H   H5798     1.0  0.75935  0.32890  0.80141  1.0000
  H   H5799     1.0  0.93419  0.40426  0.91005  1.0000
  S   S738      1.0  0.77179  0.36025  0.48736  1.0000
  H   H5800     1.0  0.77122  0.30759  0.85517  1.0000
  C   C3276     1.0  0.76512  0.32590  0.58454  1.0000
  H   H5801     1.0  0.77541  0.50091  0.85726  1.0000
  H   H5802     1.0  0.85870  0.48762  0.48667  1.0000
  C   C3277     1.0  0.75858  0.33039  0.60860  1.0000
  C   C3278     1.0  0.77617  0.32379  0.52543  1.0000
  C   C3279     1.0  0.75152  0.30554  0.92074  1.0000
  H   H5803     1.0  0.76998  0.31978  0.59373  1.0000
  H   H5804     1.0  0.87232  0.39239  0.96842  1.0000
  H   H5805     1.0  0.96213  0.49181  0.64593  1.0000
  S   S739      1.0  0.95300  0.46695  0.67898  1.0000
  C   C3280     1.0  0.98488  0.50162  0.71257  1.0000
  H   H5806     1.0  0.78829  0.38427  0.95621  1.0000
  H   H5807     1.0  0.92635  0.39704  0.71614  1.0000
  C   C3281     1.0  0.80458  0.33201  0.81711  1.0000
  H   H5808     1.0  0.78235  0.47672  0.58913  1.0000
  Fe  Fe368     1.0  0.80062  0.47026  0.97455  1.0000
  H   H5809     1.0  0.83159  0.49857  0.50521  1.0000
  N   N182      1.0  0.75783  0.32030  0.56726  1.0000
  H   H5810     1.0  0.90952  0.49777  0.85199  1.0000
  H   H5811     1.0  0.78402  0.33912  0.82689  1.0000
  C   C3282     1.0  0.92952  0.48094  0.82761  1.0000
  H   H5812     1.0  0.77250  0.32477  0.73070  1.0000
  H   H5813     1.0  0.78857  0.47700  0.84951  1.0000
  H   H5814     1.0  0.92411  0.47775  0.85000  1.0000
  C   C3283     1.0  0.83865  0.49427  0.50905  1.0000
  H   H5815     1.0  0.83603  0.46063  0.50883  1.0000
  N   N183      1.0  0.77060  0.32393  0.82807  1.0000
  H   H5816     1.0  0.93987  0.46572  0.91156  1.0000
  H   H5817     1.0  0.92410  0.41050  0.72442  1.0000
  H   H5818     1.0  0.80550  0.42218  0.60861  1.0000
  C   C3284     1.0  0.84070  0.46153  0.48634  1.0000
  C   C3285     1.0  0.92521  0.47515  0.53559  1.0000
  C   C3286     1.0  0.93475  0.43523  0.93804  1.0000
  H   H5819     1.0  0.95568  0.43392  0.90028  1.0000
  H   H5820     1.0  0.86409  0.45291  0.51724  1.0000
  H   H5821     1.0  0.76655  0.42069  0.79711  1.0000
  C   C3287     1.0  0.76310  0.30437  0.91734  1.0000
  H   H5822     1.0  0.92595  0.47500  0.81529  1.0000
  H   H5823     1.0  0.97539  0.43624  0.94985  1.0000
  C   C3288     1.0  0.76883  0.31076  0.83494  1.0000
  C   C3289     1.0  0.93674  0.45727  0.92832  1.0000
  H   H5824     1.0  0.77484  0.30817  0.81872  1.0000
  H   H5825     1.0  0.79413  0.33378  0.78727  1.0000
  C   C3290     1.0  0.78266  0.32948  0.83022  1.0000
  H   H5826     1.0  0.92792  0.48007  0.55068  1.0000
  H   H5827     1.0  0.93711  0.43630  0.95803  1.0000
  H   H5828     1.0  0.98771  0.49654  0.58886  1.0000
  C   C3291     1.0  0.75937  0.47578  0.55307  1.0000
  H   H5829     1.0  0.97284  0.42422  0.93355  1.0000
  H   H5830     1.0  0.89604  0.45910  0.63020  1.0000
  C   C3292     1.0  0.84159  0.44896  0.48477  1.0000
  H   H5831     1.0  0.86718  0.49319  0.92654  1.0000
  H   H5832     1.0  0.75259  0.32673  0.52894  1.0000
  H   H5833     1.0  0.79096  0.39516  0.58841  1.0000
  C   C3293     1.0  0.93067  0.41973  0.63405  1.0000
  H   H5834     1.0  0.76927  0.48232  0.80961  1.0000
  H   H5835     1.0  0.86656  0.47761  0.52771  1.0000
  C   C3294     1.0  0.90909  0.46264  0.52405  1.0000
  C   C3295     1.0  0.78275  0.31738  0.50660  1.0000
  C   C3296     1.0  0.79320  0.32809  0.80871  1.0000
  H   H5836     1.0  0.92507  0.43340  0.94360  1.0000
  C   C3297     1.0  0.86565  0.50108  0.93220  1.0000
  C   C3298     1.0  0.98359  0.48973  0.70460  1.0000
  H   H5837     1.0  0.76862  0.46676  0.84448  1.0000
  C   C3299     1.0  0.90861  0.46247  0.57349  1.0000
  H   H5838     1.0  0.95691  0.44070  0.94446  1.0000
  C   C3300     1.0  0.93456  0.50217  0.83062  1.0000
  C   C3301     1.0  0.84923  0.41748  0.49927  1.0000
  H   H5839     1.0  0.80438  0.32621  0.83788  1.0000
  H   H5840     1.0  0.98918  0.48460  0.71385  1.0000
  H   H5841     1.0  0.84870  0.47668  0.51623  1.0000
  H   H5842     1.0  0.96755  0.49873  0.59387  1.0000
  H   H5843     1.0  0.74959  0.34197  0.77037  1.0000
  H   H5844     1.0  0.76948  0.43154  0.63174  1.0000
  H   H5845     1.0  0.85210  0.45874  0.52878  1.0000
  H   H5846     1.0  0.76037  0.28669  0.85091  1.0000
  H   H5847     1.0  0.81241  0.40399  0.49344  1.0000
  H   H5848     1.0  0.95027  0.50137  0.59230  1.0000
  C   C3302     1.0  0.98471  0.49974  0.56970  1.0000
  H   H5849     1.0  0.84831  0.44710  0.94877  1.0000
  N   N184      1.0  0.78200  0.49109  0.82847  1.0000
  H   H5850     1.0  0.85326  0.41330  0.51554  1.0000
  C   C3303     1.0  0.76189  0.32657  0.85090  1.0000
  H   H5851     1.0  0.77761  0.29537  0.96179  1.0000
  H   H5852     1.0  0.75405  0.41214  0.64984  1.0000
  H   H5853     1.0  0.79919  0.38231  0.50411  1.0000
  C   C3304     1.0  0.97115  0.43293  0.93419  1.0000
  H   H5854     1.0  0.99392  0.30717  0.65670  1.0000
  C   C3305     1.0  0.75422  0.48648  0.91215  1.0000
  H   H5855     1.0  0.84537  0.40165  0.48605  1.0000
  C   C3306     1.0  0.75010  0.49633  0.90233  1.0000
  C   C3307     1.0  0.99621  0.47828  0.63873  1.0000
  H   H5856     1.0  0.81282  0.36859  0.50921  1.0000
  C   C3308     1.0  0.79452  0.49834  0.81863  1.0000
  C   C3309     1.0  0.75381  0.32944  0.54845  1.0000
  C   C3310     1.0  0.75619  0.30354  0.83836  1.0000
  H   H5857     1.0  0.99927  0.32296  0.64679  1.0000
  H   H5858     1.0  0.75182  0.47048  0.61169  1.0000
  H   H5859     1.0  0.75216  0.30775  0.82224  1.0000
  H   H5860     1.0  0.84483  0.42382  0.50745  1.0000
  H   H5861     1.0  0.75006  0.44077  0.76651  1.0000
  H   H5862     1.0  0.93555  0.48178  0.94737  1.0000
  H   H5863     1.0  0.75727  0.33913  0.59942  1.0000
  H   H5864     1.0  0.91649  0.48271  0.97951  1.0000
  H   H5865     1.0  0.99259  0.49223  0.75852  1.0000
  H   H5866     1.0  0.79084  0.32360  0.49203  1.0000
  H   H5867     1.0  0.83194  0.47963  0.49359  1.0000
  H   H5868     1.0  0.75372  0.43011  0.82499  1.0000
  H   H5869     1.0  0.82834  0.35420  0.97437  1.0000
  C   C3311     1.0  0.99651  0.47381  0.66687  1.0000
  C   C3312     1.0  0.84032  0.48629  0.48906  1.0000
  H   H5870     1.0  0.93549  0.41652  0.97411  1.0000
  H   H5871     1.0  0.75390  0.46594  0.77572  1.0000
  H   H5872     1.0  0.94673  0.47773  0.49635  1.0000
  H   H5873     1.0  0.83207  0.37510  0.97814  1.0000
  C   C3313     1.0  0.82953  0.44096  0.48829  1.0000
  H   H5874     1.0  0.77024  0.44285  0.49602  1.0000
  H   H5875     1.0  0.75561  0.32131  0.96345  1.0000
  H   H5876     1.0  0.75047  0.34000  0.97042  1.0000
  H   H5877     1.0  0.75569  0.29567  0.59543  1.0000
  C   C3314     1.0  0.80609  0.38722  0.48444  1.0000
  H   H5878     1.0  0.83196  0.38533  0.48367  1.0000
  H   H5879     1.0  0.89940  0.44652  0.49803  1.0000
  H   H5880     1.0  0.76164  0.45400  0.89316  1.0000
  H   H5881     1.0  0.76329  0.30651  0.97944  1.0000
  H   H5882     1.0  0.92681  0.49704  0.56528  1.0000
  H   H5883     1.0  0.94226  0.49022  0.96873  1.0000
  H   H5884     1.0  0.84520  0.44501  0.50217  1.0000
  C   C3315     1.0  0.92733  0.49997  0.58481  1.0000
  H   H5885     1.0  0.94860  0.49978  0.55889  1.0000
  H   H5886     1.0  0.94609  0.47683  0.96445  1.0000
  C   C3316     1.0  0.93881  0.48120  0.96680  1.0000
  H   H5887     1.0  0.90361  0.46847  0.97579  1.0000
  H   H5888     1.0  0.75065  0.30294  0.85964  1.0000
  H   H5889     1.0  0.74960  0.31360  0.92428  1.0000
  C   C3317     1.0  0.74942  0.44078  0.78907  1.0000
  S   S740      1.0  0.78679  0.50243  0.91920  1.0000
  H   H5890     1.0  0.75578  0.46331  0.48193  1.0000
  S   S741      1.0  0.91932  0.54903  0.43762  1.0000
  Fe  Fe369     1.0  0.93072  0.54389  0.40213  1.0000
  S   S742      1.0  0.94172  0.55601  0.35889  1.0000
  H   H5891     1.0  0.95289  0.51877  0.46643  1.0000
  Fe  Fe370     1.0  0.96184  0.55679  0.19020  1.0000
  S   S743      1.0  0.97010  0.57355  0.15462  1.0000
  S   S744      1.0  0.94660  0.55214  0.23051  1.0000
  Fe  Fe371     1.0  0.97531  0.54289  0.15715  1.0000
  S   S745      1.0  0.98454  0.55843  0.12013  1.0000
  S   S746      1.0  0.97913  0.52536  0.15660  1.0000
  Fe  Fe372     1.0  0.98731  0.56828  0.15360  1.0000
  C   C3318     1.0  0.90010  0.58085  0.30910  1.0000
  Fe  Fe373     1.0  0.96684  0.56229  0.12367  1.0000
  S   S747      1.0  0.95811  0.56683  0.08629  1.0000
  S   S748      1.0  0.97895  0.55213  0.19035  1.0000
  S   S749      1.0  0.95764  0.54618  0.15933  1.0000
  H   H5892     1.0  0.75425  0.51330  0.37719  1.0000
  H   H5893     1.0  0.91434  0.54363  0.04683  1.0000
  H   H5894     1.0  0.90544  0.53146  0.32104  1.0000
  C   C3319     1.0  0.90045  0.53047  0.34322  1.0000
  H   H5895     1.0  0.90855  0.54248  0.11082  1.0000
  C   C3320     1.0  0.90175  0.55925  0.39400  1.0000
  H   H5896     1.0  0.95177  0.50847  0.08248  1.0000
  H   H5897     1.0  0.86141  0.52392  0.46590  1.0000
  C   C3321     1.0  0.97707  0.51397  0.22956  1.0000
  H   H5898     1.0  0.95123  0.51476  0.29475  1.0000
  H   H5899     1.0  0.81145  0.51487  0.35139  1.0000
  H   H5900     1.0  0.90241  0.55005  0.39637  1.0000
  H   H5901     1.0  0.91801  0.51169  0.35539  1.0000
  N   N185      1.0  0.92355  0.52754  0.12015  1.0000
  H   H5902     1.0  0.77328  0.51010  0.35173  1.0000
  H   H5903     1.0  0.91927  0.55245  0.16861  1.0000
  H   H5904     1.0  0.89522  0.55609  0.43973  1.0000
  H   H5905     1.0  0.93907  0.54721  0.12722  1.0000
  H   H5906     1.0  0.83116  0.50663  0.01778  1.0000
  C   C3322     1.0  0.78819  0.51105  0.29892  1.0000
  C   C3323     1.0  0.80892  0.52229  0.35896  1.0000
  C   C3324     1.0  0.80227  0.55596  0.30584  1.0000
  C   C3325     1.0  0.77751  0.51965  0.34700  1.0000
  H   H5907     1.0  0.89228  0.52338  0.34824  1.0000
  C   C3326     1.0  0.94375  0.55361  0.32408  1.0000
  C   C3327     1.0  0.95343  0.56085  0.30218  1.0000
  C   C3328     1.0  0.95476  0.56012  0.27369  1.0000
  C   C3329     1.0  0.94623  0.55237  0.26653  1.0000
  C   C3330     1.0  0.93660  0.54505  0.28849  1.0000
  C   C3331     1.0  0.93549  0.54548  0.31712  1.0000
  H   H5908     1.0  0.96216  0.56591  0.25711  1.0000
  H   H5909     1.0  0.92987  0.53913  0.28320  1.0000
  H   H5910     1.0  0.92802  0.53982  0.33362  1.0000
  C   C3332     1.0  0.94274  0.54856  0.02255  1.0000
  C   C3333     1.0  0.95024  0.54379  0.03723  1.0000
  C   C3334     1.0  0.95520  0.54932  0.05621  1.0000
  C   C3335     1.0  0.95265  0.55970  0.06126  1.0000
  C   C3336     1.0  0.94542  0.56466  0.04591  1.0000
  C   C3337     1.0  0.94054  0.55918  0.02678  1.0000
  H   H5911     1.0  0.96098  0.54551  0.06712  1.0000
  H   H5912     1.0  0.94342  0.57273  0.04919  1.0000
  H   H5913     1.0  0.93485  0.56309  0.01581  1.0000
  H   H5914     1.0  0.91387  0.55224  0.31784  1.0000
  H   H5915     1.0  0.89166  0.54380  0.33222  1.0000
  H   H5916     1.0  0.89180  0.56857  0.41928  1.0000
  H   H5917     1.0  0.91718  0.58086  0.34069  1.0000
  H   H5918     1.0  0.93401  0.52246  0.35939  1.0000
  H   H5919     1.0  0.90838  0.58738  0.30674  1.0000
  H   H5920     1.0  0.92987  0.54279  0.08401  1.0000
  H   H5921     1.0  0.91389  0.54968  0.35418  1.0000
  C   C3338     1.0  0.92971  0.54685  0.13504  1.0000
  H   H5922     1.0  0.93799  0.51525  0.24778  1.0000
  C   C3339     1.0  0.94386  0.51092  0.28660  1.0000
  C   C3340     1.0  0.89609  0.58421  0.28196  1.0000
  C   C3341     1.0  0.92256  0.53472  0.09239  1.0000
  H   H5923     1.0  0.93735  0.59236  0.30916  1.0000
  N   N186      1.0  0.90671  0.56420  0.33889  1.0000
  C   C3342     1.0  0.91407  0.50759  0.15744  1.0000
  N   N187      1.0  0.79072  0.52189  0.33841  1.0000
  H   H5924     1.0  0.81645  0.50326  0.01368  1.0000
  H   H5925     1.0  0.92712  0.55258  0.11814  1.0000
  H   H5926     1.0  0.88760  0.57813  0.28349  1.0000
  H   H5927     1.0  0.95985  0.56723  0.30719  1.0000
  H   H5928     1.0  0.95357  0.51951  0.24270  1.0000
  C   C3343     1.0  0.95549  0.51511  0.17321  1.0000
  H   H5929     1.0  0.93694  0.50733  0.18422  1.0000
  C   C3344     1.0  0.87572  0.52091  0.43682  1.0000
  C   C3345     1.0  0.94504  0.51884  0.25728  1.0000
  H   H5930     1.0  0.88395  0.55373  0.42134  1.0000
  H   H5931     1.0  0.88773  0.51638  0.40515  1.0000
  H   H5932     1.0  0.95227  0.53575  0.03379  1.0000
  C   C3346     1.0  0.89259  0.55947  0.42007  1.0000
  S   S750      1.0  0.88650  0.52898  0.45032  1.0000
  H   H5933     1.0  0.92939  0.56752  0.30127  1.0000
  C   C3347     1.0  0.91160  0.54714  0.06548  1.0000
  H   H5934     1.0  0.89493  0.59329  0.27884  1.0000
  C   C3348     1.0  0.91837  0.57248  0.33579  1.0000
  Fe  Fe374     1.0  0.90642  0.53174  0.44191  1.0000
  H   H5935     1.0  0.94238  0.53367  0.10469  1.0000
  S   S751      1.0  0.91736  0.52747  0.40502  1.0000
  C   C3349     1.0  0.93881  0.58383  0.30596  1.0000
  C   C3350     1.0  0.92845  0.55212  0.16065  1.0000
  H   H5936     1.0  0.81171  0.55615  0.30009  1.0000
  C   C3351     1.0  0.85496  0.51412  0.43797  1.0000
  H   H5937     1.0  0.79207  0.53452  0.29912  1.0000
  H   H5938     1.0  0.77431  0.52385  0.32895  1.0000
  C   C3352     1.0  0.91088  0.53834  0.09321  1.0000
  C   C3353     1.0  0.93185  0.50970  0.30714  1.0000
  H   H5939     1.0  0.94465  0.52782  0.25892  1.0000
  H   H5940     1.0  0.88937  0.55888  0.36782  1.0000
  H   H5941     1.0  0.87219  0.50635  0.38571  1.0000
  H   H5942     1.0  0.90273  0.58394  0.26311  1.0000
  H   H5943     1.0  0.80134  0.56369  0.31423  1.0000
  H   H5944     1.0  0.99711  0.54682  0.21447  1.0000
  C   C3354     1.0  0.96659  0.51437  0.15972  1.0000
  H   H5945     1.0  0.90674  0.56697  0.29433  1.0000
  C   C3355     1.0  0.93560  0.52533  0.11549  1.0000
  H   H5946     1.0  0.89758  0.57307  0.36632  1.0000
  C   C3356     1.0  0.95115  0.52326  0.36521  1.0000
  H   H5947     1.0  0.96559  0.52890  0.46916  1.0000
  H   H5948     1.0  0.84590  0.51372  0.44699  1.0000
  H   H5949     1.0  0.90571  0.52780  0.35809  1.0000
  H   H5950     1.0  0.97325  0.52075  0.21886  1.0000
  Fe  Fe375     1.0  0.92774  0.53893  0.46829  1.0000
  H   H5951     1.0  0.90532  0.51795  0.13323  1.0000
  H   H5952     1.0  0.92404  0.57999  0.28897  1.0000
  H   H5953     1.0  0.91793  0.55559  0.06319  1.0000
  Fe  Fe376     1.0  0.92570  0.51919  0.43750  1.0000
  H   H5954     1.0  0.97883  0.50809  0.21548  1.0000
  C   C3357     1.0  0.89836  0.56402  0.36619  1.0000
  H   H5955     1.0  0.89265  0.56235  0.31795  1.0000
  C   C3358     1.0  0.89737  0.54193  0.34649  1.0000
  H   H5956     1.0  0.92274  0.56869  0.35182  1.0000
  H   H5957     1.0  0.92359  0.52986  0.07565  1.0000
  H   H5958     1.0  0.81385  0.53065  0.34301  1.0000
  H   H5959     1.0  0.79897  0.55669  0.28641  1.0000
  H   H5960     1.0  0.94521  0.58553  0.28508  1.0000
  C   C3359     1.0  0.96768  0.50481  0.14832  1.0000
  H   H5961     1.0  0.94530  0.52532  0.32719  1.0000
  H   H5962     1.0  0.80557  0.53452  0.30739  1.0000
  C   C3360     1.0  0.90154  0.56809  0.31444  1.0000
  C   C3361     1.0  0.75892  0.52230  0.37693  1.0000
  H   H5963     1.0  0.89339  0.58170  0.32700  1.0000
  C   C3362     1.0  0.90859  0.55214  0.33909  1.0000
  H   H5964     1.0  0.90290  0.54889  0.06573  1.0000
  C   C3363     1.0  0.92735  0.57554  0.30636  1.0000
  S   S752      1.0  0.93995  0.53515  0.43225  1.0000
  H   H5965     1.0  0.91025  0.56475  0.39435  1.0000
  H   H5966     1.0  0.89225  0.54037  0.36880  1.0000
  H   H5967     1.0  0.94265  0.57985  0.32289  1.0000
  H   H5968     1.0  0.95462  0.52214  0.18327  1.0000
  C   C3364     1.0  0.95071  0.51611  0.09115  1.0000
  C   C3365     1.0  0.79532  0.54466  0.32852  1.0000
  C   C3366     1.0  0.87864  0.51577  0.41436  1.0000
  H   H5969     1.0  0.80332  0.51434  0.31539  1.0000
  C   C3367     1.0  0.92207  0.53402  0.14312  1.0000
  H   H5970     1.0  0.77849  0.50851  0.30591  1.0000
  H   H5971     1.0  0.89579  0.50384  0.37483  1.0000
  C   C3368     1.0  0.85787  0.50915  0.41520  1.0000
  H   H5972     1.0  0.91454  0.51156  0.11215  1.0000
  H   H5973     1.0  0.95289  0.53283  0.36383  1.0000
  H   H5974     1.0  0.93416  0.56122  0.15421  1.0000
  C   C3369     1.0  0.94548  0.50666  0.17392  1.0000
  H   H5975     1.0  0.77279  0.51726  0.39329  1.0000
  H   H5976     1.0  0.93774  0.52235  0.13610  1.0000
  H   H5977     1.0  0.91105  0.51104  0.17597  1.0000
  H   H5978     1.0  0.78609  0.54515  0.33381  1.0000
  H   H5979     1.0  0.97626  0.50416  0.13807  1.0000
  H   H5980     1.0  0.95400  0.51537  0.11052  1.0000
  H   H5981     1.0  0.93122  0.54690  0.17811  1.0000
  H   H5982     1.0  0.98622  0.52574  0.24965  1.0000
  S   S753      1.0  0.93641  0.54099  0.99928  1.0000
  C   C3370     1.0  0.81281  0.52245  0.38633  1.0000
  C   C3371     1.0  0.86382  0.51997  0.44859  1.0000
  H   H5983     1.0  0.80163  0.50367  0.27812  1.0000
  H   H5984     1.0  0.77619  0.53233  0.37370  1.0000
  C   C3372     1.0  0.77195  0.52325  0.37393  1.0000
  H   H5985     1.0  0.80796  0.51435  0.40340  1.0000
  H   H5986     1.0  0.91277  0.53414  0.15065  1.0000
  H   H5987     1.0  0.79125  0.51196  0.37939  1.0000
  H   H5988     1.0  0.79882  0.54458  0.34747  1.0000
  C   C3373     1.0  0.86979  0.51006  0.40345  1.0000
  H   H5989     1.0  0.82230  0.52287  0.38233  1.0000
  H   H5990     1.0  0.95945  0.52132  0.35553  1.0000
  H   H5991     1.0  0.79329  0.52709  0.37664  1.0000
  C   C3374     1.0  0.93904  0.50656  0.35109  1.0000
  H   H5992     1.0  0.99341  0.53170  0.19421  1.0000
  H   H5993     1.0  0.93542  0.51839  0.07749  1.0000
  C   C3375     1.0  0.79370  0.51254  0.32407  1.0000
  H   H5994     1.0  0.95617  0.52425  0.07517  1.0000
  H   H5995     1.0  0.93074  0.51864  0.30756  1.0000
  C   C3376     1.0  0.99787  0.52673  0.20816  1.0000
  C   C3377     1.0  0.93783  0.51632  0.09796  1.0000
  C   C3378     1.0  0.94187  0.51992  0.34951  1.0000
  C   C3379     1.0  0.79619  0.53371  0.31725  1.0000
  C   C3380     1.0  0.79552  0.52076  0.36438  1.0000
  H   H5996     1.0  0.92423  0.52923  0.16230  1.0000
  H   H5997     1.0  0.90366  0.53053  0.09583  1.0000
  C   C3381     1.0  0.95635  0.52412  0.48006  1.0000
  C   C3382     1.0  0.91412  0.51619  0.12944  1.0000
  H   H5998     1.0  0.79103  0.51927  0.28156  1.0000
  H   H5999     1.0  0.90728  0.50481  0.32406  1.0000
  H   H6000     1.0  0.79102  0.50380  0.33993  1.0000
  H   H6001     1.0  0.94807  0.51840  0.38807  1.0000
  H   H6002     1.0  0.99134  0.51266  0.24801  1.0000
  H   H6003     1.0  0.81127  0.53023  0.39384  1.0000
  C   C3383     1.0  0.98833  0.51983  0.23596  1.0000
  H   H6004     1.0  0.75501  0.52420  0.39723  1.0000
  S   S754      1.0  0.91392  0.52213  0.47474  1.0000
  H   H6005     1.0  0.93266  0.50731  0.11020  1.0000
  H   H6006     1.0  0.94739  0.50451  0.34205  1.0000
  H   H6007     1.0  0.92287  0.50636  0.15741  1.0000
  H   H6008     1.0  0.92514  0.50602  0.29678  1.0000
  H   H6009     1.0  0.97179  0.58716  0.99527  1.0000
  H   H6010     1.0  0.97059  0.50867  0.24968  1.0000
  H   H6011     1.0  0.75762  0.52873  0.35904  1.0000
  H   H6012     1.0  0.82842  0.50285  0.98585  1.0000
  S   S755      1.0  0.91846  0.54881  0.93604  1.0000
  Fe  Fe377     1.0  0.92880  0.54375  0.89901  1.0000
  S   S756      1.0  0.94226  0.55585  0.85892  1.0000
  S   S757      1.0  0.93242  0.54046  0.51110  1.0000
  Fe  Fe378     1.0  0.96224  0.56245  0.68957  1.0000
  S   S758      1.0  0.97083  0.57829  0.65160  1.0000
  S   S759      1.0  0.94616  0.55921  0.72678  1.0000
  Fe  Fe379     1.0  0.97559  0.54714  0.66263  1.0000
  S   S760      1.0  0.98548  0.56168  0.62388  1.0000
  S   S761      1.0  0.97821  0.52886  0.66705  1.0000
  Fe  Fe380     1.0  0.98776  0.57314  0.65424  1.0000
  H   H6013     1.0  0.79416  0.51184  0.84271  1.0000
  Fe  Fe381     1.0  0.96807  0.56569  0.62358  1.0000
  S   S762      1.0  0.96212  0.56894  0.58158  1.0000
  S   S763      1.0  0.97918  0.55792  0.69332  1.0000
  S   S764      1.0  0.95827  0.55067  0.66111  1.0000
  H   H6014     1.0  0.90837  0.55460  0.63221  1.0000
  H   H6015     1.0  0.94899  0.56411  0.49552  1.0000
  C   C3384     1.0  0.93802  0.51029  0.57810  1.0000
  N   N188      1.0  0.92439  0.56516  0.63703  1.0000
  H   H6016     1.0  0.94621  0.51108  0.51801  1.0000
  H   H6017     1.0  0.95786  0.59633  0.62379  1.0000
  H   H6018     1.0  0.98090  0.59354  0.95947  1.0000
  H   H6019     1.0  0.94050  0.57226  0.91101  1.0000
  H   H6020     1.0  0.96194  0.56302  0.80983  1.0000
  C   C3385     1.0  0.91207  0.55395  0.57746  1.0000
  H   H6021     1.0  0.92863  0.56423  0.57769  1.0000
  S   S765      1.0  0.91190  0.52118  0.97181  1.0000
  H   H6022     1.0  0.93919  0.57339  0.60011  1.0000
  H   H6023     1.0  0.90192  0.57531  0.70043  1.0000
  C   C3386     1.0  0.92840  0.53400  0.66910  1.0000
  H   H6024     1.0  0.93461  0.53472  0.56886  1.0000
  S   S766      1.0  0.88474  0.53034  0.94845  1.0000
  C   C3387     1.0  0.85255  0.51316  0.94336  1.0000
  C   C3388     1.0  0.97508  0.54094  0.58828  1.0000
  C   C3389     1.0  0.93396  0.57570  0.61831  1.0000
  H   H6025     1.0  0.90323  0.55296  0.68017  1.0000
  C   C3390     1.0  0.92128  0.55737  0.59332  1.0000
  C   C3391     1.0  0.90502  0.56264  0.67579  1.0000
  C   C3392     1.0  0.91818  0.56884  0.66222  1.0000
  C   C3393     1.0  0.94327  0.55569  0.82269  1.0000
  C   C3394     1.0  0.95425  0.56003  0.80272  1.0000
  C   C3395     1.0  0.95537  0.56074  0.77349  1.0000
  C   C3396     1.0  0.94545  0.55738  0.76372  1.0000
  C   C3397     1.0  0.93449  0.55287  0.78377  1.0000
  C   C3398     1.0  0.93340  0.55192  0.81308  1.0000
  H   H6026     1.0  0.96385  0.56430  0.75838  1.0000
  H   H6027     1.0  0.92674  0.55032  0.77648  1.0000
  H   H6028     1.0  0.92487  0.54869  0.82807  1.0000
  C   C3399     1.0  0.94105  0.54852  0.52987  1.0000
  C   C3400     1.0  0.94043  0.54332  0.55855  1.0000
  C   C3401     1.0  0.94711  0.54917  0.57427  1.0000
  C   C3402     1.0  0.95425  0.56060  0.56199  1.0000
  C   C3403     1.0  0.95477  0.56587  0.53343  1.0000
  C   C3404     1.0  0.94837  0.55987  0.51742  1.0000
  H   H6029     1.0  0.94648  0.54493  0.59613  1.0000
  H   H6030     1.0  0.96020  0.57471  0.52352  1.0000
  H   H6031     1.0  0.78308  0.51514  0.80598  1.0000
  H   H6032     1.0  0.89113  0.56136  0.71269  1.0000
  H   H6033     1.0  0.92284  0.56785  0.67944  1.0000
  C   C3405     1.0  0.92599  0.57857  0.95154  1.0000
  H   H6034     1.0  0.91605  0.55088  0.55901  1.0000
  C   C3406     1.0  0.92167  0.51499  0.84395  1.0000
  N   N189      1.0  0.93273  0.51444  0.82408  1.0000
  C   C3407     1.0  0.94388  0.52133  0.77059  1.0000
  H   H6035     1.0  0.98107  0.53198  0.55746  1.0000
  H   H6036     1.0  0.81378  0.51745  0.80809  1.0000
  H   H6037     1.0  0.98016  0.58892  0.83920  1.0000
  C   C3408     1.0  0.85430  0.50288  0.93611  1.0000
  H   H6038     1.0  0.91533  0.54025  0.65174  1.0000
  H   H6039     1.0  0.92027  0.57650  0.97346  1.0000
  H   H6040     1.0  0.95343  0.52721  0.67231  1.0000
  C   C3409     1.0  0.95134  0.59264  0.61302  1.0000
  H   H6041     1.0  0.95224  0.56095  0.95944  1.0000
  H   H6042     1.0  0.97448  0.58553  0.91926  1.0000
  H   H6043     1.0  0.97191  0.57517  0.88653  1.0000
  H   H6044     1.0  0.94646  0.59929  0.60717  1.0000
  H   H6045     1.0  0.93636  0.51495  0.73849  1.0000
  H   H6046     1.0  0.93879  0.58345  0.65257  1.0000
  H   H6047     1.0  0.91687  0.54388  0.68462  1.0000
  H   H6048     1.0  0.95637  0.57664  0.97780  1.0000
  C   C3410     1.0  0.94197  0.52309  0.74068  1.0000
  H   H6049     1.0  0.96466  0.54851  0.97545  1.0000
  H   H6050     1.0  0.94371  0.51148  0.86905  1.0000
  H   H6051     1.0  0.93552  0.55801  0.66123  1.0000
  H   H6052     1.0  0.97132  0.59765  0.82423  1.0000
  C   C3411     1.0  0.94655  0.51125  0.66189  1.0000
  H   H6053     1.0  0.93748  0.51400  0.59692  1.0000
  H   H6054     1.0  0.92215  0.52529  0.67979  1.0000
  C   C3412     1.0  0.87507  0.50937  0.93558  1.0000
  Fe  Fe382     1.0  0.92650  0.53746  0.96483  1.0000
  C   C3413     1.0  0.95550  0.51610  0.50898  1.0000
  C   C3414     1.0  0.96374  0.58823  0.86869  1.0000
  H   H6055     1.0  0.97848  0.51729  0.53600  1.0000
  C   C3415     1.0  0.94301  0.58128  0.63298  1.0000
  H   H6056     1.0  0.94836  0.57512  0.63875  1.0000
  H   H6057     1.0  0.97814  0.51244  0.58807  1.0000
  H   H6058     1.0  0.95614  0.59091  0.59333  1.0000
  H   H6059     1.0  0.97343  0.54312  0.94962  1.0000
  C   C3416     1.0  0.91613  0.56174  0.61930  1.0000
  C   C3417     1.0  0.99693  0.52086  0.71361  1.0000
  C   C3418     1.0  0.87328  0.51961  0.94313  1.0000
  H   H6060     1.0  0.93386  0.53336  0.64882  1.0000
  H   H6061     1.0  0.85821  0.51485  0.85454  1.0000
  H   H6062     1.0  0.96723  0.59742  0.97065  1.0000
  H   H6063     1.0  0.89929  0.51926  0.85127  1.0000
  C   C3419     1.0  0.79883  0.50494  0.83978  1.0000
  H   H6064     1.0  0.75384  0.51519  0.89291  1.0000
  S   S767      1.0  0.93742  0.53333  0.92741  1.0000
  C   C3420     1.0  0.95549  0.51976  0.66568  1.0000
  H   H6065     1.0  0.92195  0.51214  0.86652  1.0000
  C   C3421     1.0  0.95589  0.52827  0.86076  1.0000
  C   C3422     1.0  0.98664  0.52062  0.73859  1.0000
  H   H6066     1.0  0.95776  0.53953  0.95541  1.0000
  H   H6067     1.0  0.95645  0.52686  0.88320  1.0000
  C   C3423     1.0  0.96287  0.57633  0.88952  1.0000
  H   H6068     1.0  0.96299  0.59229  0.92739  1.0000
  H   H6069     1.0  0.77298  0.51783  0.90408  1.0000
  C   C3424     1.0  0.90062  0.56565  0.70385  1.0000
  C   C3425     1.0  0.96207  0.52418  0.57663  1.0000
  H   H6070     1.0  0.93007  0.58272  0.60873  1.0000
  C   C3426     1.0  0.96517  0.58362  0.93145  1.0000
  H   H6071     1.0  0.96779  0.59574  0.87621  1.0000
  H   H6072     1.0  0.95795  0.56926  0.88191  1.0000
  H   H6073     1.0  0.95493  0.58896  0.86655  1.0000
  H   H6074     1.0  0.91260  0.56932  0.61138  1.0000
  S   S768      1.0  0.91442  0.52820  0.90154  1.0000
  C   C3427     1.0  0.97105  0.58919  0.83886  1.0000
  C   C3428     1.0  0.92166  0.54336  0.66353  1.0000
  H   H6075     1.0  0.96806  0.55522  0.91044  1.0000
  H   H6076     1.0  0.91847  0.57839  0.65608  1.0000
  H   H6077     1.0  0.89976  0.56564  0.66114  1.0000
  H   H6078     1.0  0.90532  0.56243  0.71967  1.0000
  C   C3429     1.0  0.93005  0.55549  0.64689  1.0000
  H   H6079     1.0  0.90464  0.54670  0.59162  1.0000
  H   H6080     1.0  0.90878  0.56164  0.56928  1.0000
  H   H6081     1.0  0.96719  0.54365  0.59751  1.0000
  H   H6082     1.0  0.94879  0.55655  0.92999  1.0000
  H   H6083     1.0  0.94998  0.52958  0.77078  1.0000
  C   C3430     1.0  0.96525  0.57992  0.96336  1.0000
  H   H6084     1.0  0.92437  0.54946  0.60041  1.0000
  H   H6085     1.0  0.96829  0.52942  0.51726  1.0000
  Fe  Fe383     1.0  0.90454  0.53206  0.94060  1.0000
  Fe  Fe384     1.0  0.92236  0.51822  0.93228  1.0000
  N   N190      1.0  0.95736  0.57501  0.92061  1.0000
  H   H6086     1.0  0.94228  0.53208  0.82185  1.0000
  H   H6087     1.0  0.93406  0.53609  0.68331  1.0000
  C   C3431     1.0  0.97073  0.51079  0.55149  1.0000
  C   C3432     1.0  0.94286  0.52284  0.82882  1.0000
  H   H6088     1.0  0.97737  0.53507  0.60549  1.0000
  H   H6089     1.0  0.93724  0.52352  0.87328  1.0000
  H   H6090     1.0  0.97825  0.51889  0.73234  1.0000
  H   H6091     1.0  0.97469  0.56421  0.93049  1.0000
  H   H6092     1.0  0.81471  0.51562  0.84448  1.0000
  C   C3433     1.0  0.97304  0.53473  0.56520  1.0000
  H   H6093     1.0  0.75753  0.51166  0.83825  1.0000
  H   H6094     1.0  0.84398  0.51485  0.94605  1.0000
  H   H6095     1.0  0.97185  0.54128  0.54734  1.0000
  H   H6096     1.0  0.93631  0.55431  0.62851  1.0000
  H   H6097     1.0  0.96329  0.52572  0.84841  1.0000
  C   C3434     1.0  0.86193  0.52139  0.94701  1.0000
  H   H6098     1.0  0.77046  0.52035  0.84442  1.0000
  C   C3435     1.0  0.96687  0.51834  0.66195  1.0000
  H   H6099     1.0  0.99584  0.51622  0.66240  1.0000
  C   C3436     1.0  0.96673  0.55756  0.93118  1.0000
  H   H6100     1.0  0.99643  0.52777  0.69538  1.0000
  C   C3437     1.0  0.95568  0.56237  0.93623  1.0000
  C   C3438     1.0  0.95965  0.52330  0.52923  1.0000
  H   H6101     1.0  0.94650  0.58697  0.91189  1.0000
  N   N191      1.0  0.96050  0.51618  0.55725  1.0000
  C   C3439     1.0  0.76780  0.50903  0.90661  1.0000
  H   H6102     1.0  0.92096  0.52427  0.84038  1.0000
  H   H6103     1.0  0.92751  0.58809  0.94151  1.0000
  C   C3440     1.0  0.97171  0.59018  0.97260  1.0000
  H   H6104     1.0  0.84347  0.50577  0.86764  1.0000
  H   H6105     1.0  0.92950  0.52729  0.79105  1.0000
  H   H6106     1.0  0.96201  0.51911  0.59816  1.0000
  H   H6107     1.0  0.98901  0.53959  0.72711  1.0000
  H   H6108     1.0  0.94820  0.51405  0.77444  1.0000
  H   H6109     1.0  0.93737  0.51698  0.55992  1.0000
  C   C3441     1.0  0.96554  0.54650  0.95437  1.0000
  C   C3442     1.0  0.94957  0.50639  0.57154  1.0000
  H   H6110     1.0  0.95378  0.52922  0.53261  1.0000
  C   C3443     1.0  0.75690  0.50753  0.90026  1.0000
  C   C3444     1.0  0.93223  0.51888  0.79368  1.0000
  C   C3445     1.0  0.98807  0.53241  0.74619  1.0000
  H   H6111     1.0  0.96710  0.58190  0.83045  1.0000
  H   H6112     1.0  0.93549  0.56611  0.96484  1.0000
  H   H6113     1.0  0.93776  0.51239  0.66493  1.0000
  C   C3446     1.0  0.94552  0.57760  0.92259  1.0000
  H   H6114     1.0  0.93787  0.53051  0.73593  1.0000
  H   H6115     1.0  0.95450  0.52809  0.58057  1.0000
  H   H6116     1.0  0.98245  0.54893  0.57886  1.0000
  H   H6117     1.0  0.95665  0.53777  0.85203  1.0000
  C   C3447     1.0  0.76670  0.51692  0.82825  1.0000
  C   C3448     1.0  0.94419  0.52084  0.85972  1.0000
  H   H6118     1.0  0.86040  0.52927  0.95274  1.0000
  H   H6119     1.0  0.96089  0.50984  0.50531  1.0000
  H   H6120     1.0  0.95129  0.52241  0.81548  1.0000
  H   H6121     1.0  0.97927  0.50639  0.70206  1.0000
  H   H6122     1.0  0.98019  0.53218  0.76262  1.0000
  C   C3449     1.0  0.91003  0.50715  0.84262  1.0000
  C   C3450     1.0  0.93758  0.57547  0.95284  1.0000
  H   H6123     1.0  0.88369  0.50781  0.93248  1.0000
  H   H6124     1.0  0.92543  0.51278  0.78806  1.0000
  H   H6125     1.0  0.95055  0.52524  0.72479  1.0000
  H   H6126     1.0  0.94177  0.58120  0.96464  1.0000
  H   H6127     1.0  0.98589  0.51374  0.75801  1.0000
  H   H6128     1.0  0.96975  0.57277  0.96706  1.0000
  H   H6129     1.0  0.76662  0.52453  0.81131  1.0000
  H   H6130     1.0  0.92134  0.57343  0.93918  1.0000
  C   C3451     1.0  0.81190  0.51094  0.82896  1.0000
  C   C3452     1.0  0.96921  0.50823  0.65466  1.0000
  H   H6131     1.0  0.96863  0.50358  0.54099  1.0000
  H   H6132     1.0  0.99579  0.53421  0.75490  1.0000
  H   H6133     1.0  0.89975  0.50878  0.88261  1.0000
  H   H6134     1.0  0.90908  0.50831  0.82058  1.0000
  H   H6135     1.0  0.99531  0.56538  0.76447  1.0000
  H   H6136     1.0  0.97798  0.50705  0.65138  1.0000
  C   C3453     1.0  0.89948  0.51003  0.86001  1.0000
  N   N192      1.0  0.99713  0.50944  0.70517  1.0000
  H   H6137     1.0  0.89127  0.50408  0.85933  1.0000
  C   C3454     1.0  0.97480  0.50552  0.57789  1.0000
  C   C3455     1.0  0.77408  0.50947  0.81537  1.0000
  H   H6138     1.0  0.99225  0.50613  0.55343  1.0000
  H   H6139     1.0  0.79615  0.50485  0.79782  1.0000
  H   H6140     1.0  0.81703  0.50433  0.82671  1.0000
  H   H6141     1.0  0.77045  0.50702  0.79800  1.0000
  C   C3456     1.0  0.85195  0.50730  0.85176  1.0000
  H   H6142     1.0  0.85069  0.50959  0.82994  1.0000
  H   H6143     1.0  0.95111  0.53061  0.48268  1.0000
  H   H6144     1.0  0.91928  0.50279  0.59227  1.0000
