data_image0
_chemical_formula_structural       FeS2FeS2FeCFeS3FeSHFeS2FeHFeS3H3CH2C3H2SHCH2CNHC6H4CH2C3H2NC7H13C2H3CHNCH9CNC10H5CH14C2HCH5CH2CH6C2HCH8CH3CHC2H3CHC2H3CHCHC2H3SHCH2FeSH2CSCHC2H4CSCH3CH4CH2C3HCH4FeS2C2HCH2C2HCHC2H2FeHC3H5CH4C6HSH3NH4NH10FeH2CSHCHC2HCH2C3H2NH2CH4SH2CHCH4CH2CFeS2HSFeSFeS2FeSFeS2CFeS3CFeCHC6H2CHCHC3H3SH7C3HCH3CH3C4H2CH5CHC2HFeHSCH4CHC2HCHCH4CH3CH4CHC2H2NH3CH4C2H4C2HCH2CH8CH2CHCHCNCHCH8CH2CH7CH3C2HCH2S2H2CFeHFeS3HC2FeSHCHSC3H2CH2CHCSHCHC2HCHC3HCH5CH5CH5CHCHC2HCHNCH2CH3C2HCNC2H9C2FeH5CHCH2C3H6C2H5SCH2C5HCH2SHCH2CH3CNCH2C2HC2SC2H3CH3CH11C2HC2H2C5H5NH4CH3CH2CH3CH2CH2CH6CHCH2CH3CH3FeS2FeS2FeSFeS3FeS2FeS2FeSFeS3CH3C2H3C6H7C3HC2HC2H3CHCHC3H5C2H2CH2CH2NC12H15CHC2H12CH2CH5C3HNH9C2NHCHCH2CH5C2H3C2H2CH7CHC2FeS2FeS2FeHFeS3FeS2FeS2FeSFeS3H5C2H2CH4CH3C7H7C2HC2HC5H14C2H4CH3CSNC2HCHC2HCHCH3CH3CH4NC6HC2H6CH16NC2HCH2CH3C3HCHFeS3FeSCH14CH4CH2CH4C3NCHC5HC3H14C3H8C3NC7HCHC3H2CH10SHCHCH3C2HC3HFeH3SH2SC2H2FeS2FeSFe2HS2FeSFeS2FeHCS2C3HC6H3CH3CH2CHCHC3H3CFeHC2H6SCH2CH3SC2H3C4H3CHC3NH3CHC2NH5CH2SH2CH4CH2CHC2H3SH3CHCH2CHSHCH10CH2CHCH3CHSCFeSHCHFeHSFeCH2CSCH3CHCH6CHCHCHCHNH2CHCH4C2H4CNC4HC3HSC2H18SH8CSCHFe2H3C2HCHCHCH2CH2CH2CSNHCH3C3H2SH2CH3CH7CSH6C2H3CH4C3HCNCH3CN2H3C3HC5H2CHC2H5CH4C2H2CH2CHCHC2HCH3CH2CH5C2H2CHCHCH3C2H2CHNCFeS2FeS2FeSFeS3FeS2FeS2FeSFeHS2H5C2H2C6H4C2H2CHCHC2HCH2C2H2CNC8H15NC5HC2HCH10CH2CH12C2H5C2HCHCHCH4CH2SH2CH4C3HC3HC2H2CH11C
_chemical_formula_sum              "Fe64 S128 C576 H1024 N32"
_cell_length_a       39.3212
_cell_length_b       41.263
_cell_length_c       40.3646
_cell_angle_alpha    89.8158
_cell_angle_beta     89.4885
_cell_angle_gamma    89.9525

_space_group_name_H-M_alt    "P 1"
_space_group_IT_number       1

loop_
  _space_group_symop_operation_xyz
  'x, y, z'

loop_
  _atom_site_type_symbol
  _atom_site_label
  _atom_site_symmetry_multiplicity
  _atom_site_fract_x
  _atom_site_fract_y
  _atom_site_fract_z
  _atom_site_occupancy
  Fe  Fe1       1.0  0.20346  0.12863  0.41535  1.0000
  S   S1        1.0  0.21704  0.07931  0.39406  1.0000
  S   S2        1.0  0.24653  0.15812  0.43862  1.0000
  Fe  Fe2       1.0  0.12889  0.12315  0.39344  1.0000
  S   S3        1.0  0.13797  0.07455  0.37115  1.0000
  S   S4        1.0  0.07723  0.14868  0.39246  1.0000
  Fe  Fe3       1.0  0.16750  0.06292  0.41716  1.0000
  C   C1        1.0  0.24753  0.18669  0.47154  1.0000
  Fe  Fe4       1.0  0.18665  0.09508  0.34942  1.0000
  S   S5        1.0  0.19397  0.08358  0.29373  1.0000
  S   S6        1.0  0.15584  0.11108  0.44084  1.0000
  S   S7        1.0  0.17580  0.14500  0.36952  1.0000
  Fe  Fe5       1.0  0.29631  0.11633  0.05251  1.0000
  S   S8        1.0  0.27634  0.07758  0.08777  1.0000
  H   H1        1.0  0.47152  0.10399  0.19163  1.0000
  Fe  Fe6       1.0  0.37073  0.10368  0.07254  1.0000
  S   S9        1.0  0.35565  0.06497  0.10876  1.0000
  S   S10       1.0  0.42494  0.12207  0.06234  1.0000
  Fe  Fe7       1.0  0.32035  0.04733  0.06887  1.0000
  H   H2        1.0  0.24291  0.18825  0.07594  1.0000
  Fe  Fe8       1.0  0.31292  0.09802  0.12505  1.0000
  S   S11       1.0  0.30767  0.10998  0.18078  1.0000
  S   S12       1.0  0.33795  0.08436  0.03150  1.0000
  S   S13       1.0  0.33025  0.13843  0.09081  1.0000
  H   H3        1.0  0.13314  0.24632  0.08671  1.0000
  H   H4        1.0  0.25532  0.24748  0.07897  1.0000
  H   H5        1.0  0.26373  0.03931  0.47806  1.0000
  C   C2        1.0  0.20426  0.27571  0.42737  1.0000
  H   H6        1.0  0.17357  0.24340  0.39751  1.0000
  H   H7        1.0  0.12255  0.07604  0.24680  1.0000
  C   C3        1.0  0.46599  0.10758  0.07356  1.0000
  C   C4        1.0  0.47087  0.07786  0.08965  1.0000
  C   C5        1.0  0.22061  0.29837  0.05081  1.0000
  H   H8        1.0  0.44922  0.06253  0.09495  1.0000
  H   H9        1.0  0.25788  0.27651  0.41666  1.0000
  S   S14       1.0  0.25775  0.14268  0.01925  1.0000
  H   H10       1.0  0.24713  0.25859  0.45541  1.0000
  C   C6        1.0  0.22819  0.07634  0.49587  1.0000
  H   H11       1.0  0.19554  0.29754  0.41374  1.0000
  H   H12       1.0  0.20882  0.22385  0.41756  1.0000
  C   C7        1.0  0.20349  0.24222  0.06012  1.0000
  N   N1        1.0  0.25006  0.31103  0.45647  1.0000
  H   H13       1.0  0.35453  0.28723  0.47782  1.0000
  C   C8        1.0  0.22595  0.09147  0.26277  1.0000
  C   C9        1.0  0.22061  0.08078  0.23006  1.0000
  C   C10       1.0  0.24510  0.08617  0.20470  1.0000
  C   C11       1.0  0.27548  0.10241  0.21163  1.0000
  C   C12       1.0  0.28076  0.11318  0.24432  1.0000
  C   C13       1.0  0.25626  0.10782  0.26968  1.0000
  H   H14       1.0  0.19739  0.06805  0.22428  1.0000
  H   H15       1.0  0.24053  0.07766  0.17982  1.0000
  H   H16       1.0  0.30406  0.12570  0.25014  1.0000
  H   H17       1.0  0.26092  0.11620  0.29458  1.0000
  C   C14       1.0  0.08596  0.09716  0.21236  1.0000
  H   H18       1.0  0.03380  0.05359  0.44134  1.0000
  H   H19       1.0  0.10836  0.25985  0.14113  1.0000
  C   C15       1.0  0.03290  0.09643  0.38607  1.0000
  C   C16       1.0  0.03655  0.12974  0.39130  1.0000
  C   C17       1.0  0.14761  0.26258  0.10308  1.0000
  H   H20       1.0  0.05530  0.08139  0.38343  1.0000
  H   H21       1.0  0.30994  0.31062  0.42027  1.0000
  N   N2        1.0  0.07698  0.08550  0.27584  1.0000
  C   C18       1.0  0.04147  0.09796  0.26951  1.0000
  C   C19       1.0  0.09436  0.07649  0.24352  1.0000
  C   C20       1.0  0.07378  0.05522  0.29694  1.0000
  C   C21       1.0  0.09798  0.10968  0.29481  1.0000
  C   C22       1.0  0.10343  0.14313  0.27823  1.0000
  C   C23       1.0  0.01977  0.10598  0.30072  1.0000
  C   C24       1.0  0.10605  0.03349  0.29936  1.0000
  H   H22       1.0  0.43802  0.01769  0.04867  1.0000
  H   H23       1.0  0.28607  0.28935  0.49020  1.0000
  H   H24       1.0  0.16472  0.24716  0.11815  1.0000
  H   H25       1.0  0.28998  0.10965  0.48033  1.0000
  H   H26       1.0  0.21561  0.23316  0.03696  1.0000
  H   H27       1.0  0.02707  0.07974  0.25488  1.0000
  H   H28       1.0  0.04184  0.12017  0.25402  1.0000
  H   H29       1.0  0.12871  0.04762  0.30640  1.0000
  H   H30       1.0  0.10413  0.10470  0.16194  1.0000
  H   H31       1.0  0.05301  0.03942  0.28753  1.0000
  H   H32       1.0  0.06636  0.06167  0.32281  1.0000
  H   H33       1.0  0.08721  0.11362  0.32009  1.0000
  H   H34       1.0  0.12380  0.09988  0.29932  1.0000
  C   C25       1.0  0.27887  0.20077  0.48006  1.0000
  C   C26       1.0  0.16859  0.28825  0.08344  1.0000
  H   H35       1.0  0.42967  0.02844  0.18552  1.0000
  H   H36       1.0  0.18709  0.27148  0.44896  1.0000
  H   H37       1.0  0.23482  0.30014  0.07445  1.0000
  C   C27       1.0  0.34912  0.30324  0.45636  1.0000
  H   H38       1.0  0.45686  0.05611  0.16322  1.0000
  N   N3        1.0  0.19021  0.27618  0.05483  1.0000
  C   C28       1.0  0.23024  0.23837  0.08791  1.0000
  H   H39       1.0  0.13586  0.29460  0.14458  1.0000
  H   H40       1.0  0.18258  0.22483  0.06506  1.0000
  H   H41       1.0  0.21099  0.19271  0.10817  1.0000
  H   H42       1.0  0.10962  0.16860  0.32519  1.0000
  H   H43       1.0  0.07894  0.15494  0.27218  1.0000
  H   H44       1.0  0.04037  0.01098  0.45000  1.0000
  H   H45       1.0  0.09573  0.01669  0.34989  1.0000
  H   H46       1.0  0.49117  0.15001  0.05403  1.0000
  H   H47       1.0  0.12461  0.19040  0.28916  1.0000
  C   C29       1.0  0.49458  0.12704  0.06659  1.0000
  N   N4        1.0  0.43251  0.13632  0.17321  1.0000
  C   C30       1.0  0.40980  0.10887  0.16248  1.0000
  C   C31       1.0  0.43071  0.16324  0.14782  1.0000
  C   C32       1.0  0.46855  0.12351  0.17283  1.0000
  C   C33       1.0  0.42396  0.14881  0.20748  1.0000
  C   C34       1.0  0.38594  0.14742  0.21842  1.0000
  C   C35       1.0  0.41059  0.07780  0.18455  1.0000
  C   C36       1.0  0.39602  0.18050  0.14389  1.0000
  C   C37       1.0  0.39625  0.20289  0.11363  1.0000
  C   C38       1.0  0.37994  0.16633  0.25043  1.0000
  C   C39       1.0  0.43000  0.04964  0.16851  1.0000
  H   H48       1.0  0.41561  0.10216  0.13630  1.0000
  H   H49       1.0  0.38281  0.11651  0.16162  1.0000
  H   H50       1.0  0.44868  0.18304  0.15389  1.0000
  H   H51       1.0  0.43895  0.15397  0.12314  1.0000
  H   H52       1.0  0.21611  0.24948  0.38173  1.0000
  C   C40       1.0  0.11122  0.09041  0.18420  1.0000
  H   H53       1.0  0.43820  0.13508  0.22672  1.0000
  H   H54       1.0  0.43284  0.17431  0.21000  1.0000
  H   H55       1.0  0.37801  0.12202  0.22318  1.0000
  H   H56       1.0  0.36866  0.15736  0.19948  1.0000
  H   H57       1.0  0.42117  0.08247  0.20944  1.0000
  H   H58       1.0  0.38397  0.06945  0.18881  1.0000
  H   H59       1.0  0.37488  0.16325  0.14068  1.0000
  H   H60       1.0  0.39067  0.19572  0.16597  1.0000
  H   H61       1.0  0.37130  0.21536  0.11168  1.0000
  H   H62       1.0  0.41653  0.22147  0.11571  1.0000
  H   H63       1.0  0.40043  0.18866  0.09060  1.0000
  H   H64       1.0  0.39315  0.02027  0.05737  1.0000
  H   H65       1.0  0.19419  0.18451  0.48361  1.0000
  H   H66       1.0  0.28928  0.01201  0.99894  1.0000
  C   C41       1.0  0.28059  0.20629  0.00958  1.0000
  C   C42       1.0  0.12279  0.16607  0.30085  1.0000
  H   H67       1.0  0.21062  0.05644  0.48924  1.0000
  C   C43       1.0  0.24152  0.27967  0.43905  1.0000
  H   H68       1.0  0.23904  0.28809  0.03254  1.0000
  H   H69       1.0  0.15076  0.30740  0.07470  1.0000
  H   H70       1.0  0.25507  0.20079  0.11680  1.0000
  H   H71       1.0  0.47449  0.11218  0.14846  1.0000
  H   H72       1.0  0.08613  0.12349  0.21711  1.0000
  C   C44       1.0  0.00704  0.14886  0.39471  1.0000
  H   H73       1.0  0.19880  0.31613  0.47606  1.0000
  H   H74       1.0  0.22306  0.09509  0.47657  1.0000
  C   C45       1.0  0.28726  0.08527  0.46919  1.0000
  H   H75       1.0  0.03246  0.12437  0.31632  1.0000
  H   H76       1.0  0.35277  0.16437  0.25792  1.0000
  H   H77       1.0  0.27610  0.08797  0.44415  1.0000
  H   H78       1.0  0.41765  0.04235  0.14507  1.0000
  H   H79       1.0  0.15973  0.30198  0.01872  1.0000
  H   H80       1.0  0.30156  0.19431  0.46621  1.0000
  C   C46       1.0  0.20061  0.24634  0.40465  1.0000
  C   C47       1.0  0.41255  0.01999  0.03722  1.0000
  H   H81       1.0  0.30151  0.20026  0.02569  1.0000
  C   C48       1.0  0.17061  0.27741  0.02281  1.0000
  H   H82       1.0  0.13737  0.09751  0.19155  1.0000
  H   H83       1.0  0.06012  0.09086  0.20345  1.0000
  H   H84       1.0  0.39575  0.15633  0.27072  1.0000
  H   H85       1.0  0.08718  0.05142  0.23615  1.0000
  H   H86       1.0  0.01509  0.08383  0.31567  1.0000
  H   H87       1.0  0.22293  0.25231  0.11032  1.0000
  H   H88       1.0  0.11974  0.26034  0.03686  1.0000
  H   H89       1.0  0.11929  0.14044  0.25556  1.0000
  C   C49       1.0  0.23497  0.20285  0.09775  1.0000
  H   H90       1.0  0.11190  0.02166  0.27533  1.0000
  H   H91       1.0  0.36776  0.29751  0.43639  1.0000
  H   H92       1.0  0.38605  0.19238  0.24672  1.0000
  C   C50       1.0  0.12235  0.27872  0.12683  1.0000
  H   H93       1.0  0.31300  0.07451  0.46633  1.0000
  C   C51       1.0  0.31308  0.29734  0.44398  1.0000
  C   C52       1.0  0.10102  0.00645  0.32494  1.0000
  H   H94       1.0  0.14900  0.15684  0.30462  1.0000
  H   H95       1.0  0.11109  0.06428  0.17761  1.0000
  H   H96       1.0  0.00953  0.17466  0.39869  1.0000
  C   C53       1.0  0.25636  0.18263  0.00212  1.0000
  H   H97       1.0  0.31080  0.27098  0.43879  1.0000
  C   C54       1.0  0.14035  0.25379  0.01924  1.0000
  C   C55       1.0  0.28564  0.30764  0.46985  1.0000
  H   H98       1.0  0.22205  0.00253  0.45797  1.0000
  H   H99       1.0  0.10355  0.29338  0.11284  1.0000
  H   H100      1.0  0.05462  0.04119  0.47877  1.0000
  C   C56       1.0  0.03416  0.03488  0.46112  1.0000
  H   H101      1.0  0.41107  0.04348  0.02374  1.0000
  C   C57       1.0  0.22536  0.31468  0.48508  1.0000
  H   H102      1.0  0.18460  0.30057  0.10225  1.0000
  C   C58       1.0  0.26503  0.06311  0.49079  1.0000
  C   C59       1.0  0.21846  0.19510  0.48982  1.0000
  H   H103      1.0  0.29636  0.25602  0.00254  1.0000
  H   H104      1.0  0.18816  0.27302  0.00153  1.0000
  H   H105      1.0  0.49135  0.16337  0.20159  1.0000
  S   S15       1.0  0.15025  0.01712  0.44460  1.0000
  H   H106      1.0  0.14812  0.22824  0.02309  1.0000
  C   C60       1.0  0.49716  0.14851  0.17939  1.0000
  H   H107      1.0  0.29426  0.33029  0.48184  1.0000
  H   H108      1.0  0.35257  0.32899  0.46366  1.0000
  Fe  Fe9       1.0  0.29533  0.29369  0.57541  1.0000
  S   S16       1.0  0.25367  0.25827  0.55916  1.0000
  H   H109      1.0  0.18272  0.12287  0.51033  1.0000
  H   H110      1.0  0.10314  0.22996  0.75625  1.0000
  C   C61       1.0  0.35288  0.29139  0.76816  1.0000
  S   S17       1.0  0.17503  0.29189  0.88969  1.0000
  C   C62       1.0  0.21669  0.02884  0.54828  1.0000
  H   H111      1.0  0.40251  0.26230  0.72408  1.0000
  C   C63       1.0  0.15502  0.07939  0.52493  1.0000
  C   C64       1.0  0.22088  0.21709  0.51644  1.0000
  H   H112      1.0  0.37167  0.29372  0.78835  1.0000
  H   H113      1.0  0.46444  0.29373  0.72066  1.0000
  H   H114      1.0  0.11560  0.10854  0.54894  1.0000
  H   H115      1.0  0.14458  0.24965  0.96536  1.0000
  C   C65       1.0  0.39270  0.28042  0.70601  1.0000
  S   S18       1.0  0.33917  0.30998  0.54406  1.0000
  C   C66       1.0  0.05582  0.23162  0.73083  1.0000
  H   H116      1.0  0.15398  0.06187  0.54579  1.0000
  H   H117      1.0  0.19416  0.25573  0.82450  1.0000
  H   H118      1.0  0.01184  0.28049  0.93685  1.0000
  C   C67       1.0  0.25221  0.23120  0.52493  1.0000
  H   H119      1.0  0.29055  0.14155  0.58436  1.0000
  H   H120      1.0  0.17881  0.11582  0.55365  1.0000
  H   H121      1.0  0.21692  0.15492  0.56321  1.0000
  H   H122      1.0  0.06632  0.21868  0.78104  1.0000
  C   C68       1.0  0.25039  0.24645  0.97553  1.0000
  H   H123      1.0  0.00194  0.01562  0.49956  1.0000
  H   H124      1.0  0.28266  0.02638  0.83216  1.0000
  C   C69       1.0  0.28122  0.22298  0.50647  1.0000
  C   C70       1.0  0.24460  0.11719  0.53584  1.0000
  C   C71       1.0  0.17990  0.23846  0.80881  1.0000
  H   H125      1.0  0.13806  0.28264  0.78378  1.0000
  C   C72       1.0  0.22384  0.06479  0.55730  1.0000
  H   H126      1.0  0.26305  0.17432  0.59720  1.0000
  H   H127      1.0  0.24024  0.03191  0.84853  1.0000
  H   H128      1.0  0.26806  0.00259  0.86734  1.0000
  H   H129      1.0  0.36628  0.27244  0.70020  1.0000
  Fe  Fe10      1.0  0.13208  0.32330  0.90888  1.0000
  S   S19       1.0  0.42338  0.28698  0.58596  1.0000
  S   S20       1.0  0.24659  0.28752  0.96185  1.0000
  C   C73       1.0  0.26942  0.15763  0.57651  1.0000
  C   C74       1.0  0.22634  0.22272  0.96781  1.0000
  H   H130      1.0  0.49066  0.26105  0.57925  1.0000
  C   C75       1.0  0.14181  0.24048  0.81641  1.0000
  H   H131      1.0  0.27805  0.17241  0.55502  1.0000
  H   H132      1.0  0.10013  0.07896  0.51993  1.0000
  C   C76       1.0  0.12529  0.25613  0.98451  1.0000
  C   C77       1.0  0.23814  0.13762  0.56752  1.0000
  H   H133      1.0  0.39446  0.99991  0.93617  1.0000
  C   C78       1.0  0.26044  0.01371  0.84339  1.0000
  H   H134      1.0  0.19828  0.22321  0.53059  1.0000
  C   C79       1.0  0.21299  0.00781  0.57934  1.0000
  C   C80       1.0  0.07318  0.25745  0.83518  1.0000
  H   H135      1.0  0.13883  0.29086  0.82673  1.0000
  H   H136      1.0  0.39859  0.28835  0.65275  1.0000
  Fe  Fe11      1.0  0.37049  0.30994  0.59032  1.0000
  H   H137      1.0  0.21105  0.32182  0.55265  1.0000
  C   C81       1.0  0.31756  0.29564  0.78371  1.0000
  C   C82       1.0  0.18462  0.10366  0.52975  1.0000
  C   C83       1.0  0.25028  0.32558  0.71313  1.0000
  H   H138      1.0  0.18515  0.24410  0.78232  1.0000
  H   H139      1.0  0.30557  0.23332  0.51286  1.0000
  H   H140      1.0  0.29750  0.29236  0.76481  1.0000
  H   H141      1.0  0.11599  0.28111  0.97962  1.0000
  H   H142      1.0  0.27112  0.10796  0.53725  1.0000
  C   C84       1.0  0.03390  0.25924  0.83888  1.0000
  H   H143      1.0  0.19338  0.02582  0.53348  1.0000
  H   H144      1.0  0.18932  0.21365  0.81423  1.0000
  H   H145      1.0  0.19069  0.01569  0.59436  1.0000
  H   H146      1.0  0.13831  0.23542  0.84331  1.0000
  C   C85       1.0  0.46362  0.30304  0.59715  1.0000
  C   C86       1.0  0.12722  0.27455  0.80804  1.0000
  C   C87       1.0  0.22930  0.19110  0.98110  1.0000
  C   C88       1.0  0.45758  0.31842  0.72925  1.0000
  C   C89       1.0  0.41569  0.24020  0.66380  1.0000
  C   C90       1.0  0.07637  0.23610  0.76247  1.0000
  H   H147      1.0  0.12915  0.22091  0.80263  1.0000
  S   S21       1.0  0.32743  0.28931  0.62148  1.0000
  H   H148      1.0  0.07948  0.23153  0.83162  1.0000
  H   H149      1.0  0.25008  0.06507  0.56752  1.0000
  H   H150      1.0  0.20995  0.29841  0.73707  1.0000
  N   N5        1.0  0.22013  0.08962  0.52987  1.0000
  H   H151      1.0  0.05842  0.20624  0.72204  1.0000
  H   H152      1.0  0.20530  0.22876  0.95186  1.0000
  H   H153      1.0  0.23151  0.12209  0.58910  1.0000
  H   H154      1.0  0.43848  0.28635  0.67363  1.0000
  N   N6        1.0  0.39229  0.31394  0.72127  1.0000
  H   H155      1.0  0.24449  0.13434  0.51449  1.0000
  H   H156      1.0  0.42990  0.23784  0.64001  1.0000
  H   H157      1.0  0.42980  0.22668  0.68314  1.0000
  H   H158      1.0  0.39010  0.22931  0.66065  1.0000
  H   H159      1.0  0.24858  0.31249  0.69003  1.0000
  H   H160      1.0  0.48276  0.29537  0.51996  1.0000
  H   H161      1.0  0.35427  0.26642  0.75815  1.0000
  H   H162      1.0  0.08439  0.26378  0.85960  1.0000
  H   H163      1.0  0.20718  0.07138  0.57872  1.0000
  H   H164      1.0  0.42169  0.29801  0.76336  1.0000
  Fe  Fe12      1.0  0.20695  0.31360  0.92972  1.0000
  H   H165      1.0  0.23818  0.01887  0.53354  1.0000
  H   H166      1.0  0.43691  0.01420  0.97593  1.0000
  C   C91       1.0  0.27758  0.23793  0.99636  1.0000
  S   S22       1.0  0.07887  0.30230  0.91881  1.0000
  H   H167      1.0  0.27813  0.05847  0.51455  1.0000
  C   C92       1.0  0.49307  0.28463  0.59063  1.0000
  H   H168      1.0  0.31355  0.27730  0.80356  1.0000
  C   C93       1.0  0.12066  0.09680  0.52467  1.0000
  C   C94       1.0  0.41258  0.27601  0.67296  1.0000
  H   H169      1.0  0.15757  0.06597  0.50131  1.0000
  C   C95       1.0  0.00875  0.30063  0.91992  1.0000
  H   H170      1.0  0.21038  0.17306  0.97515  1.0000
  H   H171      1.0  0.11991  0.11551  0.50486  1.0000
  C   C96       1.0  0.42147  0.31804  0.74488  1.0000
  C   C97       1.0  0.03777  0.31703  0.90789  1.0000
  C   C98       1.0  0.22833  0.31765  0.73994  1.0000
  H   H172      1.0  0.02843  0.23658  0.73562  1.0000
  H   H173      1.0  0.06525  0.24810  0.71095  1.0000
  N   N7        1.0  0.08890  0.27842  0.80840  1.0000
  H   H174      1.0  0.03387  0.24056  0.88952  1.0000
  H   H175      1.0  0.02119  0.25281  0.81539  1.0000
  C   C99       1.0  0.07423  0.27152  0.77473  1.0000
  H   H176      1.0  0.23634  0.00908  0.59456  1.0000
  H   H177      1.0  0.10346  0.23924  0.98232  1.0000
  H   H178      1.0  0.08744  0.28612  0.75536  1.0000
  H   H179      1.0  0.02552  0.28380  0.84635  1.0000
  S   S23       1.0  0.20078  0.32341  0.80291  1.0000
  H   H180      1.0  0.04720  0.27951  0.77377  1.0000
  H   H181      1.0  0.23825  0.00023  0.79699  1.0000
  C   C100      1.0  0.02120  0.23568  0.86554  1.0000
  H   H182      1.0  0.02633  0.21024  0.85811  1.0000
  C   C101      1.0  0.08085  0.31329  0.81692  1.0000
  H   H183      1.0  0.05310  0.31806  0.81491  1.0000
  H   H184      1.0  0.08755  0.31818  0.84323  1.0000
  H   H185      1.0  0.22649  0.29279  0.50129  1.0000
  H   H186      1.0  0.48388  0.31144  0.77618  1.0000
  C   C102      1.0  0.48418  0.32833  0.75468  1.0000
  H   H187      1.0  0.31488  0.32011  0.79485  1.0000
  H   H188      1.0  0.33743  0.31652  0.72360  1.0000
  C   C103      1.0  0.35944  0.31726  0.74077  1.0000
  Fe  Fe13      1.0  0.37532  0.60024  0.39608  1.0000
  S   S24       1.0  0.33753  0.55967  0.39014  1.0000
  S   S25       1.0  0.42898  0.58331  0.38147  1.0000
  H   H189      1.0  0.29966  0.59945  0.04576  1.0000
  S   S26       1.0  0.27839  0.60857  0.41749  1.0000
  Fe  Fe14      1.0  0.31655  0.57399  0.43969  1.0000
  S   S27       1.0  0.30214  0.54330  0.48498  1.0000
  Fe  Fe15      1.0  0.30264  0.59718  0.36777  1.0000
  S   S28       1.0  0.27293  0.57956  0.32224  1.0000
  S   S29       1.0  0.35636  0.61226  0.44726  1.0000
  Fe  Fe16      1.0  0.20674  0.61581  0.13304  1.0000
  S   S30       1.0  0.23661  0.63470  0.17795  1.0000
  Fe  Fe17      1.0  0.19531  0.56642  0.07643  1.0000
  S   S31       1.0  0.15162  0.59454  0.05530  1.0000
  S   S32       1.0  0.21690  0.51874  0.05642  1.0000
  C   C104      1.0  0.25891  0.39753  0.41609  1.0000
  Fe  Fe18      1.0  0.13430  0.60149  0.10813  1.0000
  S   S33       1.0  0.08241  0.58980  0.13153  1.0000
  S   S34       1.0  0.22980  0.60989  0.08186  1.0000
  S   S35       1.0  0.17610  0.57019  0.12905  1.0000
  C   C105      1.0  0.04138  0.60444  0.12083  1.0000
  Fe  Fe19      1.0  0.31930  0.64622  0.42240  1.0000
  C   C106      1.0  0.03661  0.62867  0.09701  1.0000
  H   H190      1.0  0.37776  0.59545  0.18682  1.0000
  C   C107      1.0  0.26301  0.59564  0.28238  1.0000
  C   C108      1.0  0.26816  0.62821  0.27404  1.0000
  C   C109      1.0  0.25938  0.63974  0.24222  1.0000
  C   C110      1.0  0.24552  0.61895  0.21822  1.0000
  C   C111      1.0  0.24037  0.58640  0.22659  1.0000
  C   C112      1.0  0.24888  0.57491  0.25848  1.0000
  H   H191      1.0  0.23034  0.56997  0.20832  1.0000
  H   H192      1.0  0.24474  0.54966  0.26460  1.0000
  C   C113      1.0  0.46931  0.60248  0.38469  1.0000
  H   H193      1.0  0.01402  0.52923  0.08103  1.0000
  C   C114      1.0  0.47316  0.63362  0.39769  1.0000
  H   H194      1.0  0.20475  0.33403  0.01339  1.0000
  C   C115      1.0  0.03253  0.56825  0.23676  1.0000
  C   C116      1.0  0.20217  0.49483  0.02281  1.0000
  C   C117      1.0  0.36515  0.56588  0.28808  1.0000
  H   H195      1.0  0.48029  0.51941  0.25694  1.0000
  H   H196      1.0  0.03797  0.54589  0.25118  1.0000
  H   H197      1.0  0.27610  0.41843  0.42049  1.0000
  S   S36       1.0  0.34150  0.63717  0.37105  1.0000
  H   H198      1.0  0.44365  0.50655  0.23394  1.0000
  H   H199      1.0  0.05952  0.58411  0.04772  1.0000
  H   H200      1.0  0.41335  0.62571  0.25163  1.0000
  H   H201      1.0  0.31384  0.59864  0.17840  1.0000
  H   H202      1.0  0.16126  0.52652  0.00890  1.0000
  H   H203      1.0  0.48972  0.54006  0.43002  1.0000
  H   H204      1.0  0.28050  0.56010  0.05334  1.0000
  C   C118      1.0  0.06327  0.55792  0.04266  1.0000
  C   C119      1.0  0.42772  0.65088  0.31043  1.0000
  C   C120      1.0  0.39424  0.61653  0.26989  1.0000
  H   H205      1.0  0.05842  0.63927  0.08455  1.0000
  C   C121      1.0  0.35156  0.59088  0.23502  1.0000
  H   H206      1.0  0.37532  0.63299  0.20940  1.0000
  H   H207      1.0  0.34524  0.58099  0.30044  1.0000
  H   H208      1.0  0.42983  0.59903  0.30853  1.0000
  C   C122      1.0  0.32345  0.48135  0.46698  1.0000
  H   H209      1.0  0.32450  0.53589  0.26681  1.0000
  H   H210      1.0  0.40155  0.54377  0.46781  1.0000
  H   H211      1.0  0.33054  0.60401  0.24797  1.0000
  C   C123      1.0  0.19682  0.60954  0.46155  1.0000
  C   C124      1.0  0.34882  0.53252  0.28019  1.0000
  C   C125      1.0  0.34065  0.51345  0.31178  1.0000
  C   C126      1.0  0.45873  0.52798  0.24160  1.0000
  H   H212      1.0  0.14464  0.56538  0.29280  1.0000
  H   H213      1.0  0.45105  0.64684  0.40634  1.0000
  C   C127      1.0  0.36144  0.61041  0.20337  1.0000
  H   H214      1.0  0.49567  0.56180  0.36302  1.0000
  H   H215      1.0  0.23249  0.40523  0.42209  1.0000
  H   H216      1.0  0.19248  0.34459  0.05520  1.0000
  H   H217      1.0  0.41921  0.57972  0.22103  1.0000
  H   H218      1.0  0.18729  0.53109  0.19106  1.0000
  C   C128      1.0  0.17493  0.50453  0.00304  1.0000
  H   H219      1.0  0.43798  0.65164  0.33596  1.0000
  C   C129      1.0  0.49838  0.58577  0.37342  1.0000
  C   C130      1.0  0.43669  0.55136  0.26179  1.0000
  H   H220      1.0  0.25361  0.60965  0.00501  1.0000
  Fe  Fe20      1.0  0.18526  0.63839  0.06323  1.0000
  H   H221      1.0  0.03568  0.51700  0.02473  1.0000
  S   S37       1.0  0.16408  0.64758  0.11446  1.0000
  C   C131      1.0  0.32849  0.44805  0.47328  1.0000
  H   H222      1.0  0.20688  0.63010  0.44661  1.0000
  H   H223      1.0  0.34013  0.56796  0.22594  1.0000
  H   H224      1.0  0.33827  0.43264  0.45376  1.0000
  H   H225      1.0  0.39522  0.54421  0.22726  1.0000
  C   C132      1.0  0.26945  0.36914  0.43812  1.0000
  H   H226      1.0  0.07574  0.56291  0.20460  1.0000
  C   C133      1.0  0.11868  0.63421  0.21681  1.0000
  C   C134      1.0  0.29941  0.57362  0.03807  1.0000
  H   H227      1.0  0.14390  0.51948  0.18221  1.0000
  C   C135      1.0  0.31034  0.50145  0.49185  1.0000
  H   H228      1.0  0.32928  0.49138  0.44280  1.0000
  C   C136      1.0  0.24667  0.33887  0.43221  1.0000
  H   H229      1.0  0.46928  0.54025  0.21922  1.0000
  H   H230      1.0  0.22277  0.36708  0.49310  1.0000
  H   H231      1.0  0.36397  0.50942  0.32660  1.0000
  H   H232      1.0  0.17164  0.62591  0.32842  1.0000
  C   C137      1.0  0.48937  0.53221  0.45638  1.0000
  H   H233      1.0  0.37367  0.63520  0.27056  1.0000
  H   H234      1.0  0.20830  0.58657  0.45245  1.0000
  H   H235      1.0  0.16771  0.49818  0.21343  1.0000
  C   C138      1.0  0.24443  0.35505  0.04171  1.0000
  H   H236      1.0  0.31483  0.63822  0.19759  1.0000
  H   H237      1.0  0.16866  0.65808  0.22547  1.0000
  H   H238      1.0  0.23687  0.57015  0.00807  1.0000
  H   H239      1.0  0.11891  0.59733  0.30974  1.0000
  C   C139      1.0  0.40703  0.56474  0.24079  1.0000
  H   H240      1.0  0.32158  0.52658  0.32704  1.0000
  C   C140      1.0  0.21901  0.46561  0.01523  1.0000
  C   C141      1.0  0.02990  0.54238  0.03183  1.0000
  H   H241      1.0  0.26070  0.39077  0.38952  1.0000
  H   H242      1.0  0.36602  0.51724  0.26500  1.0000
  N   N8        1.0  0.38016  0.58413  0.25889  1.0000
  H   H243      1.0  0.16888  0.60829  0.45799  1.0000
  H   H244      1.0  0.01605  0.57261  0.15553  1.0000
  H   H245      1.0  0.48603  0.50539  0.45604  1.0000
  C   C142      1.0  0.33002  0.62007  0.18365  1.0000
  H   H246      1.0  0.08268  0.55549  0.02266  1.0000
  H   H247      1.0  0.16745  0.58571  0.34566  1.0000
  H   H248      1.0  0.42407  0.53071  0.43121  1.0000
  H   H249      1.0  0.02042  0.58651  0.25325  1.0000
  C   C143      1.0  0.14287  0.57972  0.21376  1.0000
  C   C144      1.0  0.15012  0.54580  0.22859  1.0000
  H   H250      1.0  0.32978  0.48951  0.30524  1.0000
  H   H251      1.0  0.42761  0.53800  0.28401  1.0000
  H   H252      1.0  0.44916  0.65449  0.29271  1.0000
  H   H253      1.0  0.19691  0.59286  0.31215  1.0000
  C   C145      1.0  0.16302  0.52232  0.20211  1.0000
  C   C146      1.0  0.00295  0.54325  0.06015  1.0000
  H   H254      1.0  0.32491  0.56308  0.04276  1.0000
  C   C147      1.0  0.09113  0.59118  0.24843  1.0000
  H   H255      1.0  0.07315  0.54594  0.06533  1.0000
  H   H256      1.0  0.27877  0.64456  0.29211  1.0000
  C   C148      1.0  0.41062  0.61815  0.30467  1.0000
  H   H257      1.0  0.39074  0.61515  0.32404  1.0000
  H   H258      1.0  0.23821  0.37988  0.03286  1.0000
  H   H259      1.0  0.12837  0.57674  0.19041  1.0000
  H   H260      1.0  0.16799  0.58936  0.20557  1.0000
  H   H261      1.0  0.12704  0.53483  0.23979  1.0000
  H   H262      1.0  0.17029  0.54765  0.24756  1.0000
  H   H263      1.0  0.21971  0.34713  0.43130  1.0000
  H   H264      1.0  0.33785  0.63120  0.15969  1.0000
  C   C149      1.0  0.06520  0.58181  0.22128  1.0000
  H   H265      1.0  0.25344  0.35667  0.06765  1.0000
  H   H266      1.0  0.38440  0.56158  0.30754  1.0000
  C   C150      1.0  0.42459  0.53080  0.45871  1.0000
  H   H267      1.0  0.17509  0.61141  0.25776  1.0000
  C   C151      1.0  0.01267  0.59124  0.13697  1.0000
  H   H268      1.0  0.45348  0.57150  0.26944  1.0000
  C   C152      1.0  0.17163  0.59966  0.32240  1.0000
  N   N9        1.0  0.12524  0.60356  0.23638  1.0000
  C   C153      1.0  0.14775  0.61214  0.26540  1.0000
  H   H269      1.0  0.09397  0.56947  0.26439  1.0000
  C   C154      1.0  0.14371  0.59174  0.29761  1.0000
  H   H270      1.0  0.24008  0.45781  0.03037  1.0000
  H   H271      1.0  0.05782  0.60314  0.20617  1.0000
  H   H272      1.0  0.07881  0.60976  0.26456  1.0000
  H   H273      1.0  0.02109  0.55562  0.00956  1.0000
  H   H274      1.0  0.26854  0.37758  0.46405  1.0000
  H   H275      1.0  0.01429  0.56209  0.21690  1.0000
  H   H276      1.0  0.45696  0.41833  0.49088  1.0000
  H   H277      1.0  0.30646  0.64515  0.49356  1.0000
  C   C155      1.0  0.15066  0.65323  0.20509  1.0000
  H   H278      1.0  0.16427  0.63923  0.18577  1.0000
  H   H279      1.0  0.47725  0.45735  0.49604  1.0000
  C   C156      1.0  0.45655  0.54781  0.47118  1.0000
  H   H280      1.0  0.25587  0.59619  0.49085  1.0000
  H   H281      1.0  0.00103  0.56847  0.06955  1.0000
  H   H282      1.0  0.29645  0.36357  0.43227  1.0000
  H   H283      1.0  0.42350  0.50542  0.46793  1.0000
  H   H284      1.0  0.26511  0.34518  0.02570  1.0000
  H   H285      1.0  0.25140  0.63888  0.49089  1.0000
  H   H286      1.0  0.14304  0.63761  0.27343  1.0000
  C   C157      1.0  0.21284  0.33363  0.03966  1.0000
  H   H287      1.0  0.45498  0.57367  0.46345  1.0000
  H   H288      1.0  0.10436  0.62883  0.19380  1.0000
  H   H289      1.0  0.10241  0.65110  0.23155  1.0000
  C   C158      1.0  0.00349  0.63945  0.08943  1.0000
  C   C159      1.0  0.29104  0.57074  0.00133  1.0000
  H   H290      1.0  0.25268  0.33077  0.40651  1.0000
  C   C160      1.0  0.20453  0.61435  0.49826  1.0000
  H   H291      1.0  0.45580  0.54689  0.49861  1.0000
  H   H292      1.0  0.49058  0.35284  0.50710  1.0000
  S   S38       1.0  0.30224  0.36219  0.68308  1.0000
  S   S39       1.0  0.35846  0.36175  0.60223  1.0000
  H   H293      1.0  0.39604  0.42436  0.68720  1.0000
  H   H294      1.0  0.29258  0.50322  0.54253  1.0000
  C   C161      1.0  0.20534  0.34336  0.53706  1.0000
  Fe  Fe21      1.0  0.32446  0.36100  0.55755  1.0000
  H   H295      1.0  0.14374  0.61399  0.93950  1.0000
  Fe  Fe22      1.0  0.19084  0.33506  0.85825  1.0000
  S   S40       1.0  0.22506  0.35553  0.89762  1.0000
  S   S41       1.0  0.32701  0.39221  0.51056  1.0000
  S   S42       1.0  0.14555  0.36468  0.87521  1.0000
  H   H296      1.0  0.25542  0.37241  0.79652  1.0000
  C   C162      1.0  0.30828  0.64931  0.52060  1.0000
  C   C163      1.0  0.27397  0.35069  0.71614  1.0000
  Fe  Fe23      1.0  0.17865  0.38202  0.91722  1.0000
  S   S43       1.0  0.17131  0.43557  0.93089  1.0000
  H   H297      1.0  0.26801  0.53948  0.94634  1.0000
  C   C164      1.0  0.18248  0.45668  0.96766  1.0000
  H   H298      1.0  0.08859  0.37909  0.83018  1.0000
  S   S44       1.0  0.27840  0.34483  0.58685  1.0000
  C   C165      1.0  0.08536  0.37344  0.80354  1.0000
  C   C166      1.0  0.29310  0.61995  0.53965  1.0000
  C   C167      1.0  0.49826  0.41851  0.52658  1.0000
  H   H299      1.0  0.24757  0.49769  0.90497  1.0000
  H   H300      1.0  0.24552  0.52835  0.59293  1.0000
  C   C168      1.0  0.49967  0.34506  0.62038  1.0000
  H   H301      1.0  0.30268  0.62170  0.56543  1.0000
  H   H302      1.0  0.30215  0.44459  0.55365  1.0000
  C   C169      1.0  0.24558  0.58525  0.55577  1.0000
  H   H303      1.0  0.36964  0.33656  0.67846  1.0000
  C   C170      1.0  0.22951  0.34491  0.50720  1.0000
  S   S45       1.0  0.16293  0.34173  0.95167  1.0000
  H   H304      1.0  0.33188  0.63874  0.92557  1.0000
  C   C171      1.0  0.25386  0.35921  0.77347  1.0000
  H   H305      1.0  0.48810  0.39670  0.53919  1.0000
  C   C172      1.0  0.27564  0.36731  0.74657  1.0000
  C   C173      1.0  0.09907  0.33963  0.79558  1.0000
  H   H306      1.0  0.25390  0.56480  0.53954  1.0000
  C   C174      1.0  0.46708  0.33338  0.61215  1.0000
  H   H307      1.0  0.41433  0.33731  0.67759  1.0000
  C   C175      1.0  0.27211  0.60385  0.93710  1.0000
  C   C176      1.0  0.32093  0.43451  0.50455  1.0000
  C   C177      1.0  0.34591  0.65402  0.52836  1.0000
  H   H308      1.0  0.25651  0.54609  0.63216  1.0000
  C   C178      1.0  0.23113  0.54821  0.90873  1.0000
  H   H309      1.0  0.41542  0.38021  0.72202  1.0000
  H   H310      1.0  0.22600  0.53723  0.96159  1.0000
  H   H311      1.0  0.19289  0.59375  0.51183  1.0000
  H   H312      1.0  0.26305  0.60698  0.91123  1.0000
  H   H313      1.0  0.29577  0.58917  0.93472  1.0000
  C   C179      1.0  0.24329  0.61661  0.50415  1.0000
  H   H314      1.0  0.20744  0.61115  0.92849  1.0000
  H   H315      1.0  0.20314  0.50309  0.91548  1.0000
  H   H316      1.0  0.15162  0.62925  0.98073  1.0000
  H   H317      1.0  0.41796  0.34045  0.75984  1.0000
  H   H318      1.0  0.20737  0.56180  0.90388  1.0000
  C   C180      1.0  0.22985  0.33438  0.77031  1.0000
  H   H319      1.0  0.20858  0.62664  0.59844  1.0000
  H   H320      1.0  0.00533  0.46120  0.85022  1.0000
  H   H321      1.0  0.30487  0.59768  0.52897  1.0000
  H   H322      1.0  0.25981  0.60074  0.60622  1.0000
  H   H323      1.0  0.19204  0.63731  0.50593  1.0000
  C   C181      1.0  0.21236  0.60410  0.95465  1.0000
  H   H324      1.0  0.45968  0.33562  0.70820  1.0000
  C   C182      1.0  0.28180  0.63820  0.94938  1.0000
  H   H325      1.0  0.12639  0.59332  0.97529  1.0000
  C   C183      1.0  0.30841  0.65372  0.92653  1.0000
  C   C184      1.0  0.16550  0.48581  0.97539  1.0000
  H   H326      1.0  0.14491  0.49393  0.95983  1.0000
  C   C185      1.0  0.18052  0.58586  0.96779  1.0000
  H   H327      1.0  0.36053  0.63164  0.52265  1.0000
  N   N10       1.0  0.24572  0.58620  0.95761  1.0000
  C   C186      1.0  0.22460  0.51268  0.90034  1.0000
  H   H328      1.0  0.22259  0.42433  0.98225  1.0000
  H   H329      1.0  0.05796  0.37520  0.79730  1.0000
  C   C187      1.0  0.30278  0.48793  0.52313  1.0000
  H   H330      1.0  0.47933  0.35341  0.76350  1.0000
  H   H331      1.0  0.41536  0.39409  0.66092  1.0000
  H   H332      1.0  0.21768  0.58227  0.55812  1.0000
  C   C188      1.0  0.39261  0.37545  0.70682  1.0000
  C   C189      1.0  0.39352  0.39925  0.67775  1.0000
  H   H333      1.0  0.44873  0.44184  0.52754  1.0000
  C   C190      1.0  0.30820  0.45468  0.52954  1.0000
  N   N11       1.0  0.25473  0.61725  0.53977  1.0000
  C   C191      1.0  0.14869  0.60700  0.96561  1.0000
  C   C192      1.0  0.24384  0.55074  0.60812  1.0000
  H   H334      1.0  0.12680  0.33974  0.80044  1.0000
  H   H335      1.0  0.21345  0.62747  0.96840  1.0000
  H   H336      1.0  0.34924  0.66038  0.55484  1.0000
  H   H337      1.0  0.28868  0.57233  0.58730  1.0000
  H   H338      1.0  0.09958  0.39182  0.78879  1.0000
  H   H339      1.0  0.17561  0.56359  0.95328  1.0000
  H   H340      1.0  0.18393  0.57881  0.99397  1.0000
  H   H341      1.0  0.09540  0.33576  0.76874  1.0000
  H   H342      1.0  0.31147  0.58341  0.98736  1.0000
  C   C193      1.0  0.25539  0.58509  0.99373  1.0000
  C   C194      1.0  0.24295  0.55188  0.94511  1.0000
  Fe  Fe24      1.0  0.31308  0.34142  0.63100  1.0000
  H   H343      1.0  0.29268  0.63736  0.97462  1.0000
  H   H344      1.0  0.36944  0.39781  0.66368  1.0000
  H   H345      1.0  0.29194  0.54459  0.99504  1.0000
  H   H346      1.0  0.21668  0.55654  0.61309  1.0000
  H   H347      1.0  0.25111  0.55724  0.89143  1.0000
  C   C195      1.0  0.26140  0.57893  0.59027  1.0000
  H   H348      1.0  0.36954  0.38131  0.72161  1.0000
  C   C196      1.0  0.03324  0.34316  0.88617  1.0000
  H   H349      1.0  0.05513  0.35647  0.87722  1.0000
  H   H350      1.0  0.21776  0.51040  0.87382  1.0000
  C   C197      1.0  0.20527  0.64158  0.57579  1.0000
  C   C198      1.0  0.23999  0.64627  0.55772  1.0000
  C   C199      1.0  0.20908  0.44648  0.98802  1.0000
  H   H351      1.0  0.25778  0.65513  0.57703  1.0000
  H   H352      1.0  0.29379  0.38676  0.74932  1.0000
  H   H353      1.0  0.18627  0.62933  0.56020  1.0000
  H   H354      1.0  0.35794  0.34107  0.75348  1.0000
  H   H355      1.0  0.29824  0.65673  0.90112  1.0000
  H   H356      1.0  0.20852  0.36541  0.55244  1.0000
  C   C200      1.0  0.39221  0.33977  0.69461  1.0000
  C   C201      1.0  0.46861  0.43508  0.50906  1.0000
  H   H357      1.0  0.25924  0.65438  0.94984  1.0000
  H   H358      1.0  0.44469  0.34778  0.61740  1.0000
  H   H359      1.0  0.25572  0.34718  0.51670  1.0000
  H   H360      1.0  0.50031  0.51088  0.51269  1.0000
  H   H361      1.0  0.17847  0.34213  0.52889  1.0000
  S   S46       1.0  0.31233  0.69686  0.44507  1.0000
  C   C202      1.0  0.21770  0.71310  0.48511  1.0000
  H   H362      1.0  0.36853  0.78811  0.04603  1.0000
  H   H363      1.0  0.27953  0.87000  0.04830  1.0000
  C   C203      1.0  0.21440  0.87533  0.43251  1.0000
  C   C204      1.0  0.15090  0.96597  0.48817  1.0000
  C   C205      1.0  0.49206  0.96756  0.07650  1.0000
  C   C206      1.0  0.15546  0.78693  0.45446  1.0000
  C   C207      1.0  0.23516  0.84179  0.00666  1.0000
  H   H364      1.0  0.33697  0.76267  0.02717  1.0000
  C   C208      1.0  0.24321  0.89432  0.10091  1.0000
  H   H365      1.0  0.22086  0.90757  0.11108  1.0000
  H   H366      1.0  0.38103  0.93151  0.00085  1.0000
  S   S47       1.0  0.32210  0.99242  0.06088  1.0000
  H   H367      1.0  0.49766  0.94992  0.09658  1.0000
  C   C209      1.0  0.40561  0.99165  0.01386  1.0000
  H   H368      1.0  0.27821  0.87178  0.46066  1.0000
  H   H369      1.0  0.17172  0.76491  0.45494  1.0000
  C   C210      1.0  0.17094  0.98812  0.47006  1.0000
  H   H370      1.0  0.21319  0.73805  0.07193  1.0000
  H   H371      1.0  0.20979  0.85027  0.01541  1.0000
  H   H372      1.0  0.19713  0.76810  0.10073  1.0000
  C   C211      1.0  0.25674  0.69183  0.01525  1.0000
  N   N12       1.0  0.25434  0.82567  0.03456  1.0000
  C   C212      1.0  0.26230  0.85154  0.05975  1.0000
  H   H373      1.0  0.12893  0.70174  0.20907  1.0000
  H   H374      1.0  0.30992  0.70300  0.00766  1.0000
  C   C213      1.0  0.23208  0.79915  0.04875  1.0000
  C   C214      1.0  0.24645  0.77992  0.07842  1.0000
  H   H375      1.0  0.26135  0.67450  0.03488  1.0000
  C   C215      1.0  0.30978  0.97093  0.02494  1.0000
  C   C216      1.0  0.31819  0.80966  0.04380  1.0000
  S   S48       1.0  0.18770  0.67776  0.02307  1.0000
  C   C217      1.0  0.22036  0.75550  0.09162  1.0000
  C   C218      1.0  0.25686  0.85806  0.47230  1.0000
  H   H376      1.0  0.23349  0.94925  0.39364  1.0000
  H   H377      1.0  0.35442  0.79683  0.00464  1.0000
  H   H378      1.0  0.19644  0.93870  0.41789  1.0000
  C   C219      1.0  0.21668  0.92889  0.40132  1.0000
  H   H379      1.0  0.24344  0.87555  0.48874  1.0000
  H   H380      1.0  0.19209  0.70424  0.48164  1.0000
  H   H381      1.0  0.20662  0.80885  0.05579  1.0000
  C   C220      1.0  0.14081  0.68591  0.19001  1.0000
  H   H382      1.0  0.19759  0.86830  0.41169  1.0000
  H   H383      1.0  0.26899  0.76569  0.07037  1.0000
  H   H384      1.0  0.27701  0.84048  0.41461  1.0000
  H   H385      1.0  0.22696  0.78050  0.02961  1.0000
  H   H386      1.0  0.30931  0.74489  0.49658  1.0000
  H   H387      1.0  0.25711  0.89364  0.40190  1.0000
  H   H388      1.0  0.32908  0.83428  0.04716  1.0000
  H   H389      1.0  0.31155  0.80001  0.06860  1.0000
  H   H390      1.0  0.29026  0.81625  0.48094  1.0000
  H   H391      1.0  0.20477  0.91861  0.37883  1.0000
  H   H392      1.0  0.26098  0.91236  0.08977  1.0000
  C   C221      1.0  0.34617  0.78802  0.02943  1.0000
  C   C222      1.0  0.27779  0.71147  0.46976  1.0000
  H   H393      1.0  0.23142  0.74154  0.11250  1.0000
  C   C223      1.0  0.23153  0.87009  0.07478  1.0000
  C   C224      1.0  0.28698  0.81166  0.02043  1.0000
  H   H394      1.0  0.12348  0.96697  0.48622  1.0000
  H   H395      1.0  0.26360  0.66497  0.23606  1.0000
  C   C225      1.0  0.25159  0.82912  0.41844  1.0000
  C   C226      1.0  0.25687  0.79188  0.42178  1.0000
  C   C227      1.0  0.17528  0.81575  0.44038  1.0000
  C   C228      1.0  0.20607  0.82455  0.46242  1.0000
  C   C229      1.0  0.28165  0.77913  0.39553  1.0000
  H   H396      1.0  0.14635  0.79220  0.48003  1.0000
  H   H397      1.0  0.32776  0.92533  0.04422  1.0000
  H   H398      1.0  0.21809  0.88431  0.05554  1.0000
  H   H399      1.0  0.23827  0.83267  0.39445  1.0000
  H   H400      1.0  0.23243  0.77888  0.41855  1.0000
  N   N13       1.0  0.23257  0.84594  0.44629  1.0000
  H   H401      1.0  0.15748  0.83666  0.43914  1.0000
  H   H402      1.0  0.18349  0.80979  0.41476  1.0000
  H   H403      1.0  0.21731  0.80168  0.47186  1.0000
  H   H404      1.0  0.27651  0.84142  0.08100  1.0000
  C   C230      1.0  0.28423  0.70808  0.99978  1.0000
  H   H405      1.0  0.41608  0.88593  0.02315  1.0000
  H   H406      1.0  0.27231  0.78463  0.37024  1.0000
  H   H407      1.0  0.30724  0.79000  0.39879  1.0000
  C   C231      1.0  0.24456  0.70013  0.46585  1.0000
  H   H408      1.0  0.21332  0.85315  0.08684  1.0000
  H   H409      1.0  0.25605  0.88164  0.12166  1.0000
  C   C232      1.0  0.31579  0.93734  0.02350  1.0000
  H   H410      1.0  0.26682  0.78488  0.44621  1.0000
  H   H411      1.0  0.13304  0.78195  0.43876  1.0000
  H   H412      1.0  0.25338  0.79612  0.09913  1.0000
  C   C233      1.0  0.23752  0.90307  0.41933  1.0000
  H   H413      1.0  0.12453  0.99159  0.32643  1.0000
  H   H414      1.0  0.19573  0.83670  0.48484  1.0000
  C   C234      1.0  0.22140  0.96311  0.49366  1.0000
  H   H415      1.0  0.49004  0.99226  0.08723  1.0000
  H   H416      1.0  0.25043  0.91534  0.44021  1.0000
  C   C235      1.0  0.22340  0.69792  0.00511  1.0000
  H   H417      1.0  0.19730  0.88612  0.45182  1.0000
  H   H418      1.0  0.28412  0.75240  0.39815  1.0000
  H   H419      1.0  0.16396  0.69814  0.18015  1.0000
  H   H420      1.0  0.46714  0.96120  0.06552  1.0000
  H   H421      1.0  0.12274  0.68253  0.16929  1.0000
  H   H422      1.0  0.40554  0.96934  0.02924  1.0000
  C   C236      1.0  0.28371  0.73595  0.49324  1.0000
  H   H423      1.0  0.28225  0.78711  0.01019  1.0000
  C   C237      1.0  0.20636  0.98628  0.47253  1.0000
  H   H424      1.0  0.37540  0.87263  0.00823  1.0000
  H   H425      1.0  0.23948  0.68177  0.44750  1.0000
  C   C238      1.0  0.27337  0.83256  0.49524  1.0000
  H   H426      1.0  0.24878  0.96212  0.49575  1.0000
  H   H427      1.0  0.07960  0.99048  0.31778  1.0000
  H   H428      1.0  0.40909  0.67095  0.30774  1.0000
  C   C239      1.0  0.40036  0.88297  0.00064  1.0000
  H   H429      1.0  0.37998  0.99552  0.00335  1.0000
  H   H430      1.0  0.29604  0.82643  0.99901  1.0000
  H   H431      1.0  0.45728  0.98395  0.00035  1.0000
  Fe  Fe25      1.0  0.19265  0.87257  0.56600  1.0000
  S   S49       1.0  0.15393  0.84253  0.53957  1.0000
  S   S50       1.0  0.22104  0.91392  0.54005  1.0000
  Fe  Fe26      1.0  0.18614  0.83290  0.63110  1.0000
  S   S51       1.0  0.14739  0.79989  0.60776  1.0000
  S   S52       1.0  0.19025  0.82655  0.68785  1.0000
  Fe  Fe27      1.0  0.18151  0.79993  0.56230  1.0000
  S   S53       1.0  0.18841  0.75352  0.53151  1.0000
  Fe  Fe28      1.0  0.12315  0.84474  0.58672  1.0000
  S   S54       1.0  0.06803  0.86262  0.59149  1.0000
  S   S55       1.0  0.22198  0.82983  0.58686  1.0000
  S   S56       1.0  0.16044  0.87791  0.61181  1.0000
  Fe  Fe29      1.0  0.37650  0.84175  0.90075  1.0000
  S   S57       1.0  0.33938  0.87299  0.87337  1.0000
  S   S58       1.0  0.42962  0.86410  0.90326  1.0000
  Fe  Fe30      1.0  0.31957  0.79468  0.92164  1.0000
  S   S59       1.0  0.27862  0.82275  0.89515  1.0000
  S   S60       1.0  0.31459  0.74990  0.95518  1.0000
  Fe  Fe31      1.0  0.31642  0.82739  0.85296  1.0000
  S   S61       1.0  0.30910  0.82847  0.79627  1.0000
  Fe  Fe32      1.0  0.30445  0.86670  0.91684  1.0000
  S   S62       1.0  0.27677  0.91210  0.93392  1.0000
  S   S63       1.0  0.35623  0.79604  0.87786  1.0000
  S   S64       1.0  0.34276  0.83869  0.94580  1.0000
  C   C240      1.0  0.27881  0.73064  0.97410  1.0000
  H   H432      1.0  0.10752  0.73647  0.61918  1.0000
  H   H433      1.0  0.20449  0.82428  0.92751  1.0000
  H   H434      1.0  0.49622  0.94479  0.96464  1.0000
  C   C241      1.0  0.46843  0.84312  0.90957  1.0000
  C   C242      1.0  0.46976  0.80943  0.91314  1.0000
  H   H435      1.0  0.23742  0.66709  0.54020  1.0000
  H   H436      1.0  0.44651  0.79544  0.91269  1.0000
  H   H437      1.0  0.19233  0.72545  0.97145  1.0000
  C   C243      1.0  0.22391  0.82641  0.71738  1.0000
  C   C244      1.0  0.25795  0.83147  0.70841  1.0000
  C   C245      1.0  0.28351  0.83156  0.73284  1.0000
  C   C246      1.0  0.27555  0.82678  0.76663  1.0000
  C   C247      1.0  0.24149  0.82170  0.77562  1.0000
  C   C248      1.0  0.21593  0.82149  0.75116  1.0000
  H   H438      1.0  0.26462  0.83524  0.68262  1.0000
  H   H439      1.0  0.30972  0.83540  0.72546  1.0000
  H   H440      1.0  0.23485  0.81782  0.80139  1.0000
  H   H441      1.0  0.18974  0.81753  0.75848  1.0000
  H   H442      1.0  0.06862  0.71531  0.63014  1.0000
  H   H443      1.0  0.25373  0.81846  0.50879  1.0000
  H   H444      1.0  0.45568  0.95081  0.91476  1.0000
  C   C249      1.0  0.49367  0.96677  0.94899  1.0000
  C   C250      1.0  0.20907  0.83986  0.94941  1.0000
  C   C251      1.0  0.16589  0.94276  0.50917  1.0000
  H   H445      1.0  0.35623  0.67411  0.51286  1.0000
  C   C252      1.0  0.02777  0.84317  0.58836  1.0000
  C   C253      1.0  0.10741  0.79057  0.73724  1.0000
  H   H446      1.0  0.04630  0.79872  0.56713  1.0000
  C   C254      1.0  0.07932  0.73723  0.61789  1.0000
  C   C255      1.0  0.29068  0.93444  0.96874  1.0000
  H   H447      1.0  0.41307  0.86567  0.98346  1.0000
  H   H448      1.0  0.20896  0.98216  0.57207  1.0000
  H   H449      1.0  0.11969  0.76967  0.72469  1.0000
  C   C256      1.0  0.20122  0.94145  0.51233  1.0000
  H   H450      1.0  0.49810  0.88696  0.90777  1.0000
  C   C257      1.0  0.21799  0.72063  0.97958  1.0000
  H   H451      1.0  0.26203  0.76692  0.53121  1.0000
  C   C258      1.0  0.10502  0.88664  0.68167  1.0000
  C   C259      1.0  0.46216  0.80204  0.82081  1.0000
  C   C260      1.0  0.08138  0.86058  0.69571  1.0000
  H   H452      1.0  0.43954  0.91393  0.95313  1.0000
  H   H453      1.0  0.11377  0.82167  0.67727  1.0000
  H   H454      1.0  0.10184  0.90943  0.69591  1.0000
  H   H455      1.0  0.05803  0.81441  0.74071  1.0000
  H   H456      1.0  0.08707  0.85810  0.72243  1.0000
  C   C261      1.0  0.22354  0.73781  0.50836  1.0000
  C   C262      1.0  0.24548  0.73686  0.96412  1.0000
  H   H457      1.0  0.16627  0.67011  0.60067  1.0000
  H   H458      1.0  0.31609  0.86312  0.50959  1.0000
  C   C263      1.0  0.07579  0.76976  0.67121  1.0000
  H   H459      1.0  0.08067  0.83292  0.65078  1.0000
  H   H460      1.0  0.33534  0.94945  0.91331  1.0000
  C   C264      1.0  0.02415  0.81178  0.57589  1.0000
  H   H461      1.0  0.37821  0.91126  0.96191  1.0000
  H   H462      1.0  0.30698  0.82996  0.53751  1.0000
  N   N14       1.0  0.26390  0.93172  0.79415  1.0000
  C   C265      1.0  0.23442  0.93815  0.77125  1.0000
  C   C266      1.0  0.27494  0.96267  0.81103  1.0000
  C   C267      1.0  0.29321  0.91984  0.77288  1.0000
  C   C268      1.0  0.25576  0.90580  0.81948  1.0000
  C   C269      1.0  0.22408  0.91171  0.84169  1.0000
  C   C270      1.0  0.22066  0.90834  0.75221  1.0000
  C   C271      1.0  0.32799  0.91607  0.79039  1.0000
  C   C272      1.0  0.02795  0.80778  0.68341  1.0000
  C   C273      1.0  0.10948  0.78472  0.77456  1.0000
  C   C274      1.0  0.21573  0.88192  0.86272  1.0000
  C   C275      1.0  0.19015  0.91745  0.73092  1.0000
  C   C276      1.0  0.35554  0.90478  0.76609  1.0000
  H   H463      1.0  0.24178  0.95689  0.75256  1.0000
  H   H464      1.0  0.21236  0.94861  0.78472  1.0000
  H   H465      1.0  0.28926  0.95684  0.83404  1.0000
  H   H466      1.0  0.13196  0.87877  0.68337  1.0000
  H   H467      1.0  0.29716  0.93632  0.75124  1.0000
  H   H468      1.0  0.28750  0.89559  0.76241  1.0000
  H   H469      1.0  0.25302  0.88184  0.80729  1.0000
  H   H470      1.0  0.27736  0.90244  0.83675  1.0000
  H   H471      1.0  0.20120  0.91735  0.82696  1.0000
  H   H472      1.0  0.22919  0.93172  0.85924  1.0000
  H   H473      1.0  0.24022  0.89815  0.73525  1.0000
  H   H474      1.0  0.21217  0.88913  0.76967  1.0000
  H   H475      1.0  0.32619  0.89761  0.81016  1.0000
  H   H476      1.0  0.33672  0.93914  0.80148  1.0000
  H   H477      1.0  0.45535  0.99344  0.92190  1.0000
  C   C277      1.0  0.19021  0.67412  0.58645  1.0000
  H   H478      1.0  0.40738  0.96559  0.88879  1.0000
  C   C278      1.0  0.39000  0.95568  0.90815  1.0000
  C   C279      1.0  0.28433  0.96795  0.97028  1.0000
  H   H479      1.0  0.23683  0.87700  0.88003  1.0000
  H   H480      1.0  0.19238  0.88648  0.87768  1.0000
  H   H481      1.0  0.21144  0.86035  0.84690  1.0000
  H   H482      1.0  0.16886  0.92657  0.74658  1.0000
  H   H483      1.0  0.19736  0.93617  0.71231  1.0000
  H   H484      1.0  0.18127  0.89564  0.71747  1.0000
  H   H485      1.0  0.34851  0.88107  0.75509  1.0000
  H   H486      1.0  0.35932  0.92288  0.74598  1.0000
  H   H487      1.0  0.37991  0.90160  0.77942  1.0000
  H   H488      1.0  0.37301  0.96869  0.95756  1.0000
  H   H489      1.0  0.06589  0.74762  0.68383  1.0000
  H   H490      1.0  0.13654  0.78198  0.78178  1.0000
  C   C280      1.0  0.29538  0.84879  0.52144  1.0000
  H   H491      1.0  0.24090  0.75373  0.94409  1.0000
  H   H492      1.0  0.07539  0.78903  0.62030  1.0000
  C   C281      1.0  0.06990  0.79450  0.72608  1.0000
  H   H493      1.0  0.45528  0.78098  0.80518  1.0000
  H   H494      1.0  0.29314  0.97636  0.79490  1.0000
  H   H495      1.0  0.27167  0.97988  0.94992  1.0000
  H   H496      1.0  0.27971  0.86501  0.53735  1.0000
  H   H497      1.0  0.31525  0.67806  0.93604  1.0000
  C   C282      1.0  0.49891  0.86092  0.91040  1.0000
  C   C283      1.0  0.25686  0.74880  0.51265  1.0000
  C   C284      1.0  0.42915  0.93080  0.97221  1.0000
  H   H498      1.0  0.18412  0.84836  0.95915  1.0000
  N   N15       1.0  0.06489  0.79998  0.68950  1.0000
  H   H499      1.0  0.39498  0.92932  0.91051  1.0000
  H   H500      1.0  0.25200  0.81142  0.96451  1.0000
  H   H501      1.0  0.05502  0.86973  0.69304  1.0000
  H   H502      1.0  0.00929  0.75700  0.68141  1.0000
  H   H503      1.0  0.15002  0.92625  0.52333  1.0000
  H   H504      1.0  0.09878  0.89169  0.65535  1.0000
  H   H505      1.0  0.18422  0.68913  0.56436  1.0000
  H   H506      1.0  0.09849  0.80556  0.78835  1.0000
  H   H507      1.0  0.05627  0.77218  0.73422  1.0000
  C   C285      1.0  0.35377  0.96049  0.89571  1.0000
  C   C286      1.0  0.06544  0.76792  0.63427  1.0000
  N   N16       1.0  0.42826  0.96524  0.95917  1.0000
  H   H508      1.0  0.45627  0.82488  0.80740  1.0000
  C   C287      1.0  0.24691  0.98783  0.81992  1.0000
  H   H509      1.0  0.12262  0.81257  0.73159  1.0000
  C   C288      1.0  0.08623  0.82796  0.67714  1.0000
  H   H510      1.0  0.44628  0.80128  0.84371  1.0000
  H   H511      1.0  0.03741  0.76747  0.63153  1.0000
  C   C289      1.0  0.39559  0.97340  0.94154  1.0000
  H   H512      1.0  0.09568  0.76221  0.78162  1.0000
  H   H513      1.0  0.22429  0.86115  0.94133  1.0000
  H   H514      1.0  0.35087  0.94853  0.87130  1.0000
  H   H515      1.0  0.07195  0.73698  0.59138  1.0000
  H   H516      1.0  0.10398  0.76724  0.67175  1.0000
  C   C290      1.0  0.22804  0.82052  0.97581  1.0000
  C   C291      1.0  0.39488  0.91561  0.98349  1.0000
  H   H517      1.0  0.22435  0.97672  0.83184  1.0000
  H   H518      1.0  0.02410  0.81520  0.65711  1.0000
  H   H519      1.0  0.00066  0.77751  0.71977  1.0000
  C   C292      1.0  0.45726  0.96946  0.93462  1.0000
  C   C293      1.0  0.00218  0.78062  0.69246  1.0000
  H   H520      1.0  0.20827  0.68757  0.60235  1.0000
  H   H521      1.0  0.01989  0.82919  0.69814  1.0000
  C   C294      1.0  0.43356  0.98944  0.98669  1.0000
  H   H522      1.0  0.21179  0.79947  0.98229  1.0000
  H   H523      1.0  0.00087  0.88437  0.60833  1.0000
  H   H524      1.0  0.34786  0.98669  0.89291  1.0000
  H   H525      1.0  0.29475  0.67207  0.52692  1.0000
  H   H526      1.0  0.31167  0.89349  0.99455  1.0000
  H   H527      1.0  0.44712  0.92893  0.99330  1.0000
  H   H528      1.0  0.24914  0.86382  0.99789  1.0000
  C   C295      1.0  0.30676  0.91925  0.99537  1.0000
  H   H529      1.0  0.49957  0.98842  0.96416  1.0000
  C   C296      1.0  0.49978  0.80081  0.82997  1.0000
  C   C297      1.0  0.29424  0.98622  0.99805  1.0000
  Fe  Fe33      1.0  0.87474  0.09728  0.39334  1.0000
  S   S65       1.0  0.83754  0.06073  0.37341  1.0000
  S   S66       1.0  0.93025  0.08289  0.38221  1.0000
  Fe  Fe34      1.0  0.81753  0.13161  0.43271  1.0000
  S   S67       1.0  0.77796  0.09574  0.41648  1.0000
  S   S68       1.0  0.80916  0.17811  0.46323  1.0000
  Fe  Fe35      1.0  0.81764  0.05730  0.42566  1.0000
  H   H530      1.0  0.68752  0.17491  0.37448  1.0000
  Fe  Fe36      1.0  0.80081  0.10163  0.36514  1.0000
  S   S69       1.0  0.75903  0.10582  0.32538  1.0000
  S   S70       1.0  0.85572  0.09257  0.44585  1.0000
  S   S71       1.0  0.83937  0.13899  0.38103  1.0000
  Fe  Fe37      1.0  0.69737  0.10984  0.12797  1.0000
  S   S72       1.0  0.65386  0.14097  0.10988  1.0000
  S   S73       1.0  0.73583  0.12347  0.16871  1.0000
  Fe  Fe38      1.0  0.69144  0.06508  0.06646  1.0000
  S   S74       1.0  0.64897  0.09389  0.04395  1.0000
  S   S75       1.0  0.71446  0.01810  0.04718  1.0000
  Fe  Fe39      1.0  0.67922  0.13803  0.05936  1.0000
  S   S76       1.0  0.68472  0.18504  0.02901  1.0000
  Fe  Fe40      1.0  0.62699  0.09457  0.09571  1.0000
  S   S77       1.0  0.57310  0.07513  0.10673  1.0000
  S   S78       1.0  0.72322  0.10891  0.07778  1.0000
  S   S79       1.0  0.66881  0.06373  0.11777  1.0000
  H   H531      1.0  0.68286  0.22774  0.41930  1.0000
  H   H532      1.0  0.82017  0.22351  0.19792  1.0000
  H   H533      1.0  0.90547  0.03624  0.43306  1.0000
  H   H534      1.0  0.71075  0.18556  0.43518  1.0000
  H   H535      1.0  0.88614  0.00412  0.45470  1.0000
  C   C298      1.0  0.53238  0.08794  0.09268  1.0000
  C   C299      1.0  0.52756  0.11729  0.07598  1.0000
  H   H536      1.0  0.70604  0.16232  0.31574  1.0000
  H   H537      1.0  0.54918  0.13273  0.07066  1.0000
  C   C300      1.0  0.81202  0.29062  0.05470  1.0000
  H   H538      1.0  0.82695  0.18012  0.10953  1.0000
  H   H539      1.0  0.53578  0.03282  0.03318  1.0000
  H   H540      1.0  0.92567  0.06664  0.47915  1.0000
  H   H541      1.0  0.96998  0.12458  0.31422  1.0000
  C   C301      1.0  0.58810  0.01467  0.03214  1.0000
  H   H542      1.0  0.87685  0.99959  0.38595  1.0000
  H   H543      1.0  0.68731  0.22990  0.36035  1.0000
  H   H544      1.0  0.70249  0.18014  0.25858  1.0000
  C   C302      1.0  0.92645  0.04368  0.49385  1.0000
  C   C303      1.0  0.75412  0.10825  0.28133  1.0000
  C   C304      1.0  0.78072  0.11706  0.25982  1.0000
  C   C305      1.0  0.77466  0.12118  0.22553  1.0000
  C   C306      1.0  0.74219  0.11586  0.21197  1.0000
  C   C307      1.0  0.71576  0.10650  0.23339  1.0000
  C   C308      1.0  0.72164  0.10306  0.26777  1.0000
  H   H545      1.0  0.80579  0.12134  0.26968  1.0000
  H   H546      1.0  0.79536  0.12846  0.20934  1.0000
  H   H547      1.0  0.69061  0.10249  0.22357  1.0000
  H   H548      1.0  0.70078  0.09636  0.28403  1.0000
  H   H549      1.0  0.55157  0.14997  0.18819  1.0000
  H   H550      1.0  0.74676  0.17764  0.26912  1.0000
  H   H551      1.0  0.80789  0.28212  0.02895  1.0000
  C   C309      1.0  0.56612  0.06610  0.00530  1.0000
  C   C310      1.0  0.97066  0.10173  0.38707  1.0000
  H   H552      1.0  0.53820  0.11666  0.16276  1.0000
  C   C311      1.0  0.97428  0.13494  0.39288  1.0000
  C   C312      1.0  0.72157  0.20230  0.00989  1.0000
  H   H553      1.0  0.95189  0.15002  0.39532  1.0000
  C   C313      1.0  0.76688  0.20651  0.38809  1.0000
  C   C314      1.0  0.70245  0.24423  0.40874  1.0000
  C   C315      1.0  0.79031  0.23486  0.37701  1.0000
  C   C316      1.0  0.68694  0.27822  0.40871  1.0000
  C   C317      1.0  0.82166  0.23721  0.39897  1.0000
  H   H554      1.0  0.78176  0.18365  0.38557  1.0000
  H   H555      1.0  0.76268  0.20917  0.41510  1.0000
  H   H556      1.0  0.76289  0.18044  0.33039  1.0000
  H   H557      1.0  0.75261  0.22181  0.32275  1.0000
  H   H558      1.0  0.72409  0.25409  0.36004  1.0000
  H   H559      1.0  0.72467  0.24494  0.42538  1.0000
  H   H560      1.0  0.79958  0.23121  0.35125  1.0000
  H   H561      1.0  0.77680  0.25840  0.37857  1.0000
  H   H562      1.0  0.67951  0.28497  0.43442  1.0000
  H   H563      1.0  0.70573  0.29628  0.39946  1.0000
  H   H564      1.0  0.81408  0.24261  0.42494  1.0000
  H   H565      1.0  0.83627  0.21415  0.39847  1.0000
  H   H566      1.0  0.83849  0.25700  0.38991  1.0000
  H   H567      1.0  0.53030  0.11580  0.20702  1.0000
  C   C318      1.0  0.78633  0.27489  0.07842  1.0000
  C   C319      1.0  0.50384  0.06826  0.09936  1.0000
  H   H568      1.0  0.61103  0.01858  0.01623  1.0000
  H   H569      1.0  0.75310  0.15981  0.01348  1.0000
  H   H570      1.0  0.80009  0.12434  0.11651  1.0000
  H   H571      1.0  0.87090  0.03614  0.49488  1.0000
  C   C320      1.0  0.78925  0.23737  0.07776  1.0000
  H   H572      1.0  0.97985  0.00538  0.43928  1.0000
  H   H573      1.0  0.66390  0.27902  0.39300  1.0000
  H   H574      1.0  0.66555  0.14480  0.42370  1.0000
  C   C321      1.0  0.71268  0.18806  0.31077  1.0000
  S   S80       1.0  0.81098  0.00410  0.44063  1.0000
  N   N17       1.0  0.73372  0.20329  0.36982  1.0000
  C   C322      1.0  0.75175  0.18480  0.00536  1.0000
  C   C323      1.0  0.77351  0.19399  0.48560  1.0000
  H   H575      1.0  0.57332  0.08053  0.02735  1.0000
  C   C324      1.0  0.55743  0.03133  0.01541  1.0000
  H   H576      1.0  0.50891  0.30005  0.48341  1.0000
  C   C325      1.0  0.79350  0.21472  0.19919  1.0000
  C   C326      1.0  0.69229  0.13729  0.42793  1.0000
  H   H577      1.0  0.81688  0.23164  0.07869  1.0000
  C   C327      1.0  0.98498  0.11955  0.29132  1.0000
  H   H578      1.0  0.69512  0.13089  0.45451  1.0000
  C   C328      1.0  0.72269  0.19088  0.27416  1.0000
  H   H579      1.0  0.69809  0.11542  0.41287  1.0000
  H   H580      1.0  0.50725  0.04560  0.11244  1.0000
  H   H581      1.0  0.72604  0.21668  0.26697  1.0000
  C   C329      1.0  0.53131  0.13159  0.18470  1.0000
  H   H582      1.0  0.64026  0.01122  0.07743  1.0000
  H   H583      1.0  0.97067  0.10175  0.27629  1.0000
  H   H584      1.0  0.74275  0.15662  0.42507  1.0000
  C   C330      1.0  0.71479  0.17341  0.38156  1.0000
  H   H585      1.0  0.72504  0.15147  0.36886  1.0000
  H   H586      1.0  0.96673  0.04659  0.43868  1.0000
  H   H587      1.0  0.59247  0.02900  0.05498  1.0000
  H   H588      1.0  0.83724  0.12512  0.09003  1.0000
  N   N18       1.0  0.77013  0.21917  0.10468  1.0000
  C   C331      1.0  0.77247  0.18350  0.09668  1.0000
  C   C332      1.0  0.73337  0.22965  0.10303  1.0000
  C   C333      1.0  0.80910  0.17038  0.09093  1.0000
  C   C334      1.0  0.78537  0.22741  0.13791  1.0000
  C   C335      1.0  0.78262  0.20126  0.16569  1.0000
  C   C336      1.0  0.81047  0.13341  0.09249  1.0000
  H   H589      1.0  0.74712  0.14870  0.49154  1.0000
  C   C337      1.0  0.70840  0.21378  0.12802  1.0000
  C   C338      1.0  0.67178  0.22398  0.12086  1.0000
  H   H590      1.0  0.79185  0.19523  0.21821  1.0000
  H   H591      1.0  0.78062  0.22939  0.05290  1.0000
  H   H592      1.0  0.75771  0.17802  0.07397  1.0000
  H   H593      1.0  0.76014  0.16849  0.11616  1.0000
  H   H594      1.0  0.73091  0.25607  0.10763  1.0000
  H   H595      1.0  0.72346  0.22548  0.07760  1.0000
  C   C339      1.0  0.74232  0.19892  0.33347  1.0000
  H   H596      1.0  0.79083  0.28448  0.10365  1.0000
  H   H597      1.0  0.81305  0.23270  0.13523  1.0000
  H   H598      1.0  0.77395  0.25025  0.14756  1.0000
  H   H599      1.0  0.79934  0.18027  0.16003  1.0000
  H   H600      1.0  0.75655  0.19176  0.16868  1.0000
  H   H601      1.0  0.77645  0.23484  0.20692  1.0000
  H   H602      1.0  0.83847  0.28475  0.06208  1.0000
  H   H603      1.0  0.81843  0.17777  0.06594  1.0000
  H   H604      1.0  0.76069  0.28262  0.07014  1.0000
  H   H605      1.0  0.70953  0.18700  0.12705  1.0000
  H   H606      1.0  0.71406  0.22206  0.15349  1.0000
  H   H607      1.0  0.65433  0.21265  0.13932  1.0000
  H   H608      1.0  0.66898  0.25072  0.12244  1.0000
  H   H609      1.0  0.66418  0.21587  0.09576  1.0000
  H   H610      1.0  0.68950  0.20285  0.31462  1.0000
  H   H611      1.0  0.79577  0.12282  0.07183  1.0000
  N   N19       1.0  0.93697  0.01593  0.47167  1.0000
  C   C340      1.0  0.71193  0.23330  0.37314  1.0000
  C   C341      1.0  0.71668  0.16483  0.41896  1.0000
  H   H612      1.0  0.80884  0.31737  0.05507  1.0000
  C   C342      1.0  0.97039  0.02532  0.45542  1.0000
  H   H613      1.0  0.93886  0.00199  0.39857  1.0000
  H   H614      1.0  0.69716  0.24848  0.00213  1.0000
  C   C343      1.0  0.91101  0.01226  0.44460  1.0000
  H   H615      1.0  0.99568  0.05803  0.49038  1.0000
  H   H616      1.0  0.99773  0.05692  0.37911  1.0000
  H   H617      1.0  0.79331  0.24272  0.48497  1.0000
  C   C344      1.0  0.99989  0.03373  0.47930  1.0000
  C   C345      1.0  0.74673  0.17439  0.49679  1.0000
  C   C346      1.0  0.00018  0.08261  0.38376  1.0000
  H   H618      1.0  0.98781  0.14256  0.27723  1.0000
  C   C347      1.0  0.77268  0.22729  0.49324  1.0000
  H   H619      1.0  0.50055  0.16479  0.15764  1.0000
  Fe  Fe41      1.0  0.67605  0.28719  0.56995  1.0000
  S   S81       1.0  0.68433  0.23666  0.54734  1.0000
  S   S82       1.0  0.65888  0.29232  0.62345  1.0000
  S   S83       1.0  0.84307  0.29072  0.87786  1.0000
  Fe  Fe42      1.0  0.82304  0.29596  0.93037  1.0000
  S   S84       1.0  0.81649  0.24989  0.96189  1.0000
  C   C348      1.0  0.50787  0.30397  0.51061  1.0000
  H   H620      1.0  0.86159  0.16578  0.54343  1.0000
  H   H621      1.0  0.69914  0.17244  0.52393  1.0000
  H   H622      1.0  0.99334  0.23879  0.86916  1.0000
  H   H623      1.0  0.68795  0.29024  0.85273  1.0000
  H   H624      1.0  0.50989  0.32761  0.74304  1.0000
  H   H625      1.0  0.83583  0.21074  0.88439  1.0000
  H   H626      1.0  0.80789  0.17745  0.87482  1.0000
  H   H627      1.0  0.80911  0.19368  0.91639  1.0000
  H   H628      1.0  0.85835  0.06777  0.54447  1.0000
  H   H629      1.0  0.74497  0.26656  0.51683  1.0000
  H   H630      1.0  0.82058  0.27023  0.71581  1.0000
  H   H631      1.0  0.70751  0.25345  0.77629  1.0000
  H   H632      1.0  0.54807  0.28223  0.59277  1.0000
  H   H633      1.0  0.64345  0.17118  0.92598  1.0000
  C   C349      1.0  0.81127  0.00077  0.50944  1.0000
  H   H634      1.0  0.80365  0.18598  0.98734  1.0000
  H   H635      1.0  0.80595  0.02650  0.50937  1.0000
  H   H636      1.0  0.69355  0.31972  0.72152  1.0000
  H   H637      1.0  0.83693  0.21976  0.54711  1.0000
  C   C350      1.0  0.71957  0.18794  0.51526  1.0000
  H   H638      1.0  0.54359  0.07777  0.99389  1.0000
  H   H639      1.0  0.64674  0.99784  0.94705  1.0000
  C   C351      1.0  0.83680  0.16880  0.55648  1.0000
  H   H640      1.0  0.83164  0.26545  0.57512  1.0000
  H   H641      1.0  0.74758  0.27449  0.97551  1.0000
  H   H642      1.0  0.95383  0.29624  0.91872  1.0000
  H   H643      1.0  0.83562  0.15134  0.57746  1.0000
  C   C352      1.0  0.97576  0.30950  0.90967  1.0000
  C   C353      1.0  0.89200  0.04020  0.51234  1.0000
  C   C354      1.0  0.64491  0.19632  0.93563  1.0000
  N   N20       1.0  0.79376  0.24030  0.60502  1.0000
  C   C355      1.0  0.75636  0.24384  0.61315  1.0000
  H   H644      1.0  0.78930  0.26876  0.56028  1.0000
  C   C356      1.0  0.79787  0.20956  0.58498  1.0000
  C   C357      1.0  0.81563  0.23796  0.63562  1.0000
  C   C358      1.0  0.80334  0.25694  0.66682  1.0000
  C   C359      1.0  0.73972  0.21371  0.62988  1.0000
  C   C360      1.0  0.83335  0.20362  0.56897  1.0000
  H   H645      1.0  0.94549  0.04751  0.51363  1.0000
  C   C361      1.0  0.71878  0.32271  0.73152  1.0000
  C   C362      1.0  0.83056  0.25736  0.69360  1.0000
  C   C363      1.0  0.70503  0.22161  0.64502  1.0000
  H   H646      1.0  0.77824  0.30769  0.60993  1.0000
  H   H647      1.0  0.74176  0.24888  0.59018  1.0000
  H   H648      1.0  0.75135  0.26529  0.62898  1.0000
  H   H649      1.0  0.81622  0.16312  0.53872  1.0000
  H   H650      1.0  0.79203  0.32797  0.55287  1.0000
  H   H651      1.0  0.77896  0.20889  0.56458  1.0000
  H   H652      1.0  0.79226  0.18794  0.60065  1.0000
  H   H653      1.0  0.81820  0.21228  0.64384  1.0000
  H   H654      1.0  0.84207  0.24586  0.62964  1.0000
  H   H655      1.0  0.78034  0.24547  0.67780  1.0000
  H   H656      1.0  0.79663  0.28236  0.66122  1.0000
  H   H657      1.0  0.73562  0.19447  0.61111  1.0000
  H   H658      1.0  0.75612  0.20359  0.64958  1.0000
  H   H659      1.0  0.85401  0.20821  0.58691  1.0000
  C   C364      1.0  0.88351  0.07077  0.53210  1.0000
  C   C365      1.0  0.75670  0.32364  0.77990  1.0000
  C   C366      1.0  0.69383  0.23060  0.78217  1.0000
  H   H660      1.0  0.64175  0.19535  0.96302  1.0000
  H   H661      1.0  0.83687  0.32566  0.56250  1.0000
  H   H662      1.0  0.62380  0.21099  0.92528  1.0000
  H   H663      1.0  0.83754  0.23229  0.70098  1.0000
  H   H664      1.0  0.85358  0.27039  0.68460  1.0000
  H   H665      1.0  0.69493  0.20003  0.65832  1.0000
  H   H666      1.0  0.70692  0.24196  0.66289  1.0000
  H   H667      1.0  0.68692  0.22799  0.62510  1.0000
  C   C367      1.0  0.74885  0.24947  0.98351  1.0000
  C   C368      1.0  0.67614  0.00734  0.99086  1.0000
  C   C369      1.0  0.69179  0.31994  0.89558  1.0000
  N   N21       1.0  0.71706  0.22983  0.87704  1.0000
  C   C370      1.0  0.68516  0.21281  0.88888  1.0000
  C   C371      1.0  0.72001  0.22875  0.83951  1.0000
  C   C372      1.0  0.74700  0.21156  0.89109  1.0000
  C   C373      1.0  0.71878  0.26434  0.88918  1.0000
  C   C374      1.0  0.68849  0.28644  0.87992  1.0000
  C   C375      1.0  0.67929  0.21152  0.92697  1.0000
  C   C376      1.0  0.78266  0.22422  0.88058  1.0000
  H   H668      1.0  0.90294  0.07503  0.55141  1.0000
  C   C377      1.0  0.72034  0.23467  0.99877  1.0000
  H   H669      1.0  0.69438  0.31802  0.92290  1.0000
  C   C378      1.0  0.72413  0.31972  0.76607  1.0000
  C   C379      1.0  0.81047  0.19993  0.88962  1.0000
  C   C380      1.0  0.71873  0.22122  0.52292  1.0000
  H   H670      1.0  0.66211  0.22414  0.87826  1.0000
  H   H671      1.0  0.73550  0.24956  0.83015  1.0000
  C   C381      1.0  0.68654  0.22806  0.81937  1.0000
  H   H672      1.0  0.74530  0.18540  0.88443  1.0000
  H   H673      1.0  0.74687  0.21244  0.91860  1.0000
  H   H674      1.0  0.72213  0.26499  0.91650  1.0000
  H   H675      1.0  0.74189  0.27653  0.87908  1.0000
  H   H676      1.0  0.66395  0.27611  0.88853  1.0000
  H   H677      1.0  0.66954  0.23053  0.76834  1.0000
  H   H678      1.0  0.69891  0.19644  0.93920  1.0000
  H   H679      1.0  0.67958  0.23614  0.93786  1.0000
  H   H680      1.0  0.78791  0.24714  0.89384  1.0000
  H   H681      1.0  0.78478  0.22908  0.85362  1.0000
  S   S85       1.0  0.76173  0.31832  0.82379  1.0000
  H   H682      1.0  0.66918  0.24808  0.82628  1.0000
  C   C382      1.0  0.80345  0.30245  0.59896  1.0000
  H   H683      1.0  0.82311  0.30460  0.61839  1.0000
  C   C383      1.0  0.80476  0.26833  0.58328  1.0000
  H   H684      1.0  0.88225  0.09229  0.51556  1.0000
  H   H685      1.0  0.67296  0.20479  0.82369  1.0000
  H   H686      1.0  0.70953  0.20978  0.77366  1.0000
  C   C384      1.0  0.78036  0.19968  0.99036  1.0000
  C   C385      1.0  0.77915  0.23208  0.97935  1.0000
  H   H687      1.0  0.54949  0.01839  0.99277  1.0000
  C   C386      1.0  0.52917  0.32691  0.61316  1.0000
  C   C387      1.0  0.74536  0.24089  0.51148  1.0000
  C   C388      1.0  0.52568  0.29661  0.59819  1.0000
  H   H688      1.0  0.58747  0.06646  0.98709  1.0000
  Fe  Fe43      1.0  0.80260  0.32703  0.86391  1.0000
  H   H689      1.0  0.68517  0.18733  0.87975  1.0000
  H   H690      1.0  0.73417  0.20668  0.83138  1.0000
  H   H691      1.0  0.70275  0.31452  0.78225  1.0000
  S   S86       1.0  0.71673  0.32470  0.57432  1.0000
  H   H692      1.0  0.52807  0.28934  0.52264  1.0000
  H   H693      1.0  0.89314  0.02001  0.53047  1.0000
  S   S87       1.0  0.63701  0.32283  0.55118  1.0000
  C   C389      1.0  0.74601  0.32977  0.71007  1.0000
  C   C390      1.0  0.81094  0.32875  0.57315  1.0000
  H   H694      1.0  0.66931  0.03271  0.99198  1.0000
  H   H695      1.0  0.81431  0.00075  0.81606  1.0000
  Fe  Fe44      1.0  0.66351  0.57277  0.43185  1.0000
  S   S88       1.0  0.65046  0.62467  0.44361  1.0000
  S   S89       1.0  0.64989  0.54118  0.47699  1.0000
  Fe  Fe45      1.0  0.68774  0.59173  0.36066  1.0000
  S   S90       1.0  0.71465  0.57031  0.31460  1.0000
  Fe  Fe46      1.0  0.69940  0.63868  0.41861  1.0000
  Fe  Fe47      1.0  0.62677  0.62573  0.39307  1.0000
  H   H696      1.0  0.83056  0.61429  0.25315  1.0000
  S   S91       1.0  0.71427  0.58665  0.40989  1.0000
  S   S92       1.0  0.63761  0.57339  0.38214  1.0000
  Fe  Fe48      1.0  0.81118  0.60867  0.13379  1.0000
  S   S93       1.0  0.77906  0.62650  0.17871  1.0000
  Fe  Fe49      1.0  0.83770  0.55776  0.08339  1.0000
  S   S94       1.0  0.86118  0.59551  0.05036  1.0000
  S   S95       1.0  0.84864  0.50418  0.07216  1.0000
  Fe  Fe50      1.0  0.88062  0.61789  0.09731  1.0000
  H   H697      1.0  0.70128  0.43351  0.45693  1.0000
  C   C391      1.0  0.95375  0.58537  0.02375  1.0000
  S   S96       1.0  0.85948  0.57882  0.13063  1.0000
  S   S97       1.0  0.78797  0.58481  0.08893  1.0000
  C   C392      1.0  0.97957  0.60201  0.12936  1.0000
  C   C393      1.0  0.97473  0.62605  0.10534  1.0000
  C   C394      1.0  0.61962  0.40817  0.44214  1.0000
  H   H698      1.0  0.95752  0.49001  0.10808  1.0000
  C   C395      1.0  0.73236  0.58667  0.27701  1.0000
  C   C396      1.0  0.72644  0.61858  0.26658  1.0000
  C   C397      1.0  0.74127  0.63031  0.23678  1.0000
  C   C398      1.0  0.76166  0.61024  0.21647  1.0000
  C   C399      1.0  0.76739  0.57830  0.22680  1.0000
  C   C400      1.0  0.75292  0.56670  0.25682  1.0000
  H   H699      1.0  0.71015  0.63411  0.28126  1.0000
  H   H700      1.0  0.95985  0.43964  0.00664  1.0000
  H   H701      1.0  0.78769  0.63884  0.29144  1.0000
  C   C401      1.0  0.53481  0.63126  0.38768  1.0000
  H   H702      1.0  0.73464  0.63735  0.06847  1.0000
  H   H703      1.0  0.55296  0.58712  0.36559  1.0000
  H   H704      1.0  0.92172  0.48702  0.01990  1.0000
  C   C402      1.0  0.83587  0.48105  0.03717  1.0000
  H   H705      1.0  0.58665  0.63651  0.49005  1.0000
  H   H706      1.0  0.92005  0.42812  0.02578  1.0000
  C   C403      1.0  0.84782  0.63461  0.25955  1.0000
  H   H707      1.0  0.57773  0.48159  0.40758  1.0000
  C   C404      1.0  0.94453  0.44083  0.02983  1.0000
  H   H708      1.0  0.77276  0.51684  0.47536  1.0000
  C   C405      1.0  0.92636  0.51932  0.13938  1.0000
  C   C406      1.0  0.66166  0.50080  0.48728  1.0000
  C   C407      1.0  0.97159  0.49489  0.04315  1.0000
  H   H709      1.0  0.91804  0.52938  0.07432  1.0000
  H   H710      1.0  0.79500  0.59816  0.32708  1.0000
  H   H711      1.0  0.61965  0.43458  0.44741  1.0000
  C   C408      1.0  0.58824  0.39574  0.49618  1.0000
  Fe  Fe51      1.0  0.81327  0.62446  0.05876  1.0000
  H   H712      1.0  0.54559  0.49553  0.45893  1.0000
  C   C409      1.0  0.93771  0.47603  0.03939  1.0000
  C   C410      1.0  0.94475  0.53526  0.08096  1.0000
  H   H713      1.0  0.58999  0.51327  0.37910  1.0000
  H   H714      1.0  0.84838  0.40550  0.00363  1.0000
  H   H715      1.0  0.78072  0.57545  0.48055  1.0000
  H   H716      1.0  0.79316  0.58822  0.40265  1.0000
  H   H717      1.0  0.95782  0.59218  0.14246  1.0000
  H   H718      1.0  0.75987  0.60807  0.35399  1.0000
  S   S98       1.0  0.67505  0.64427  0.36851  1.0000
  C   C411      1.0  0.58856  0.39188  0.45788  1.0000
  H   H719      1.0  0.68442  0.60109  0.06995  1.0000
  H   H720      1.0  0.58318  0.58054  0.47086  1.0000
  C   C412      1.0  0.84774  0.44900  0.03370  1.0000
  H   H721      1.0  0.90173  0.50998  0.13004  1.0000
  H   H722      1.0  0.78700  0.55766  0.37144  1.0000
  H   H723      1.0  0.57534  0.52630  0.46886  1.0000
  S   S99       1.0  0.83418  0.64959  0.10339  1.0000
  C   C413      1.0  0.56079  0.59044  0.48436  1.0000
  C   C414      1.0  0.95412  0.51621  0.11289  1.0000
  H   H724      1.0  0.58989  0.36583  0.45112  1.0000
  H   H725      1.0  0.86369  0.43873  0.05273  1.0000
  H   H726      1.0  0.53895  0.43454  0.49480  1.0000
  C   C415      1.0  0.75032  0.53211  0.48147  1.0000
  C   C416      1.0  0.58536  0.50744  0.40564  1.0000
  C   C417      1.0  0.53094  0.60000  0.37497  1.0000
  C   C418      1.0  0.68830  0.61816  0.04896  1.0000
  H   H727      1.0  0.54460  0.34973  0.47802  1.0000
  H   H728      1.0  0.73616  0.53700  0.45833  1.0000
  H   H729      1.0  0.92647  0.54066  0.01870  1.0000
  C   C419      1.0  0.50571  0.64800  0.39888  1.0000
  H   H730      1.0  0.78290  0.56245  0.21161  1.0000
  C   C420      1.0  0.68778  0.44882  0.47436  1.0000
  C   C421      1.0  0.67928  0.48080  0.46512  1.0000
  C   C422      1.0  0.69020  0.64923  0.11729  1.0000
  N   N22       1.0  0.96824  0.53033  0.05161  1.0000
  H   H731      1.0  0.53464  0.52556  0.40409  1.0000
  H   H732      1.0  0.92278  0.47572  0.06284  1.0000
  H   H733      1.0  0.75756  0.54192  0.26435  1.0000
  C   C423      1.0  0.67388  0.64550  0.17806  1.0000
  H   H734      1.0  0.93344  0.50500  0.16162  1.0000
  C   C424      1.0  0.81463  0.49376  0.01275  1.0000
  C   C425      1.0  0.55061  0.52202  0.45657  1.0000
  N   N23       1.0  0.52230  0.54077  0.47336  1.0000
  H   H735      1.0  0.51629  0.40130  0.47862  1.0000
  H   H736      1.0  0.60951  0.51103  0.41926  1.0000
  H   H737      1.0  0.61928  0.40483  0.41486  1.0000
  H   H738      1.0  0.94380  0.56125  0.08795  1.0000
  H   H739      1.0  0.92322  0.54498  0.14689  1.0000
  C   C426      1.0  0.79981  0.58103  0.37688  1.0000
  H   H740      1.0  0.66976  0.63091  0.11402  1.0000
  H   H741      1.0  0.64098  0.66196  0.07607  1.0000
  S   S100      1.0  0.93367  0.64106  0.09519  1.0000
  H   H742      1.0  0.68632  0.48991  0.44085  1.0000
  H   H743      1.0  0.56555  0.40267  0.44660  1.0000
  C   C427      1.0  0.80352  0.64027  0.36016  1.0000
  H   H744      1.0  0.83145  0.63733  0.36324  1.0000
  H   H745      1.0  0.93831  0.59381  0.04503  1.0000
  H   H746      1.0  0.69007  0.57852  0.01366  1.0000
  H   H747      1.0  0.82773  0.57741  0.37477  1.0000
  C   C428      1.0  0.84221  0.64496  0.29555  1.0000
  H   H748      1.0  0.73651  0.65504  0.22914  1.0000
  H   H749      1.0  0.56604  0.55495  0.41638  1.0000
  C   C429      1.0  0.71007  0.64754  0.05979  1.0000
  H   H750      1.0  0.84303  0.65514  0.24231  1.0000
  C   C430      1.0  0.80542  0.65755  0.30090  1.0000
  C   C431      1.0  0.95351  0.54782  0.02210  1.0000
  H   H751      1.0  0.55869  0.63497  0.45527  1.0000
  H   H752      1.0  0.95835  0.42809  0.04992  1.0000
  H   H753      1.0  0.97801  0.52575  0.12355  1.0000
  S   S101      1.0  0.57513  0.65077  0.38886  1.0000
  H   H754      1.0  0.87447  0.62632  0.25592  1.0000
  H   H755      1.0  0.66310  0.62589  0.03972  1.0000
  H   H756      1.0  0.98743  0.48201  0.06175  1.0000
  C   C432      1.0  0.55741  0.52953  0.41947  1.0000
  H   H757      1.0  0.97985  0.59514  0.02624  1.0000
  C   C433      1.0  0.78794  0.60673  0.35221  1.0000
  H   H758      1.0  0.69574  0.62887  0.18190  1.0000
  H   H759      1.0  0.79368  0.64668  0.38523  1.0000
  C   C434      1.0  0.56179  0.62734  0.48137  1.0000
  H   H760      1.0  0.64334  0.39708  0.45179  1.0000
  S   S102      1.0  0.78451  0.64546  0.01428  1.0000
  H   H761      1.0  0.98570  0.49199  0.01932  1.0000
  C   C435      1.0  0.76191  0.56370  0.49747  1.0000
  H   H762      1.0  0.50631  0.58999  0.48305  1.0000
  H   H763      1.0  0.72690  0.60007  0.47986  1.0000
  H   H764      1.0  0.71353  0.63474  0.12250  1.0000
  H   H765      1.0  0.52554  0.58459  0.44385  1.0000
  H   H766      1.0  0.76962  0.63908  0.49735  1.0000
  H   H767      1.0  0.80506  0.51824  0.01513  1.0000
  H   H768      1.0  0.84761  0.62358  0.31136  1.0000
  H   H769      1.0  0.66976  0.65962  0.20113  1.0000
  H   H770      1.0  0.73102  0.59006  0.02947  1.0000
  H   H771      1.0  0.74374  0.65273  0.32765  1.0000
  C   C436      1.0  0.52732  0.57685  0.47020  1.0000
  H   H772      1.0  0.65075  0.63086  0.17330  1.0000
  H   H773      1.0  0.71662  0.66197  0.03741  1.0000
  C   C437      1.0  0.70600  0.59943  0.02111  1.0000
  H   H774      1.0  0.00010  0.65838  0.07113  1.0000
  C   C438      1.0  0.83896  0.43003  0.00596  1.0000
  H   H775      1.0  0.54128  0.63855  0.49657  1.0000
  H   H776      1.0  0.73366  0.51832  0.49883  1.0000
  H   H777      1.0  0.71011  0.61530  0.99913  1.0000
  C   C439      1.0  0.93111  0.38843  0.95723  1.0000
  H   H778      1.0  0.70810  0.64815  0.50511  1.0000
  S   S103      1.0  0.66168  0.37144  0.61162  1.0000
  C   C440      1.0  0.00030  0.35163  0.87540  1.0000
  Fe  Fe52      1.0  0.67700  0.36114  0.55884  1.0000
  S   S104      1.0  0.56952  0.34300  0.62388  1.0000
  H   H779      1.0  0.71288  0.65590  0.54819  1.0000
  C   C441      1.0  0.67864  0.43630  0.50569  1.0000
  H   H780      1.0  0.59566  0.42127  0.50119  1.0000
  Fe  Fe53      1.0  0.81991  0.37017  0.92528  1.0000
  H   H781      1.0  0.87391  0.55793  0.94305  1.0000
  S   S105      1.0  0.80686  0.42089  0.94506  1.0000
  Fe  Fe54      1.0  0.62325  0.33108  0.60475  1.0000
  C   C442      1.0  0.98571  0.47796  0.86032  1.0000
  H   H782      1.0  0.56469  0.44338  0.54907  1.0000
  H   H783      1.0  0.91285  0.38911  0.97836  1.0000
  C   C443      1.0  0.81786  0.44286  0.98142  1.0000
  S   S106      1.0  0.83772  0.36920  0.87207  1.0000
  C   C444      1.0  0.51913  0.53087  0.50956  1.0000
  H   H784      1.0  0.95590  0.39880  0.96466  1.0000
  H   H785      1.0  0.83852  0.53381  0.95779  1.0000
  H   H786      1.0  0.64593  0.66072  0.50900  1.0000
  C   C445      1.0  0.51211  0.33987  0.51882  1.0000
  H   H787      1.0  0.93580  0.40504  0.90724  1.0000
  C   C446      1.0  0.95831  0.45846  0.87860  1.0000
  H   H788      1.0  0.74510  0.55196  0.61689  1.0000
  H   H789      1.0  0.94713  0.44146  0.86051  1.0000
  H   H790      1.0  0.93541  0.36270  0.95032  1.0000
  H   H791      1.0  0.79189  0.61272  0.52440  1.0000
  H   H792      1.0  0.97449  0.49165  0.83933  1.0000
  H   H793      1.0  0.76659  0.59034  0.57079  1.0000
  C   C447      1.0  0.73964  0.59626  0.56491  1.0000
  H   H794      1.0  0.97137  0.44452  0.89834  1.0000
  C   C448      1.0  0.56118  0.38986  0.55046  1.0000
  H   H795      1.0  0.66883  0.33459  0.89003  1.0000
  C   C449      1.0  0.76984  0.62959  0.52326  1.0000
  H   H796      1.0  0.82564  0.43728  0.83839  1.0000
  C   C450      1.0  0.71946  0.56427  0.57079  1.0000
  H   H797      1.0  0.95368  0.59336  0.97026  1.0000
  N   N24       1.0  0.73709  0.61172  0.53095  1.0000
  H   H798      1.0  0.50867  0.55127  0.52457  1.0000
  H   H799      1.0  0.87052  0.54685  0.98628  1.0000
  C   C451      1.0  0.71881  0.55494  0.60746  1.0000
  H   H800      1.0  0.79991  0.33917  0.70774  1.0000
  C   C452      1.0  0.70861  0.63626  0.52994  1.0000
  H   H801      1.0  0.73173  0.61393  0.58433  1.0000
  H   H802      1.0  0.93899  0.62722  0.99468  1.0000
  H   H803      1.0  0.62054  0.64148  0.54090  1.0000
  H   H804      1.0  0.86496  0.42560  0.81796  1.0000
  C   C453      1.0  0.57086  0.42773  0.59955  1.0000
  C   C454      1.0  0.66158  0.45655  0.52807  1.0000
  H   H805      1.0  0.67082  0.61474  0.56361  1.0000
  H   H806      1.0  0.84229  0.46126  0.80460  1.0000
  H   H807      1.0  0.69284  0.56584  0.56231  1.0000
  H   H808      1.0  0.73160  0.54397  0.55714  1.0000
  C   C455      1.0  0.67238  0.62363  0.53769  1.0000
  N   N25       1.0  0.89951  0.46501  0.90791  1.0000
  C   C456      1.0  0.88034  0.44705  0.88141  1.0000
  C   C457      1.0  0.90775  0.44237  0.93633  1.0000
  C   C458      1.0  0.87630  0.49149  0.92087  1.0000
  C   C459      1.0  0.93123  0.48102  0.89435  1.0000
  H   H809      1.0  0.99724  0.37130  0.85789  1.0000
  C   C460      1.0  0.86931  0.46730  0.85090  1.0000
  C   C461      1.0  0.88675  0.50758  0.95405  1.0000
  C   C462      1.0  0.91694  0.40683  0.92751  1.0000
  H   H810      1.0  0.53779  0.38452  0.56499  1.0000
  S   S107      1.0  0.93075  0.34497  0.87052  1.0000
  C   C463      1.0  0.84938  0.44649  0.82654  1.0000
  C   C464      1.0  0.86618  0.53841  0.96056  1.0000
  H   H811      1.0  0.85698  0.43604  0.89251  1.0000
  H   H812      1.0  0.89517  0.42629  0.87152  1.0000
  H   H813      1.0  0.92852  0.45264  0.95163  1.0000
  H   H814      1.0  0.88530  0.43998  0.95316  1.0000
  H   H815      1.0  0.85000  0.48194  0.92480  1.0000
  H   H816      1.0  0.87384  0.51132  0.90227  1.0000
  H   H817      1.0  0.92447  0.49999  0.87588  1.0000
  H   H818      1.0  0.94456  0.49437  0.91421  1.0000
  H   H819      1.0  0.70537  0.57373  0.62226  1.0000
  H   H820      1.0  0.70515  0.53157  0.61073  1.0000
  H   H821      1.0  0.85252  0.48770  0.85823  1.0000
  H   H822      1.0  0.89185  0.47701  0.83746  1.0000
  H   H823      1.0  0.91404  0.51413  0.95442  1.0000
  H   H824      1.0  0.88173  0.49071  0.97499  1.0000
  H   H825      1.0  0.89369  0.39401  0.91940  1.0000
  H   H826      1.0  0.60941  0.38060  0.50613  1.0000
  H   H827      1.0  0.58534  0.40933  0.61375  1.0000
  H   H828      1.0  0.53862  0.53697  0.57606  1.0000
  S   S108      1.0  0.74118  0.33373  0.66602  1.0000
  H   H829      1.0  0.78923  0.48493  0.96643  1.0000
  H   H830      1.0  0.66486  0.60404  0.52050  1.0000
  H   H831      1.0  0.56704  0.33644  0.51369  1.0000
  H   H832      1.0  0.80935  0.35295  0.58506  1.0000
  H   H833      1.0  0.56924  0.50452  0.57593  1.0000
  H   H834      1.0  0.65563  0.44774  0.55268  1.0000
  H   H835      1.0  0.80913  0.33378  0.76846  1.0000
  H   H836      1.0  0.91181  0.59267  0.98947  1.0000
  C   C465      1.0  0.77859  0.33366  0.72390  1.0000
  S   S109      1.0  0.86021  0.33582  0.94336  1.0000
  C   C466      1.0  0.54558  0.51357  0.56424  1.0000
  H   H837      1.0  0.54350  0.42619  0.60643  1.0000
  Fe  Fe55      1.0  0.87696  0.33324  0.88987  1.0000
  Fe  Fe56      1.0  0.69819  0.33177  0.62715  1.0000
  H   H838      1.0  0.58057  0.45196  0.60663  1.0000
  H   H839      1.0  0.70837  0.57289  0.50813  1.0000
  H   H840      1.0  0.60381  0.42281  0.55747  1.0000
  C   C467      1.0  0.97136  0.33472  0.88686  1.0000
  C   C468      1.0  0.57604  0.42260  0.56239  1.0000
  H   H841      1.0  0.57940  0.37070  0.55834  1.0000
  C   C469      1.0  0.80567  0.47475  0.98514  1.0000
  H   H842      1.0  0.77522  0.55748  0.52075  1.0000
  C   C470      1.0  0.55169  0.51824  0.52709  1.0000
  H   H843      1.0  0.57356  0.53488  0.52397  1.0000
  C   C471      1.0  0.65289  0.48850  0.51880  1.0000
  H   H844      1.0  0.63968  0.50389  0.53633  1.0000
  H   H845      1.0  0.71419  0.33285  0.88503  1.0000
  C   C472      1.0  0.64625  0.65092  0.53466  1.0000
  H   H846      1.0  0.52498  0.49564  0.56882  1.0000
  H   H847      1.0  0.55926  0.49436  0.51670  1.0000
  C   C473      1.0  0.77835  0.65854  0.54628  1.0000
  H   H848      1.0  0.56285  0.58477  0.51107  1.0000
  H   H849      1.0  0.51017  0.34247  0.54602  1.0000
  C   C474      1.0  0.73174  0.58732  0.50373  1.0000
  S   S110      1.0  0.68858  0.39516  0.51502  1.0000
  N   N26       1.0  0.55507  0.38762  0.51366  1.0000
  H   H850      1.0  0.50724  0.43515  0.54618  1.0000
  C   C475      1.0  0.93863  0.60037  0.99251  1.0000
  H   H851      1.0  0.83296  0.65005  0.55026  1.0000
  H   H852      1.0  0.77425  0.65224  0.57275  1.0000
  H   H853      1.0  0.96675  0.54051  0.99882  1.0000
  C   C476      1.0  0.54635  0.35298  0.50523  1.0000
  C   C477      1.0  0.78392  0.33070  0.75846  1.0000
  C   C478      1.0  0.52774  0.41067  0.50185  1.0000
  H   H854      1.0  0.50209  0.36845  0.63215  1.0000
  H   H855      1.0  0.99831  0.49515  0.87742  1.0000
  S   S111      1.0  0.78150  0.33050  0.91625  1.0000
  H   H856      1.0  0.70612  0.90290  0.44574  1.0000
  H   H857      1.0  0.70561  0.71556  0.10819  1.0000
  C   C479      1.0  0.66032  0.68164  0.07550  1.0000
  H   H858      1.0  0.68580  0.91740  0.48180  1.0000
  H   H859      1.0  0.70083  0.71300  0.34645  1.0000
  H   H860      1.0  0.73098  0.99023  0.44708  1.0000
  C   C480      1.0  0.58415  0.92302  0.01129  1.0000
  H   H861      1.0  0.69046  0.97525  0.46168  1.0000
  H   H862      1.0  0.62321  0.72212  0.00836  1.0000
  H   H863      1.0  0.67219  0.85869  0.44903  1.0000
  H   H864      1.0  0.63822  0.96797  0.03752  1.0000
  H   H865      1.0  0.80126  0.70973  0.04114  1.0000
  H   H866      1.0  0.66612  0.68084  0.02081  1.0000
  H   H867      1.0  0.69081  0.70207  0.47799  1.0000
  C   C481      1.0  0.74446  0.70183  0.46708  1.0000
  S   S112      1.0  0.74327  0.67066  0.43661  1.0000
  H   H868      1.0  0.65823  0.68376  0.14546  1.0000
  H   H869      1.0  0.82556  0.93804  0.45686  1.0000
  H   H870      1.0  0.87266  0.96415  0.41214  1.0000
  H   H871      1.0  0.51284  0.98419  0.03031  1.0000
  H   H872      1.0  0.66683  0.98570  0.12529  1.0000
  H   H873      1.0  0.70250  0.68441  0.15640  1.0000
  C   C482      1.0  0.77297  0.83884  0.48434  1.0000
  C   C483      1.0  0.77595  0.71595  0.47498  1.0000
  H   H874      1.0  0.75156  0.70001  0.28961  1.0000
  H   H875      1.0  0.56095  0.95271  0.08125  1.0000
  H   H876      1.0  0.81090  0.69522  0.39982  1.0000
  C   C484      1.0  0.70785  0.70893  0.32005  1.0000
  H   H877      1.0  0.61487  0.94234  0.06460  1.0000
  H   H878      1.0  0.90519  0.95003  0.47185  1.0000
  H   H879      1.0  0.73921  0.95230  0.49308  1.0000
  H   H880      1.0  0.96257  0.96993  0.48022  1.0000
  C   C485      1.0  0.81561  0.98442  0.47943  1.0000
  C   C486      1.0  0.71456  0.96836  0.44897  1.0000
  C   C487      1.0  0.71124  0.91083  0.47155  1.0000
  H   H881      1.0  0.72433  0.95126  0.03060  1.0000
  C   C488      1.0  0.61713  0.96793  0.05606  1.0000
  N   N27       1.0  0.58440  0.97905  0.04021  1.0000
  C   C489      1.0  0.70725  0.96147  0.01245  1.0000
  H   H882      1.0  0.80234  0.82931  0.43929  1.0000
  H   H883      1.0  0.77478  0.73716  0.09256  1.0000
  H   H884      1.0  0.57023  0.91357  0.03330  1.0000
  C   C490      1.0  0.77272  0.72041  0.11409  1.0000
  N   N28       1.0  0.69462  0.66899  0.08602  1.0000
  N   N29       1.0  0.72690  0.88347  0.49109  1.0000
  H   H885      1.0  0.69370  0.68768  0.31050  1.0000
  H   H886      1.0  0.81643  0.80761  0.47552  1.0000
  H   H887      1.0  0.61147  0.91650  0.01386  1.0000
  C   C491      1.0  0.65907  0.69807  0.04076  1.0000
  C   C492      1.0  0.62937  0.98787  0.08619  1.0000
  C   C493      1.0  0.75814  0.67396  0.33696  1.0000
  H   H888      1.0  0.65669  0.80090  0.44716  1.0000
  C   C494      1.0  0.62333  0.71051  0.03326  1.0000
  C   C495      1.0  0.70092  0.85692  0.49550  1.0000
  C   C496      1.0  0.82766  0.74256  0.38552  1.0000
  C   C497      1.0  0.75790  0.87155  0.47240  1.0000
  C   C498      1.0  0.68111  0.66850  0.14909  1.0000
  H   H889      1.0  0.68119  0.79278  0.48374  1.0000
  H   H890      1.0  0.79875  0.70801  0.46220  1.0000
  C   C499      1.0  0.65741  0.97010  0.10495  1.0000
  H   H891      1.0  0.60819  0.99299  0.10377  1.0000
  C   C500      1.0  0.80639  0.83116  0.46641  1.0000
  C   C501      1.0  0.74614  0.70364  0.31636  1.0000
  H   H892      1.0  0.70013  0.73059  0.30554  1.0000
  H   H893      1.0  0.76882  0.67714  0.08509  1.0000
  H   H894      1.0  0.85515  0.73640  0.38619  1.0000
  H   H895      1.0  0.79881  0.71415  0.12229  1.0000
  H   H896      1.0  0.82564  0.85019  0.47141  1.0000
  C   C502      1.0  0.71527  0.71242  0.48391  1.0000
  H   H897      1.0  0.89882  0.96271  0.37523  1.0000
  H   H898      1.0  0.80242  0.67849  0.28375  1.0000
  H   H899      1.0  0.81477  0.71549  0.32567  1.0000
  H   H900      1.0  0.84363  0.69031  0.34689  1.0000
  C   C503      1.0  0.82208  0.95087  0.47998  1.0000
  C   C504      1.0  0.78289  0.71281  0.02160  1.0000
  H   H901      1.0  0.75261  0.86920  0.44547  1.0000
  H   H902      1.0  0.82026  0.75308  0.40986  1.0000
  C   C505      1.0  0.81616  0.69656  0.34533  1.0000
  H   H903      1.0  0.75289  0.67365  0.12675  1.0000
  H   H904      1.0  0.77928  0.71974  0.37985  1.0000
  C   C506      1.0  0.73309  0.94204  0.46848  1.0000
  H   H905      1.0  0.75876  0.72624  0.32444  1.0000
  C   C507      1.0  0.69809  0.99435  0.01455  1.0000
  H   H906      1.0  0.75940  0.73291  0.13480  1.0000
  C   C508      1.0  0.68801  0.84119  0.46308  1.0000
  C   C509      1.0  0.55543  0.97359  0.06454  1.0000
  H   H907      1.0  0.72229  0.71082  0.06769  1.0000
  C   C510      1.0  0.51981  0.96658  0.04977  1.0000
  H   H908      1.0  0.51936  0.94208  0.03852  1.0000
  H   H909      1.0  0.86097  0.66420  0.30116  1.0000
  H   H910      1.0  0.70920  0.83321  0.44678  1.0000
  C   C511      1.0  0.77129  0.68571  0.00434  1.0000
  H   H911      1.0  0.67917  0.96461  0.08811  1.0000
  H   H912      1.0  0.82323  0.76110  0.36600  1.0000
  C   C512      1.0  0.71782  0.69757  0.09137  1.0000
  H   H913      1.0  0.93459  0.96728  0.42530  1.0000
  H   H914      1.0  0.67654  0.71911  0.03919  1.0000
  H   H915      1.0  0.77867  0.88977  0.47378  1.0000
  H   H916      1.0  0.60479  0.69021  0.03328  1.0000
  H   H917      1.0  0.64760  0.94718  0.11587  1.0000
  C   C513      1.0  0.77125  0.74413  0.01309  1.0000
  C   C514      1.0  0.80638  0.71230  0.37905  1.0000
  H   H918      1.0  0.61530  0.72889  0.05180  1.0000
  H   H919      1.0  0.75528  0.81850  0.47954  1.0000
  C   C515      1.0  0.66603  0.81151  0.47065  1.0000
  H   H920      1.0  0.65085  0.69993  0.09355  1.0000
  C   C516      1.0  0.58053  0.96041  0.00828  1.0000
  H   H921      1.0  0.74908  0.67698  0.36297  1.0000
  C   C517      1.0  0.94209  0.98511  0.49151  1.0000
  H   H922      1.0  0.75721  0.93686  0.45510  1.0000
  H   H923      1.0  0.78074  0.76492  0.02639  1.0000
  H   H924      1.0  0.50835  0.67231  0.40849  1.0000
  C   C518      1.0  0.89046  0.97826  0.39617  1.0000
  C   C519      1.0  0.75374  0.68953  0.10461  1.0000
  H   H925      1.0  0.70900  0.95995  0.42347  1.0000
  H   H926      1.0  0.64375  0.81827  0.48627  1.0000
  C   C520      1.0  0.92133  0.98915  0.41595  1.0000
  H   H927      1.0  0.55301  0.99480  0.08150  1.0000
  N   N30       1.0  0.79583  0.66708  0.33583  1.0000
  C   C521      1.0  0.91099  0.96214  0.49564  1.0000
  Fe  Fe57      1.0  0.81290  0.82624  0.64611  1.0000
  S   S113      1.0  0.82752  0.78412  0.61323  1.0000
  S   S114      1.0  0.80532  0.81870  0.70246  1.0000
  Fe  Fe58      1.0  0.82226  0.87475  0.58811  1.0000
  S   S115      1.0  0.83712  0.83616  0.55153  1.0000
  S   S116      1.0  0.81809  0.92925  0.57874  1.0000
  Fe  Fe59      1.0  0.79434  0.80674  0.57420  1.0000
  S   S117      1.0  0.75028  0.78151  0.54725  1.0000
  Fe  Fe60      1.0  0.86943  0.81640  0.59302  1.0000
  S   S118      1.0  0.92210  0.79456  0.58272  1.0000
  S   S119      1.0  0.77720  0.84708  0.60841  1.0000
  S   S120      1.0  0.85719  0.85683  0.62828  1.0000
  Fe  Fe61      1.0  0.66523  0.87649  0.92499  1.0000
  S   S121      1.0  0.65081  0.83624  0.96008  1.0000
  S   S122      1.0  0.65504  0.93055  0.93154  1.0000
  Fe  Fe62      1.0  0.68160  0.82907  0.86723  1.0000
  S   S123      1.0  0.66877  0.78538  0.89891  1.0000
  S   S124      1.0  0.68474  0.83127  0.81017  1.0000
  Fe  Fe63      1.0  0.62342  0.81419  0.91701  1.0000
  S   S125      1.0  0.57114  0.79035  0.91932  1.0000
  Fe  Fe64      1.0  0.69730  0.81041  0.93972  1.0000
  H   H928      1.0  0.81985  0.69141  0.55699  1.0000
  S   S126      1.0  0.63452  0.85590  0.88353  1.0000
  S   S127      1.0  0.71339  0.85265  0.90682  1.0000
  H   H929      1.0  0.69743  0.93144  0.53301  1.0000
  H   H930      1.0  0.78072  0.82893  0.86992  1.0000
  H   H931      1.0  0.76397  0.96610  0.80849  1.0000
  H   H932      1.0  0.73864  0.66966  0.96502  1.0000
  H   H933      1.0  0.80628  0.99460  0.85993  1.0000
  C   C522      1.0  0.53190  0.81144  0.91695  1.0000
  C   C523      1.0  0.53049  0.84521  0.91420  1.0000
  H   H934      1.0  0.82082  0.67535  0.51556  1.0000
  H   H935      1.0  0.55379  0.85912  0.91470  1.0000
  C   C524      1.0  0.77069  0.82085  0.73140  1.0000
  C   C525      1.0  0.77616  0.81131  0.76450  1.0000
  C   C526      1.0  0.75015  0.81381  0.78879  1.0000
  C   C527      1.0  0.71820  0.82609  0.78037  1.0000
  C   C528      1.0  0.71254  0.83527  0.74720  1.0000
  C   C529      1.0  0.73854  0.83272  0.72289  1.0000
  H   H936      1.0  0.80082  0.80195  0.77144  1.0000
  H   H937      1.0  0.75489  0.80623  0.81401  1.0000
  H   H938      1.0  0.68793  0.84470  0.74026  1.0000
  H   H939      1.0  0.73384  0.84017  0.69762  1.0000
  C   C530      1.0  0.71009  0.91144  0.54648  1.0000
  C   C531      1.0  0.74921  0.75054  0.51658  1.0000
  H   H940      1.0  0.58416  0.91495  0.95785  1.0000
  H   H941      1.0  0.55042  0.77248  0.74078  1.0000
  C   C532      1.0  0.71770  0.73654  0.50852  1.0000
  H   H942      1.0  0.74723  0.87375  0.53991  1.0000
  C   C533      1.0  0.96233  0.81419  0.58480  1.0000
  H   H943      1.0  0.80280  0.75056  0.50551  1.0000
  C   C534      1.0  0.96592  0.84568  0.59704  1.0000
  C   C535      1.0  0.99844  0.86001  0.59881  1.0000
  H   H944      1.0  0.94365  0.85894  0.60521  1.0000
  C   C536      1.0  0.67230  0.95454  0.96359  1.0000
  H   H945      1.0  0.55603  0.96583  0.99621  1.0000
  H   H946      1.0  0.51435  0.82093  0.78184  1.0000
  C   C537      1.0  0.57697  0.77666  0.74879  1.0000
  C   C538      1.0  0.81862  0.94994  0.54016  1.0000
  H   H947      1.0  0.56866  0.82733  0.75757  1.0000
  H   H948      1.0  0.50220  0.76757  0.91904  1.0000
  C   C539      1.0  0.81091  0.95001  0.83123  1.0000
  N   N31       1.0  0.76000  0.91399  0.81337  1.0000
  C   C540      1.0  0.77717  0.90411  0.78132  1.0000
  C   C541      1.0  0.76477  0.88793  0.83945  1.0000
  C   C542      1.0  0.72232  0.91701  0.80669  1.0000
  C   C543      1.0  0.77338  0.92776  0.75165  1.0000
  C   C544      1.0  0.69890  0.92207  0.83752  1.0000
  C   C545      1.0  0.80168  0.84699  0.86974  1.0000
  C   C546      1.0  0.79331  0.91562  0.72142  1.0000
  C   C547      1.0  0.66164  0.92450  0.82747  1.0000
  H   H949      1.0  0.76713  0.88021  0.77330  1.0000
  H   H950      1.0  0.76058  0.89816  0.86469  1.0000
  H   H951      1.0  0.74513  0.86866  0.83665  1.0000
  H   H952      1.0  0.71305  0.89505  0.79356  1.0000
  H   H953      1.0  0.71718  0.93777  0.78984  1.0000
  H   H954      1.0  0.74642  0.92986  0.74410  1.0000
  H   H955      1.0  0.70530  0.94467  0.85084  1.0000
  H   H956      1.0  0.70088  0.90154  0.85514  1.0000
  H   H957      1.0  0.82622  0.83366  0.86900  1.0000
  H   H958      1.0  0.80049  0.86130  0.89300  1.0000
  H   H959      1.0  0.82084  0.91354  0.72701  1.0000
  H   H960      1.0  0.79024  0.93283  0.70043  1.0000
  H   H961      1.0  0.65767  0.94539  0.81053  1.0000
  H   H962      1.0  0.65349  0.90181  0.81508  1.0000
  H   H963      1.0  0.51693  0.94323  0.90598  1.0000
  N   N32       1.0  0.56056  0.80349  0.80479  1.0000
  C   C548      1.0  0.52288  0.80107  0.79857  1.0000
  C   C549      1.0  0.57894  0.80654  0.77194  1.0000
  C   C550      1.0  0.57165  0.77360  0.82341  1.0000
  C   C551      1.0  0.56899  0.83288  0.82530  1.0000
  C   C552      1.0  0.55343  0.86548  0.81344  1.0000
  H   H964      1.0  0.71815  0.72489  0.95021  1.0000
  C   C553      1.0  0.61056  0.76943  0.82780  1.0000
  C   C554      1.0  0.56432  0.89349  0.83559  1.0000
  H   H965      1.0  0.78374  0.89155  0.71351  1.0000
  C   C555      1.0  0.61851  0.73791  0.84617  1.0000
  H   H966      1.0  0.51698  0.77833  0.78509  1.0000
  H   H967      1.0  0.80879  0.99632  0.56273  1.0000
  H   H968      1.0  0.60630  0.81256  0.77570  1.0000
  H   H969      1.0  0.56151  0.75131  0.81160  1.0000
  H   H970      1.0  0.56046  0.77351  0.84885  1.0000
  H   H971      1.0  0.56149  0.82910  0.85168  1.0000
  H   H972      1.0  0.59703  0.83644  0.82584  1.0000
  H   H973      1.0  0.52524  0.86476  0.81407  1.0000
  H   H974      1.0  0.56184  0.87129  0.78782  1.0000
  H   H975      1.0  0.82611  0.94196  0.80954  1.0000
  C   C556      1.0  0.96657  0.78914  0.68022  1.0000
  H   H976      1.0  0.62105  0.78978  0.84234  1.0000
  H   H977      1.0  0.62422  0.76855  0.80368  1.0000
  C   C557      1.0  0.81529  0.66937  0.54191  1.0000
  H   H978      1.0  0.59236  0.89625  0.83495  1.0000
  H   H979      1.0  0.64561  0.92807  0.84999  1.0000
  H   H980      1.0  0.69050  0.89362  0.55444  1.0000
  H   H981      1.0  0.55585  0.88928  0.86155  1.0000
  H   H982      1.0  0.64649  0.73499  0.84828  1.0000
  H   H983      1.0  0.60730  0.73838  0.87156  1.0000
  H   H984      1.0  0.60838  0.71672  0.83255  1.0000
  H   H985      1.0  0.77800  0.83943  0.51121  1.0000
  H   H986      1.0  0.84800  0.98717  0.84272  1.0000
  H   H987      1.0  0.62590  0.78507  0.72430  1.0000
  H   H988      1.0  0.98918  0.77300  0.56481  1.0000
  H   H989      1.0  0.92181  0.94628  0.54611  1.0000
  C   C558      1.0  0.69420  0.94155  0.98728  1.0000
  C   C559      1.0  0.79908  0.86919  0.83947  1.0000
  H   H990      1.0  0.58630  0.75435  0.76109  1.0000
  H   H991      1.0  0.82862  0.90791  0.51027  1.0000
  H   H992      1.0  0.80111  0.85359  0.81719  1.0000
  H   H993      1.0  0.78319  0.95217  0.75788  1.0000
  H   H994      1.0  0.76211  0.67972  0.54017  1.0000
  C   C560      1.0  0.72533  0.92619  0.57767  1.0000
  C   C561      1.0  0.50137  0.79370  0.91676  1.0000
  H   H995      1.0  0.82134  0.88547  0.83931  1.0000
  C   C562      1.0  0.82030  0.98534  0.83787  1.0000
  H   H996      1.0  0.55271  0.91642  0.82670  1.0000
  C   C563      1.0  0.81278  0.98358  0.53963  1.0000
  H   H997      1.0  0.58993  0.80345  0.70367  1.0000
  C   C564      1.0  0.77226  0.94644  0.82557  1.0000
  H   H998      1.0  0.89588  0.91885  0.52282  1.0000
  H   H999      1.0  0.60012  0.96839  0.98989  1.0000
  H   H1000     1.0  0.76008  0.95237  0.84977  1.0000
  H   H1001     1.0  0.70483  0.93686  0.59329  1.0000
  C   C565      1.0  0.59873  0.78181  0.71764  1.0000
  H   H1002     1.0  0.94827  0.77001  0.68793  1.0000
  H   H1003     1.0  0.80482  0.90013  0.78461  1.0000
  S   S128      1.0  0.73478  0.78917  0.97736  1.0000
  H   H1004     1.0  0.57639  0.87930  0.98252  1.0000
  H   H1005     1.0  0.81838  0.93595  0.85347  1.0000
  C   C566      1.0  0.82376  0.93372  0.51017  1.0000
  H   H1006     1.0  0.95786  0.81263  0.69069  1.0000
  H   H1007     1.0  0.74360  0.94572  0.57097  1.0000
  H   H1008     1.0  0.67792  0.86636  0.50848  1.0000
  H   H1009     1.0  0.73871  0.90746  0.59244  1.0000
  C   C567      1.0  0.74780  0.69041  0.97859  1.0000
  C   C568      1.0  0.66348  0.98754  0.96541  1.0000
  C   C569      1.0  0.73604  0.72173  0.97016  1.0000
  H   H1010     1.0  0.96639  0.79075  0.65274  1.0000
  C   C570      1.0  0.57109  0.90570  0.98048  1.0000
  C   C571      1.0  0.74789  0.74888  0.98724  1.0000
  C   C572      1.0  0.99167  0.79733  0.57440  1.0000
  H   H1011     1.0  0.59675  0.76030  0.70130  1.0000
  C   C573      1.0  0.73785  0.89459  0.52498  1.0000
  C   C574      1.0  0.91797  0.93557  0.52121  1.0000
  H   H1012     1.0  0.54324  0.90903  0.97802  1.0000
  H   H1013     1.0  0.95145  0.99105  0.51675  1.0000
  C   C575      1.0  0.52057  0.96515  0.92144  1.0000
  H   H1014     1.0  0.94080  0.92125  0.51406  1.0000
  H   H1015     1.0  0.70126  0.91622  0.98613  1.0000
  H   H1016     1.0  0.50393  0.77833  0.84458  1.0000
  H   H1017     1.0  0.88778  0.97512  0.50358  1.0000
  H   H1018     1.0  0.54636  0.96393  0.93241  1.0000
  H   H1019     1.0  0.71085  0.83752  0.51213  1.0000
  H   H1020     1.0  0.65219  0.67094  0.55203  1.0000
  H   H1021     1.0  0.69495  0.74442  0.52145  1.0000
  H   H1022     1.0  0.50484  0.82181  0.84618  1.0000
  H   H1023     1.0  0.76003  0.91111  0.52302  1.0000
  H   H1024     1.0  0.51924  0.98705  0.90541  1.0000
  C   C576      1.0  0.77839  0.74007  0.49963  1.0000
