data_image0
_chemical_formula_structural       HFeS2FeS2FeSFeHS2FeS2FeSHFeSFeS3C2H4NHC7H2C11H4C6H5CH10CHCH2CHNHC3H2CHC5H3CHC2H2CHNC2H2CH4CHSC2HC3H4CH4CH2NC12H28NCHCHCH3C2HCH5CH5CH3C2H3CH7SH3CNH3C2HCH4CHCH2C2H6FeSCFeS2HFeSHSCFeS2FeSHFe2CS2H4C2SC7H3C3H2FeS2H2FeSFeHS2FeS2FeSHCFeSHSCFeCHCH2C11H4SHCHCHC2SHCH5C2HCH2C3H2SC2H4NH3CH2CH5CH2SH2NC12H28CH3CH9C2H3CH4FeCH5SCSNH8CHCFeCH6CH6CH2CH4CHCHFeSCFeS2FeSFeS4CHFeS2FeSHFeCFeHS2H7C2H2C4H2C3H3C6H4C6H4CHCH2CH5CH2CHC2H3CHCH4CHCH6CH2C2HC3HNCH2NH2CH4CHSHSC2HCH3CH2CH8CH3CH5CHCH3CH3C2H2C4NHCH2CHC2HSHNH2C2H2CHC2SC3H2SH6CHC4H2CHCH7CH5CHNH2CHCH2CH4CHCFeS2FeS2FeSFeS3FeS2FeS2FeHFeHS2C3H10CHC3H4CNH3C6H4C4HCH4C2H5CH6CH2NHCH8CHCHCHC4H3C2HC4HC2H2CH5C2H3C2HSHCNH9CH2C2H2C2H2CH2CH5CHC2H4C2HCHC2HCH3CHCH5CH2C2SC2HCH2C2HC2H2CSHNCH3CH6C2HC2HCH5CH2CH9CSHCHCH3C2HFeS2HCFeSFeS3FeS2FeSH2FeCHSC2FeCH6CHC2HC7H2C3HC3H3C3H2CHSCHCH2CH3CH2C3HCH3CH3C2H2NHCHCHC2H2SHS2H4CH8C2H7CNC4H3C2H12CHCH2FeSH2CH4CH3C2HC2HNH3CSH3SCHC2HC4H2CH2S2HCH7CHCHC2H11CNH7SCHCH3CH2NHC6H2CHC2H6CHC2HCH3CH2C2HSC2H3CH2CHCHC2H4CH2SH2CHCHNHC2H8CSH5CH2CH5CH2CHCH2CHC4H2CHCH7CHCH5SH2SHCH2CHFeC2H5C2H7CH2CHCHCH3C2SHFeSFeHSFeS2FeSHFeC2SH2C3HC6H3C7HNSHC2HC2H4C3HC2H3CHC2FeHC2HC2HCH2C2H10C2HCH2C2NCHCH4C2H5CH5CHCH4CHCH4SHCNH2SC2HSCHCHNH11CH3CH7CH3CHCHCH4CH4CH2C2H6SFeSH2C4H2CH6SHCSCFeSFeSCFeS2FeS2FeHFeHS2HC2SH6C6H4C6H4C5H4C3HC2SH3CH5C2HNH2CHCNC8SC3H33C2HC2H3NH2C2HC2H4CHC2H7C2H8CNH2C2H5CH2FeCH2CHSHC2HCH3C2HCH5CHCH2CH4C2H2C2FeSCNSC2H5CH3CH8CHC3H4CSFeS2FeS2FeSFeS3NFeS2FeS2FeHFeCS2HCH3C3H2C2H2C6H6C7H5CH2C2H2CH3NCNC7H2CHCHCH21CH3SHC2HCH3C2H2C3H3C2H2CHC7H4C2H13CHSHCHC2H2CH4CHC2HCHC2H5CHCNC2H2NH8SH2CHCH2CHCHCHCH2CH4CH6CH3NH13C2H3CHCHCHCHCH4CH3CH2FeS2FeSFeHS2FeS2FeCFeH2SH5C7HCHC3H3CFeS2H2FeSFeS3FeS2FeCSFeHFeS2CSH2CHC6H7C3H7CHCHS2H3CH2C2H2FeHC2HCH3SFeCH2SHNC8HC2H22CH2CNC8HC3H16C2HCH11CH4N2H7CH4CH7FeCSCH2C2HCHC3SH2C2HCH3C3HCH2CHCH2FeS2FeS2FeSFeHS2HFeS2FeH3SHS2CH9CHC7H4C6H4CHFeH4CHCH2C3H2CH8CH2C3H3CH5CH6CH2CHFeHCHC2H5SHCH5CHC3H3C3H3SH2NC3H3NC3HCHCH3CH2C3H5CH3CHC2NCH2CH3CH5NH3CH2CH2C2H3C2H2CH4NH3SH9C2H3CHCHCHCH2C3
_chemical_formula_sum              "H1536 Fe96 S192 C864 N48"
_cell_length_a       51.5198
_cell_length_b       51.5408
_cell_length_c       49.9218
_cell_angle_alpha    89.8981
_cell_angle_beta     90.0131
_cell_angle_gamma    120

_space_group_name_H-M_alt    "P 1"
_space_group_IT_number       1

loop_
  _space_group_symop_operation_xyz
  'x, y, z'

loop_
  _atom_site_type_symbol
  _atom_site_label
  _atom_site_symmetry_multiplicity
  _atom_site_fract_x
  _atom_site_fract_y
  _atom_site_fract_z
  _atom_site_occupancy
  H   H1        1.0  0.07823  0.29487  0.07945  1.0000
  Fe  Fe1       1.0  0.36766  0.39075  0.08542  1.0000
  S   S1        1.0  0.35078  0.42351  0.09100  1.0000
  S   S2        1.0  0.39016  0.38536  0.04734  1.0000
  Fe  Fe2       1.0  0.36660  0.37943  0.14718  1.0000
  S   S3        1.0  0.34968  0.41083  0.15613  1.0000
  S   S4        1.0  0.38051  0.35580  0.17845  1.0000
  Fe  Fe3       1.0  0.31818  0.39031  0.12108  1.0000
  S   S5        1.0  0.26979  0.37803  0.13217  1.0000
  Fe  Fe4       1.0  0.38303  0.44129  0.12561  1.0000
  H   H2        1.0  0.06142  0.45951  0.02516  1.0000
  S   S6        1.0  0.33325  0.35621  0.11367  1.0000
  S   S7        1.0  0.40193  0.41125  0.11857  1.0000
  Fe  Fe5       1.0  0.12330  0.39920  0.09946  1.0000
  S   S8        1.0  0.07589  0.36384  0.11053  1.0000
  S   S9        1.0  0.16366  0.39552  0.08413  1.0000
  Fe  Fe6       1.0  0.10649  0.44889  0.09959  1.0000
  S   S10       1.0  0.05839  0.41767  0.11058  1.0000
  H   H3        1.0  0.44720  0.06830  0.13680  1.0000
  Fe  Fe7       1.0  0.07665  0.39759  0.14025  1.0000
  S   S11       1.0  0.06854  0.39586  0.18586  1.0000
  Fe  Fe8       1.0  0.06063  0.38634  0.08008  1.0000
  S   S12       1.0  0.02243  0.35981  0.04999  1.0000
  S   S13       1.0  0.12505  0.43133  0.13066  1.0000
  S   S14       1.0  0.10745  0.41906  0.06746  1.0000
  C   C1        1.0  0.05887  0.47799  0.22900  1.0000
  C   C2        1.0  0.42189  0.46636  0.23157  1.0000
  H   H4        1.0  0.38807  0.25837  0.99461  1.0000
  H   H5        1.0  0.40634  0.44825  0.31151  1.0000
  H   H6        1.0  0.18707  0.43937  0.13109  1.0000
  H   H7        1.0  0.46779  0.42543  0.32201  1.0000
  N   N1        1.0  0.08408  0.32495  0.02686  1.0000
  H   H8        1.0  0.18313  0.45702  0.09182  1.0000
  C   C3        1.0  0.04016  0.37443  0.21012  1.0000
  C   C4        1.0  0.20089  0.45821  0.14477  1.0000
  C   C5        1.0  0.42373  0.46381  0.26190  1.0000
  C   C6        1.0  0.43900  0.01883  0.18859  1.0000
  C   C7        1.0  0.98871  0.48841  0.27316  1.0000
  C   C8        1.0  0.01248  0.34968  0.20329  1.0000
  C   C9        1.0  0.18816  0.46259  0.03667  1.0000
  H   H9        1.0  0.07202  0.48251  0.24772  1.0000
  H   H10       1.0  0.00764  0.34294  0.18255  1.0000
  C   C10       1.0  0.01890  0.36302  0.01458  1.0000
  C   C11       1.0  0.07516  0.47090  0.20713  1.0000
  C   C12       1.0  0.36852  0.00958  0.23258  1.0000
  C   C13       1.0  0.99187  0.34279  0.00171  1.0000
  C   C14       1.0  0.02400  0.45658  0.28256  1.0000
  C   C15       1.0  0.19377  0.39245  0.09868  1.0000
  C   C16       1.0  0.21913  0.39944  0.08288  1.0000
  C   C17       1.0  0.24295  0.39603  0.09292  1.0000
  C   C18       1.0  0.24154  0.38502  0.11887  1.0000
  C   C19       1.0  0.21623  0.37819  0.13472  1.0000
  C   C20       1.0  0.19265  0.38208  0.12483  1.0000
  H   H11       1.0  0.22027  0.40729  0.06257  1.0000
  H   H12       1.0  0.26207  0.40124  0.08037  1.0000
  H   H13       1.0  0.21474  0.36961  0.15479  1.0000
  H   H14       1.0  0.17331  0.37640  0.13724  1.0000
  C   C21       1.0  0.38121  0.34945  0.27102  1.0000
  C   C22       1.0  0.39453  0.33711  0.25497  1.0000
  C   C23       1.0  0.39473  0.33995  0.22678  1.0000
  C   C24       1.0  0.38229  0.35573  0.21421  1.0000
  C   C25       1.0  0.37020  0.36927  0.23035  1.0000
  C   C26       1.0  0.36912  0.36560  0.25848  1.0000
  H   H15       1.0  0.40386  0.32456  0.26418  1.0000
  H   H16       1.0  0.40415  0.32935  0.21459  1.0000
  H   H17       1.0  0.36102  0.38191  0.22114  1.0000
  H   H18       1.0  0.35869  0.37523  0.27060  1.0000
  H   H19       1.0  0.35707  0.27689  0.01647  1.0000
  C   C27       1.0  0.38307  0.36979  0.01427  1.0000
  H   H20       1.0  0.43401  0.44387  0.17073  1.0000
  H   H21       1.0  0.48353  0.42212  0.05720  1.0000
  H   H22       1.0  0.33537  0.35190  0.01441  1.0000
  H   H23       1.0  0.02772  0.43095  0.23403  1.0000
  H   H24       1.0  0.41558  0.01315  0.19314  1.0000
  H   H25       1.0  0.11639  0.31475  0.00893  1.0000
  H   H26       1.0  0.09183  0.48869  0.13584  1.0000
  H   H27       1.0  0.06266  0.46561  0.18790  1.0000
  H   H28       1.0  0.44468  0.47825  0.22279  1.0000
  H   H29       1.0  0.46380  0.37189  0.29784  1.0000
  C   C28       1.0  0.12461  0.31455  0.08906  1.0000
  H   H30       1.0  0.09995  0.28762  0.05528  1.0000
  C   C29       1.0  0.09225  0.30797  0.00709  1.0000
  H   H31       1.0  0.45060  0.43869  0.20087  1.0000
  H   H32       1.0  0.22429  0.46338  0.18256  1.0000
  C   C30       1.0  0.40745  0.37313  0.99878  1.0000
  H   H33       1.0  0.04804  0.28513  0.04550  1.0000
  N   N2        1.0  0.45560  0.46841  0.00652  1.0000
  H   H34       1.0  0.07559  0.35091  0.99732  1.0000
  C   C31       1.0  0.47003  0.41365  0.28071  1.0000
  C   C32       1.0  0.12192  0.37832  0.01005  1.0000
  C   C33       1.0  0.40559  0.99730  0.00345  1.0000
  H   H35       1.0  0.21833  0.46355  0.08052  1.0000
  H   H36       1.0  0.24128  0.47368  0.12218  1.0000
  C   C34       1.0  0.42262  0.45862  0.00715  1.0000
  H   H37       1.0  0.37172  0.02874  0.22102  1.0000
  C   C35       1.0  0.99610  0.27959  0.02622  1.0000
  C   C36       1.0  0.35441  0.35478  0.00289  1.0000
  C   C37       1.0  0.43761  0.04603  0.14663  1.0000
  C   C38       1.0  0.05756  0.46362  0.04623  1.0000
  C   C39       1.0  0.46641  0.47250  0.30991  1.0000
  H   H38       1.0  0.07992  0.36453  0.03017  1.0000
  H   H39       1.0  0.44358  0.41472  0.17250  1.0000
  H   H40       1.0  0.43388  0.39709  0.30837  1.0000
  C   C40       1.0  0.20543  0.47511  0.08493  1.0000
  H   H41       1.0  0.00970  0.45641  0.29936  1.0000
  C   C41       1.0  0.10378  0.33212  0.05138  1.0000
  C   C42       1.0  0.09972  0.30498  0.06822  1.0000
  H   H42       1.0  0.06728  0.40155  0.24297  1.0000
  H   H43       1.0  0.07773  0.45154  0.21314  1.0000
  C   C43       1.0  0.45380  0.04899  0.17310  1.0000
  H   H44       1.0  0.45727  0.46461  0.04974  1.0000
  N   N3        1.0  0.00889  0.45419  0.25603  1.0000
  C   C44       1.0  0.02752  0.29587  0.01396  1.0000
  C   C45       1.0  0.43743  0.44390  0.26952  1.0000
  H   H45       1.0  0.01414  0.44961  0.21366  1.0000
  H   H46       1.0  0.44209  0.47624  0.09527  1.0000
  C   C46       1.0  0.99111  0.33326  0.22342  1.0000
  H   H47       1.0  0.43674  0.00145  0.17426  1.0000
  H   H48       1.0  0.99300  0.29443  0.04036  1.0000
  H   H49       1.0  0.10035  0.34717  0.06509  1.0000
  H   H50       1.0  0.12787  0.34482  0.04558  1.0000
  C   C47       1.0  0.37448  0.01276  0.26045  1.0000
  H   H51       1.0  0.46713  0.01859  0.31762  1.0000
  S   S15       1.0  0.37728  0.99035  0.31110  1.0000
  C   C48       1.0  0.46231  0.45598  0.03132  1.0000
  C   C49       1.0  0.08879  0.35430  0.01583  1.0000
  H   H52       1.0  0.47764  0.99961  0.17078  1.0000
  C   C50       1.0  0.46639  0.04233  0.26151  1.0000
  C   C51       1.0  0.21145  0.44575  0.16745  1.0000
  C   C52       1.0  0.35893  0.27676  0.99431  1.0000
  H   H53       1.0  0.06988  0.45618  0.05951  1.0000
  H   H54       1.0  0.45804  0.45173  0.25739  1.0000
  H   H55       1.0  0.12117  0.29476  0.10080  1.0000
  H   H56       1.0  0.13428  0.36838  0.00036  1.0000
  C   C53       1.0  0.00738  0.48251  0.25209  1.0000
  H   H57       1.0  0.40870  0.44381  0.22234  1.0000
  H   H58       1.0  0.45103  0.02108  0.27199  1.0000
  H   H59       1.0  0.04685  0.31853  0.05157  1.0000
  H   H60       1.0  0.13357  0.38869  0.02913  1.0000
  C   C54       1.0  0.04829  0.43786  0.31557  1.0000
  H   H61       1.0  0.17639  0.48916  0.11944  1.0000
  H   H62       1.0  0.99823  0.48251  0.23183  1.0000
  N   N4        1.0  0.27666  0.30881  0.19065  1.0000
  C   C55       1.0  0.26904  0.31661  0.16373  1.0000
  C   C56       1.0  0.29494  0.33739  0.20628  1.0000
  C   C57       1.0  0.29652  0.29539  0.18588  1.0000
  C   C58       1.0  0.24928  0.28662  0.20624  1.0000
  C   C59       1.0  0.21998  0.28781  0.20200  1.0000
  C   C60       1.0  0.25594  0.29100  0.14275  1.0000
  C   C61       1.0  0.30850  0.28732  0.21128  1.0000
  C   C62       1.0  0.27996  0.35631  0.21248  1.0000
  C   C63       1.0  0.30220  0.38595  0.22577  1.0000
  C   C64       1.0  0.19608  0.26829  0.22252  1.0000
  C   C65       1.0  0.24162  0.29831  0.11927  1.0000
  C   C66       1.0  0.32582  0.27144  0.20383  1.0000
  H   H63       1.0  0.28936  0.33566  0.15464  1.0000
  H   H64       1.0  0.25321  0.32514  0.16574  1.0000
  H   H65       1.0  0.30134  0.33263  0.22615  1.0000
  H   H66       1.0  0.31631  0.35209  0.19540  1.0000
  H   H67       1.0  0.31622  0.31078  0.17331  1.0000
  H   H68       1.0  0.28427  0.27417  0.17436  1.0000
  H   H69       1.0  0.24331  0.26321  0.20125  1.0000
  H   H70       1.0  0.25439  0.28893  0.22809  1.0000
  H   H71       1.0  0.21059  0.27927  0.18181  1.0000
  H   H72       1.0  0.22359  0.31077  0.20353  1.0000
  H   H73       1.0  0.27415  0.28782  0.13439  1.0000
  H   H74       1.0  0.23887  0.26952  0.15186  1.0000
  H   H75       1.0  0.28988  0.27235  0.22483  1.0000
  H   H76       1.0  0.32421  0.30762  0.22259  1.0000
  H   H77       1.0  0.27163  0.36189  0.19412  1.0000
  H   H78       1.0  0.26126  0.34417  0.22682  1.0000
  H   H79       1.0  0.32118  0.39972  0.21206  1.0000
  H   H80       1.0  0.29078  0.39882  0.23057  1.0000
  H   H81       1.0  0.31104  0.38188  0.24465  1.0000
  H   H82       1.0  0.20378  0.27672  0.24314  1.0000
  H   H83       1.0  0.17518  0.26893  0.21857  1.0000
  H   H84       1.0  0.19091  0.24466  0.22114  1.0000
  H   H85       1.0  0.25858  0.31898  0.10887  1.0000
  H   H86       1.0  0.23247  0.27959  0.10465  1.0000
  H   H87       1.0  0.22303  0.30164  0.12631  1.0000
  H   H88       1.0  0.34500  0.28590  0.19051  1.0000
  H   H89       1.0  0.33487  0.26675  0.22226  1.0000
  H   H90       1.0  0.31098  0.24988  0.19358  1.0000
  N   N5        1.0  0.45430  0.01799  0.21414  1.0000
  C   C67       1.0  0.46685  0.06768  0.27768  1.0000
  H   H91       1.0  0.48197  0.45430  0.14622  1.0000
  C   C68       1.0  0.45603  0.04229  0.23227  1.0000
  H   H92       1.0  0.18654  0.46623  0.15381  1.0000
  C   C69       1.0  0.47489  0.00287  0.32364  1.0000
  H   H93       1.0  0.05279  0.41934  0.32000  1.0000
  H   H94       1.0  0.36412  0.43685  0.02571  1.0000
  H   H95       1.0  0.00996  0.40985  0.29181  1.0000
  C   C70       1.0  0.04248  0.38427  0.99886  1.0000
  C   C71       1.0  0.99688  0.34143  0.25064  1.0000
  H   H96       1.0  0.42962  0.38401  0.00746  1.0000
  C   C72       1.0  0.37903  0.46150  0.02757  1.0000
  H   H97       1.0  0.38214  0.03417  0.27006  1.0000
  H   H98       1.0  0.45256  0.06657  0.18489  1.0000
  H   H99       1.0  0.41330  0.03730  0.15012  1.0000
  H   H100      1.0  0.44377  0.06407  0.27976  1.0000
  H   H101      1.0  0.43369  0.04080  0.23341  1.0000
  C   C73       1.0  0.05190  0.30623  0.03593  1.0000
  H   H102      1.0  0.22573  0.43700  0.15949  1.0000
  H   H103      1.0  0.07007  0.45910  0.31422  1.0000
  H   H104      1.0  0.04505  0.42936  0.27350  1.0000
  H   H105      1.0  0.16740  0.44231  0.04336  1.0000
  H   H106      1.0  0.47177  0.06485  0.22395  1.0000
  C   C74       1.0  0.02631  0.45172  0.23273  1.0000
  H   H107      1.0  0.34889  0.23099  0.99463  1.0000
  H   H108      1.0  0.99222  0.25911  0.03704  1.0000
  H   H109      1.0  0.11457  0.41578  0.00244  1.0000
  C   C75       1.0  0.45062  0.43804  0.17867  1.0000
  C   C76       1.0  0.04589  0.38264  0.23734  1.0000
  H   H110      1.0  0.40042  0.45382  0.26949  1.0000
  H   H111      1.0  0.18310  0.47106  0.01807  1.0000
  H   H112      1.0  0.41064  0.47940  0.22675  1.0000
  C   C77       1.0  0.02449  0.36629  0.25744  1.0000
  H   H113      1.0  0.02955  0.37255  0.27826  1.0000
  H   H114      1.0  0.39661  0.41044  0.30509  1.0000
  H   H115      1.0  0.42159  0.42095  0.26203  1.0000
  H   H116      1.0  0.44733  0.43125  0.03214  1.0000
  H   H117      1.0  0.42799  0.00232  0.00863  1.0000
  H   H118      1.0  0.40905  0.43369  0.00666  1.0000
  H   H119      1.0  0.03328  0.44996  0.05094  1.0000
  S   S16       1.0  0.37811  0.34468  0.30657  1.0000
  H   H120      1.0  0.47757  0.05662  0.16834  1.0000
  H   H121      1.0  0.19168  0.42701  0.17746  1.0000
  H   H122      1.0  0.04513  0.47849  0.28421  1.0000
  C   C78       1.0  0.41151  0.46911  0.03152  1.0000
  N   N6        1.0  0.44351  0.44235  0.29895  1.0000
  H   H123      1.0  0.41205  0.45755  0.05012  1.0000
  H   H124      1.0  0.14694  0.32471  0.07923  1.0000
  H   H125      1.0  0.44039  0.03072  0.13284  1.0000
  C   C79       1.0  0.48198  0.45945  0.16783  1.0000
  C   C80       1.0  0.03106  0.43147  0.28922  1.0000
  H   H126      1.0  0.12432  0.33110  0.10313  1.0000
  C   C81       1.0  0.45343  0.41951  0.30381  1.0000
  H   H127      1.0  0.06314  0.40036  0.00839  1.0000
  H   H128      1.0  0.20542  0.45632  0.03210  1.0000
  H   H129      1.0  0.43728  0.48680  0.26998  1.0000
  H   H130      1.0  0.48143  0.08971  0.26798  1.0000
  C   C82       1.0  0.48225  0.39355  0.29011  1.0000
  H   H131      1.0  0.02950  0.31492  0.00209  1.0000
  C   C83       1.0  0.22789  0.48371  0.12963  1.0000
  H   H132      1.0  0.98757  0.39119  0.25416  1.0000
  H   H133      1.0  0.02905  0.27966  0.00041  1.0000
  C   C84       1.0  0.41438  0.43199  0.31380  1.0000
  C   C85       1.0  0.19938  0.48676  0.05829  1.0000
  H   H134      1.0  0.45425  0.40188  0.26396  1.0000
  H   H135      1.0  0.07988  0.28362  0.01205  1.0000
  H   H136      1.0  0.47580  0.06815  0.29801  1.0000
  H   H137      1.0  0.37166  0.46937  0.04515  1.0000
  H   H138      1.0  0.45789  0.48850  0.30913  1.0000
  H   H139      1.0  0.37684  0.47271  0.00940  1.0000
  Fe  Fe9       1.0  0.45986  0.34592  0.36526  1.0000
  S   S17       1.0  0.42973  0.36531  0.36667  1.0000
  C   C86       1.0  0.47243  0.41591  0.43562  1.0000
  Fe  Fe10      1.0  0.40846  0.28200  0.37068  1.0000
  S   S18       1.0  0.37440  0.29779  0.37186  1.0000
  S   S19       1.0  0.38946  0.23133  0.37753  1.0000
  H   H140      1.0  0.46052  0.30408  0.59602  1.0000
  Fe  Fe11      1.0  0.40599  0.33332  0.40056  1.0000
  S   S20       1.0  0.39222  0.35450  0.43434  1.0000
  H   H141      1.0  0.45319  0.48846  0.55570  1.0000
  S   S21       1.0  0.43857  0.31627  0.40124  1.0000
  C   C87       1.0  0.36908  0.29838  0.64018  1.0000
  Fe  Fe12      1.0  0.41932  0.08656  0.37245  1.0000
  S   S22       1.0  0.37281  0.04578  0.37070  1.0000
  S   S23       1.0  0.43627  0.13692  0.36498  1.0000
  Fe  Fe13      1.0  0.44799  0.04762  0.38438  1.0000
  S   S24       1.0  0.40360  0.00519  0.38344  1.0000
  H   H142      1.0  0.47025  0.30731  0.63100  1.0000
  Fe  Fe14      1.0  0.39412  0.02411  0.34623  1.0000
  Fe  Fe15      1.0  0.38663  0.03001  0.40798  1.0000
  C   C88       1.0  0.12048  0.46505  0.50493  1.0000
  S   S25       1.0  0.43983  0.06540  0.34624  1.0000
  S   S26       1.0  0.43167  0.07189  0.41074  1.0000
  H   H143      1.0  0.40716  0.07826  0.59329  1.0000
  H   H144      1.0  0.22446  0.40563  0.65821  1.0000
  H   H145      1.0  0.04502  0.47801  0.50181  1.0000
  H   H146      1.0  0.32440  0.29611  0.60669  1.0000
  C   C89       1.0  0.01117  0.34788  0.44646  1.0000
  C   C90       1.0  0.03273  0.34440  0.46098  1.0000
  S   S27       1.0  0.00150  0.33293  0.41325  1.0000
  C   C91       1.0  0.40329  0.20567  0.37423  1.0000
  C   C92       1.0  0.43229  0.21450  0.36517  1.0000
  C   C93       1.0  0.44188  0.19320  0.36263  1.0000
  C   C94       1.0  0.42277  0.16274  0.36912  1.0000
  C   C95       1.0  0.39390  0.15399  0.37847  1.0000
  C   C96       1.0  0.38429  0.17527  0.38096  1.0000
  C   C97       1.0  0.42955  0.30889  0.62218  1.0000
  H   H147      1.0  0.44743  0.04371  0.60055  1.0000
  H   H148      1.0  0.37884  0.13075  0.38354  1.0000
  H   H149      1.0  0.36183  0.16801  0.38797  1.0000
  C   C98       1.0  0.38576  0.35146  0.46966  1.0000
  C   C99       1.0  0.38889  0.33084  0.48563  1.0000
  C   C100      1.0  0.37707  0.37047  0.48203  1.0000
  H   H150      1.0  0.39638  0.31670  0.47669  1.0000
  H   H151      1.0  0.37471  0.38666  0.47001  1.0000
  Fe  Fe16      1.0  0.35788  0.37425  0.58895  1.0000
  S   S28       1.0  0.36391  0.41985  0.58032  1.0000
  S   S29       1.0  0.36406  0.34258  0.56049  1.0000
  H   H152      1.0  0.37293  0.03116  0.57780  1.0000
  H   H153      1.0  0.47869  0.37140  0.45815  1.0000
  Fe  Fe17      1.0  0.32639  0.40741  0.61072  1.0000
  S   S30       1.0  0.29061  0.42176  0.60514  1.0000
  Fe  Fe18      1.0  0.39494  0.43557  0.61594  1.0000
  H   H154      1.0  0.03487  0.43933  0.33233  1.0000
  S   S31       1.0  0.31869  0.36076  0.61731  1.0000
  S   S32       1.0  0.39075  0.39062  0.62298  1.0000
  Fe  Fe19      1.0  0.11660  0.38959  0.60470  1.0000
  S   S33       1.0  0.06665  0.35717  0.59930  1.0000
  S   S34       1.0  0.14801  0.37025  0.61222  1.0000
  Fe  Fe20      1.0  0.10622  0.44277  0.60661  1.0000
  S   S35       1.0  0.05676  0.41431  0.60207  1.0000
  H   H155      1.0  0.29905  0.29325  0.63288  1.0000
  C   C101      1.0  0.31731  0.00370  0.59889  1.0000
  Fe  Fe21      1.0  0.06691  0.39037  0.56951  1.0000
  S   S36       1.0  0.03624  0.38424  0.53340  1.0000
  H   H156      1.0  0.37244  0.38637  0.34770  1.0000
  S   S37       1.0  0.11719  0.42115  0.57266  1.0000
  C   C102      1.0  0.41584  0.29966  0.65068  1.0000
  Fe  Fe22      1.0  0.05985  0.38347  0.63203  1.0000
  C   C103      1.0  0.02710  0.36970  0.50000  1.0000
  H   H157      1.0  0.05941  0.33551  0.65426  1.0000
  C   C104      1.0  0.04075  0.35530  0.48747  1.0000
  H   H158      1.0  0.44920  0.05851  0.64843  1.0000
  H   H159      1.0  0.05735  0.35237  0.49820  1.0000
  C   C105      1.0  0.18757  0.38459  0.60843  1.0000
  C   C106      1.0  0.10639  0.43900  0.48437  1.0000
  C   C107      1.0  0.23058  0.37618  0.61218  1.0000
  C   C108      1.0  0.25065  0.40615  0.60554  1.0000
  C   C109      1.0  0.23878  0.42504  0.60004  1.0000
  C   C110      1.0  0.20758  0.41438  0.60132  1.0000
  C   C111      1.0  0.45986  0.40395  0.53443  1.0000
  C   C112      1.0  0.45014  0.03695  0.54823  1.0000
  C   C113      1.0  0.38213  0.32842  0.51328  1.0000
  C   C114      1.0  0.37305  0.34719  0.52560  1.0000
  C   C115      1.0  0.37099  0.36855  0.50980  1.0000
  H   H160      1.0  0.38410  0.31200  0.52528  1.0000
  H   H161      1.0  0.36406  0.38318  0.51887  1.0000
  H   H162      1.0  0.00632  0.45818  0.53684  1.0000
  H   H163      1.0  0.09921  0.32383  0.65205  1.0000
  S   S38       1.0  0.98976  0.36756  0.34501  1.0000
  H   H164      1.0  0.44724  0.23767  0.35984  1.0000
  C   C116      1.0  0.38367  0.40944  0.35605  1.0000
  H   H165      1.0  0.02606  0.44300  0.55495  1.0000
  C   C117      1.0  0.01211  0.45272  0.64118  1.0000
  H   H166      1.0  0.29459  0.31495  0.40782  1.0000
  C   C118      1.0  0.41582  0.07145  0.61080  1.0000
  C   C119      1.0  0.41529  0.42793  0.34451  1.0000
  S   S39       1.0  0.35688  0.01005  0.44556  1.0000
  H   H167      1.0  0.41443  0.12637  0.65115  1.0000
  C   C120      1.0  0.02164  0.44902  0.53475  1.0000
  H   H168      1.0  0.31812  0.01374  0.57897  1.0000
  H   H169      1.0  0.45525  0.39218  0.43146  1.0000
  H   H170      1.0  0.46920  0.40217  0.55395  1.0000
  H   H171      1.0  0.06114  0.44215  0.50236  1.0000
  H   H172      1.0  0.38475  0.40771  0.37815  1.0000
  C   C121      1.0  0.43343  0.03412  0.65057  1.0000
  C   C122      1.0  0.37292  0.02163  0.59779  1.0000
  H   H173      1.0  0.48288  0.09034  0.44699  1.0000
  C   C123      1.0  0.07247  0.46005  0.51759  1.0000
  H   H174      1.0  0.41506  0.35240  0.63653  1.0000
  H   H175      1.0  0.46422  0.20037  0.35531  1.0000
  C   C124      1.0  0.99658  0.41812  0.64094  1.0000
  C   C125      1.0  0.38982  0.99460  0.48029  1.0000
  C   C126      1.0  0.00558  0.37322  0.48546  1.0000
  H   H176      1.0  0.08598  0.41971  0.49286  1.0000
  H   H177      1.0  0.41191  0.29926  0.60655  1.0000
  S   S40       1.0  0.35865  0.42689  0.64567  1.0000
  C   C127      1.0  0.31709  0.28833  0.62757  1.0000
  C   C128      1.0  0.34718  0.02182  0.61356  1.0000
  H   H178      1.0  0.38613  0.07211  0.64294  1.0000
  H   H179      1.0  0.40352  0.27470  0.65172  1.0000
  H   H180      1.0  0.01039  0.42843  0.52235  1.0000
  H   H181      1.0  0.42621  0.45016  0.35449  1.0000
  N   N7        1.0  0.10415  0.48228  0.50920  1.0000
  H   H182      1.0  0.10035  0.44600  0.46544  1.0000
  H   H183      1.0  0.44778  0.38824  0.48042  1.0000
  H   H184      1.0  0.12257  0.45538  0.52424  1.0000
  C   C129      1.0  0.40261  0.02505  0.63766  1.0000
  H   H185      1.0  0.44481  0.01325  0.54964  1.0000
  H   H186      1.0  0.38974  0.00026  0.63680  1.0000
  C   C130      1.0  0.46885  0.40983  0.48415  1.0000
  H   H187      1.0  0.27160  0.45139  0.65747  1.0000
  H   H188      1.0  0.07286  0.44855  0.53642  1.0000
  H   H189      1.0  0.18425  0.34244  0.61898  1.0000
  H   H190      1.0  0.08579  0.48190  0.47017  1.0000
  H   H191      1.0  0.14845  0.44535  0.46789  1.0000
  C   C131      1.0  0.40981  0.08467  0.63649  1.0000
  H   H192      1.0  0.33282  0.32357  0.40372  1.0000
  H   H193      1.0  0.44065  0.08390  0.60831  1.0000
  S   S41       1.0  0.44436  0.47038  0.61948  1.0000
  H   H194      1.0  0.11664  0.40826  0.46365  1.0000
  H   H195      1.0  0.42351  0.08410  0.65340  1.0000
  N   N8        1.0  0.32160  0.24679  0.44500  1.0000
  C   C132      1.0  0.32885  0.27805  0.43747  1.0000
  C   C133      1.0  0.34762  0.24872  0.46056  1.0000
  C   C134      1.0  0.31592  0.22869  0.41970  1.0000
  C   C135      1.0  0.29394  0.23167  0.46237  1.0000
  C   C136      1.0  0.29374  0.24964  0.48729  1.0000
  C   C137      1.0  0.30352  0.28073  0.42320  1.0000
  C   C138      1.0  0.31313  0.19743  0.42313  1.0000
  C   C139      1.0  0.37750  0.26098  0.44491  1.0000
  C   C140      1.0  0.40138  0.25936  0.46182  1.0000
  C   C141      1.0  0.26487  0.23187  0.50342  1.0000
  C   C142      1.0  0.31323  0.31349  0.41749  1.0000
  C   C143      1.0  0.30549  0.18060  0.39650  1.0000
  H   H196      1.0  0.34839  0.28842  0.42376  1.0000
  H   H197      1.0  0.33617  0.29291  0.45532  1.0000
  H   H198      1.0  0.35272  0.26364  0.47818  1.0000
  H   H199      1.0  0.34172  0.22644  0.46905  1.0000
  H   H200      1.0  0.33375  0.24140  0.40455  1.0000
  H   H201      1.0  0.29481  0.22474  0.41002  1.0000
  H   H202      1.0  0.27347  0.22568  0.45039  1.0000
  H   H203      1.0  0.29064  0.20995  0.47004  1.0000
  H   H204      1.0  0.29519  0.27110  0.48145  1.0000
  H   H205      1.0  0.31274  0.25472  0.50086  1.0000
  H   H206      1.0  0.29789  0.26888  0.40369  1.0000
  H   H207      1.0  0.28294  0.27128  0.43560  1.0000
  H   H208      1.0  0.29517  0.18340  0.43757  1.0000
  H   H209      1.0  0.33446  0.19948  0.43029  1.0000
  H   H210      1.0  0.37466  0.24806  0.42645  1.0000
  H   H211      1.0  0.38633  0.28471  0.43918  1.0000
  H   H212      1.0  0.40578  0.27257  0.48051  1.0000
  H   H213      1.0  0.39415  0.23572  0.46694  1.0000
  H   H214      1.0  0.42257  0.26867  0.45018  1.0000
  H   H215      1.0  0.24504  0.22697  0.49098  1.0000
  H   H216      1.0  0.26267  0.21050  0.51075  1.0000
  H   H217      1.0  0.26529  0.24523  0.52104  1.0000
  H   H218      1.0  0.45050  0.04265  0.52671  1.0000
  H   H219      1.0  0.31933  0.32663  0.43638  1.0000
  H   H220      1.0  0.23910  0.36120  0.61632  1.0000
  H   H221      1.0  0.28346  0.17641  0.38893  1.0000
  H   H222      1.0  0.32300  0.19359  0.38126  1.0000
  H   H223      1.0  0.30441  0.15869  0.39929  1.0000
  C   C144      1.0  0.34330  0.30461  0.64698  1.0000
  H   H224      1.0  0.47036  0.45681  0.44499  1.0000
  H   H225      1.0  0.99632  0.41379  0.59741  1.0000
  H   H226      1.0  0.36626  0.99770  0.59423  1.0000
  C   C145      1.0  0.19937  0.36559  0.61370  1.0000
  H   H227      1.0  0.25390  0.44822  0.59481  1.0000
  H   H228      1.0  0.41684  0.00737  0.59342  1.0000
  H   H229      1.0  0.43772  0.38343  0.53164  1.0000
  H   H230      1.0  0.07129  0.47354  0.58688  1.0000
  H   H231      1.0  0.43548  0.42232  0.44916  1.0000
  H   H232      1.0  0.14381  0.48037  0.49799  1.0000
  H   H233      1.0  0.43063  0.41494  0.40013  1.0000
  H   H234      1.0  0.13397  0.41974  0.49611  1.0000
  H   H235      1.0  0.22600  0.45472  0.64780  1.0000
  C   C146      1.0  0.45592  0.43415  0.43650  1.0000
  C   C147      1.0  0.42638  0.04105  0.56289  1.0000
  H   H236      1.0  0.45659  0.42366  0.53520  1.0000
  H   H237      1.0  0.38960  0.03052  0.65199  1.0000
  H   H238      1.0  0.47271  0.05176  0.55684  1.0000
  C   C148      1.0  0.05087  0.47238  0.52157  1.0000
  H   H239      1.0  0.03162  0.26777  0.64501  1.0000
  H   H240      1.0  0.40488  0.02699  0.55236  1.0000
  H   H241      1.0  0.02500  0.46130  0.62216  1.0000
  H   H242      1.0  0.19908  0.42937  0.59714  1.0000
  Fe  Fe23      1.0  0.40041  0.32896  0.33781  1.0000
  C   C149      1.0  0.42408  0.03173  0.59279  1.0000
  H   H243      1.0  0.05463  0.29660  0.62102  1.0000
  H   H244      1.0  0.35118  0.04494  0.61519  1.0000
  H   H245      1.0  0.34455  0.01189  0.63382  1.0000
  H   H246      1.0  0.04331  0.33311  0.45165  1.0000
  H   H247      1.0  0.35119  0.32883  0.64511  1.0000
  S   S42       1.0  0.43213  0.31079  0.33448  1.0000
  C   C150      1.0  0.41820  0.11732  0.63228  1.0000
  S   S43       1.0  0.10910  0.41376  0.63880  1.0000
  N   N9        1.0  0.40380  0.03799  0.61022  1.0000
  H   H248      1.0  0.06819  0.46665  0.64402  1.0000
  H   H249      1.0  0.46334  0.39908  0.64490  1.0000
  H   H250      1.0  0.42800  0.41666  0.34985  1.0000
  H   H251      1.0  0.35915  0.27362  0.63863  1.0000
  H   H252      1.0  0.29906  0.00356  0.61085  1.0000
  H   H253      1.0  0.37643  0.30750  0.61960  1.0000
  H   H254      1.0  0.43239  0.06485  0.56090  1.0000
  H   H255      1.0  0.44351  0.02194  0.64065  1.0000
  C   C151      1.0  0.44573  0.43744  0.40867  1.0000
  H   H256      1.0  0.47029  0.47053  0.33157  1.0000
  C   C152      1.0  0.12782  0.42752  0.47765  1.0000
  Fe  Fe24      1.0  0.35289  0.38101  0.65076  1.0000
  C   C153      1.0  0.45128  0.29747  0.61659  1.0000
  H   H257      1.0  0.44223  0.33361  0.61989  1.0000
  H   H258      1.0  0.46192  0.42695  0.48678  1.0000
  H   H259      1.0  0.30778  0.26373  0.62872  1.0000
  H   H260      1.0  0.40408  0.11906  0.61634  1.0000
  H   H261      1.0  0.43320  0.44975  0.41003  1.0000
  H   H262      1.0  0.01919  0.29222  0.63159  1.0000
  C   C154      1.0  0.99772  0.36252  0.45892  1.0000
  H   H263      1.0  0.43957  0.27264  0.61808  1.0000
  H   H264      1.0  0.37003  0.42008  0.35136  1.0000
  H   H265      1.0  0.40662  0.00206  0.46468  1.0000
  H   H266      1.0  0.99466  0.38411  0.49483  1.0000
  H   H267      1.0  0.99344  0.45761  0.64004  1.0000
  H   H268      1.0  0.46528  0.45001  0.39520  1.0000
  C   C155      1.0  0.03913  0.29103  0.63831  1.0000
  H   H269      1.0  0.47633  0.00326  0.34586  1.0000
  H   H270      1.0  0.44221  0.13114  0.62666  1.0000
  C   C156      1.0  0.36379  0.99625  0.47611  1.0000
  H   H271      1.0  0.31244  0.44235  0.65806  1.0000
  H   H272      1.0  0.47615  0.47845  0.53610  1.0000
  H   H273      1.0  0.01278  0.41020  0.64357  1.0000
  H   H274      1.0  0.48352  0.38685  0.51243  1.0000
  C   C157      1.0  0.48122  0.40714  0.51174  1.0000
  H   H275      1.0  0.26775  0.39642  0.65865  1.0000
  C   C158      1.0  0.41056  0.34489  0.65777  1.0000
  H   H276      1.0  0.19052  0.42462  0.65895  1.0000
  Fe  Fe25      1.0  0.46882  0.38010  0.88245  1.0000
  S   S44       1.0  0.42637  0.37960  0.87167  1.0000
  C   C159      1.0  0.28260  0.37967  0.69144  1.0000
  Fe  Fe26      1.0  0.44043  0.31190  0.87213  1.0000
  S   S45       1.0  0.39622  0.30799  0.86022  1.0000
  S   S46       1.0  0.45355  0.27526  0.87758  1.0000
  Fe  Fe27      1.0  0.42365  0.35104  0.83646  1.0000
  S   S47       1.0  0.42534  0.36932  0.79363  1.0000
  Fe  Fe28      1.0  0.40338  0.33769  0.89649  1.0000
  S   S48       1.0  0.36809  0.33039  0.92831  1.0000
  S   S49       1.0  0.46755  0.35331  0.84666  1.0000
  S   S50       1.0  0.44593  0.33960  0.90913  1.0000
  S   S51       1.0  0.34341  0.35722  0.69183  1.0000
  C   C160      1.0  0.46287  0.45537  0.98232  1.0000
  H   H277      1.0  0.38569  0.25297  0.88724  1.0000
  Fe  Fe29      1.0  0.40991  0.09626  0.86912  1.0000
  S   S52       1.0  0.37355  0.04730  0.86655  1.0000
  S   S53       1.0  0.39773  0.13321  0.86043  1.0000
  Fe  Fe30      1.0  0.45695  0.07854  0.88250  1.0000
  S   S54       1.0  0.42424  0.02924  0.88074  1.0000
  H   H278      1.0  0.99840  0.44150  0.74359  1.0000
  Fe  Fe31      1.0  0.40675  0.03982  0.84296  1.0000
  C   C161      1.0  0.45596  0.39604  0.66615  1.0000
  Fe  Fe32      1.0  0.39371  0.04011  0.90436  1.0000
  H   H279      1.0  0.21713  0.40961  0.69239  1.0000
  S   S55       1.0  0.44204  0.08893  0.84351  1.0000
  S   S56       1.0  0.42749  0.08927  0.90815  1.0000
  H   H280      1.0  0.15954  0.36232  0.67532  1.0000
  H   H281      1.0  0.23912  0.38921  0.72898  1.0000
  H   H282      1.0  0.24257  0.33536  0.68897  1.0000
  H   H283      1.0  0.12276  0.37202  0.67124  1.0000
  H   H284      1.0  0.45308  0.44835  0.86549  1.0000
  H   H285      1.0  0.45641  0.47273  0.83818  1.0000
  H   H286      1.0  0.98755  0.47462  0.89056  1.0000
  C   C162      1.0  0.01482  0.45914  0.69078  1.0000
  C   C163      1.0  0.02019  0.36221  0.69934  1.0000
  H   H287      1.0  0.45742  0.15207  0.84318  1.0000
  H   H288      1.0  0.43497  0.16591  0.80665  1.0000
  C   C164      1.0  0.01465  0.35996  0.75625  1.0000
  C   C165      1.0  0.04272  0.37721  0.74366  1.0000
  C   C166      1.0  0.04544  0.37855  0.71546  1.0000
  C   C167      1.0  0.12484  0.32669  0.70091  1.0000
  H   H289      1.0  0.06250  0.38965  0.75590  1.0000
  H   H290      1.0  0.06703  0.39216  0.70623  1.0000
  C   C168      1.0  0.48311  0.45082  0.83392  1.0000
  C   C169      1.0  0.01247  0.36418  0.95777  1.0000
  C   C170      1.0  0.03938  0.38463  0.97072  1.0000
  H   H291      1.0  0.05795  0.40097  0.95883  1.0000
  H   H292      1.0  0.08926  0.36677  0.68542  1.0000
  H   H293      1.0  0.30600  0.38990  0.68412  1.0000
  C   C171      1.0  0.43717  0.23562  0.87281  1.0000
  C   C172      1.0  0.45031  0.22053  0.88552  1.0000
  C   C173      1.0  0.43827  0.18927  0.88251  1.0000
  C   C174      1.0  0.41325  0.17260  0.86615  1.0000
  C   C175      1.0  0.39995  0.18766  0.85366  1.0000
  C   C176      1.0  0.41172  0.21885  0.85699  1.0000
  H   H294      1.0  0.48057  0.29339  0.96868  1.0000
  H   H295      1.0  0.44818  0.17800  0.89294  1.0000
  H   H296      1.0  0.38051  0.17510  0.84105  1.0000
  H   H297      1.0  0.40142  0.22998  0.84686  1.0000
  C   C177      1.0  0.40155  0.36632  0.76622  1.0000
  C   C178      1.0  0.37073  0.34579  0.76588  1.0000
  C   C179      1.0  0.35335  0.34347  0.74307  1.0000
  C   C180      1.0  0.36631  0.36193  0.72044  1.0000
  C   C181      1.0  0.39696  0.38290  0.72104  1.0000
  C   C182      1.0  0.41444  0.38487  0.74362  1.0000
  H   H298      1.0  0.36037  0.33133  0.78299  1.0000
  H   H299      1.0  0.32966  0.32716  0.74297  1.0000
  H   H300      1.0  0.40720  0.39762  0.70411  1.0000
  H   H301      1.0  0.43814  0.40096  0.74356  1.0000
  C   C183      1.0  0.37473  0.34675  0.96101  1.0000
  H   H302      1.0  0.18645  0.34679  0.70684  1.0000
  C   C184      1.0  0.45553  0.43984  0.93334  1.0000
  H   H303      1.0  0.34342  0.23892  0.85700  1.0000
  H   H304      1.0  0.48096  0.42920  0.84031  1.0000
  C   C185      1.0  0.06247  0.31307  0.76675  1.0000
  H   H305      1.0  0.26987  0.40261  0.77032  1.0000
  H   H306      1.0  0.06194  0.33025  0.71709  1.0000
  H   H307      1.0  0.99871  0.48065  0.82874  1.0000
  H   H308      1.0  0.37735  0.27283  0.94609  1.0000
  H   H309      1.0  0.02426  0.47797  0.70540  1.0000
  C   C186      1.0  0.25624  0.41326  0.76557  1.0000
  H   H310      1.0  0.37504  0.03475  0.76955  1.0000
  H   H311      1.0  0.05505  0.32994  0.76597  1.0000
  C   C187      1.0  0.46561  0.28260  0.95125  1.0000
  H   H312      1.0  0.41683  0.00129  0.68287  1.0000
  C   C188      1.0  0.09041  0.28862  0.95986  1.0000
  C   C189      1.0  0.08399  0.31414  0.66962  1.0000
  H   H313      1.0  0.45687  0.41954  0.93844  1.0000
  H   H314      1.0  0.46984  0.23309  0.89801  1.0000
  H   H315      1.0  0.37605  0.31519  0.69673  1.0000
  C   C190      1.0  0.26298  0.44280  0.67805  1.0000
  H   H316      1.0  0.43475  0.36132  0.69558  1.0000
  C   C191      1.0  0.28126  0.43146  0.72034  1.0000
  H   H317      1.0  0.07291  0.26548  0.96537  1.0000
  H   H318      1.0  0.34187  0.24000  0.94904  1.0000
  H   H319      1.0  0.26786  0.43660  0.77331  1.0000
  H   H320      1.0  0.40630  0.28655  0.74937  1.0000
  C   C192      1.0  0.40050  0.00675  0.97834  1.0000
  H   H321      1.0  0.23679  0.42300  0.73205  1.0000
  C   C193      1.0  0.08424  0.48249  0.68390  1.0000
  H   H322      1.0  0.05082  0.43887  0.66859  1.0000
  H   H323      1.0  0.42687  0.31692  0.70838  1.0000
  H   H324      1.0  0.43499  0.30693  0.66460  1.0000
  H   H325      1.0  0.42242  0.36464  0.96089  1.0000
  H   H326      1.0  0.23433  0.40049  0.77598  1.0000
  H   H327      1.0  0.24325  0.38327  0.68632  1.0000
  C   C194      1.0  0.37525  0.01620  0.75967  1.0000
  H   H328      1.0  0.34914  0.19178  0.96557  1.0000
  H   H329      1.0  0.15065  0.43352  0.72146  1.0000
  C   C195      1.0  0.38577  0.99963  0.77356  1.0000
  C   C196      1.0  0.05824  0.46275  0.66446  1.0000
  H   H330      1.0  0.41973  0.03677  0.69146  1.0000
  C   C197      1.0  0.17582  0.33356  0.68847  1.0000
  C   C198      1.0  0.40443  0.29666  0.70740  1.0000
  C   C199      1.0  0.08726  0.31152  0.97686  1.0000
  H   H331      1.0  0.38398  0.21448  0.98140  1.0000
  N   N10       1.0  0.09878  0.33146  0.69484  1.0000
  C   C200      1.0  0.98861  0.34337  0.97357  1.0000
  H   H332      1.0  0.05948  0.29484  0.71389  1.0000
  H   H333      1.0  0.31803  0.21038  0.87985  1.0000
  N   N11       1.0  0.37883  0.23149  0.94301  1.0000
  H   H334      1.0  0.00214  0.44644  0.79528  1.0000
  H   H335      1.0  0.41995  0.23891  0.92464  1.0000
  C   C201      1.0  0.43045  0.02597  0.68028  1.0000
  H   H336      1.0  0.07093  0.31328  0.78726  1.0000
  H   H337      1.0  0.26602  0.34660  0.65931  1.0000
  H   H338      1.0  0.11644  0.30233  0.70409  1.0000
  H   H339      1.0  0.41886  0.01879  0.96448  1.0000
  C   C202      1.0  0.38340  0.30029  0.68732  1.0000
  H   H340      1.0  0.15391  0.42419  0.68732  1.0000
  S   S57       1.0  0.01305  0.35830  0.79201  1.0000
  H   H341      1.0  0.33744  0.27267  0.98539  1.0000
  S   S58       1.0  0.36369  0.01174  0.93962  1.0000
  C   C203      1.0  0.21397  0.44023  0.66524  1.0000
  C   C204      1.0  0.38060  0.16184  0.97291  1.0000
  H   H342      1.0  0.46593  0.43601  0.79393  1.0000
  C   C205      1.0  0.13835  0.41842  0.70450  1.0000
  H   H343      1.0  0.36285  0.27772  0.68652  1.0000
  H   H344      1.0  0.42008  0.43038  0.96083  1.0000
  H   H345      1.0  0.47813  0.45827  0.92760  1.0000
  C   C206      1.0  0.10890  0.36400  0.68975  1.0000
  H   H346      1.0  0.28272  0.37910  0.71365  1.0000
  H   H347      1.0  0.42854  0.28337  0.96962  1.0000
  C   C207      1.0  0.37361  0.20608  0.96153  1.0000
  H   H348      1.0  0.32621  0.43824  0.68960  1.0000
  H   H349      1.0  0.10639  0.34276  0.75134  1.0000
  H   H350      1.0  0.35607  0.25534  0.90408  1.0000
  H   H351      1.0  0.11229  0.39435  0.97289  1.0000
  H   H352      1.0  0.21388  0.45445  0.68188  1.0000
  H   H353      1.0  0.28988  0.45511  0.72648  1.0000
  H   H354      1.0  0.00634  0.41233  0.69292  1.0000
  H   H355      1.0  0.47602  0.40877  0.67901  1.0000
  C   C208      1.0  0.25119  0.41295  0.73536  1.0000
  H   H356      1.0  0.44167  0.46897  0.95069  1.0000
  H   H357      1.0  0.37319  0.17263  0.93345  1.0000
  H   H358      1.0  0.40964  0.19803  0.94712  1.0000
  C   C209      1.0  0.31204  0.44626  0.67996  1.0000
  H   H359      1.0  0.03582  0.43811  0.71416  1.0000
  H   H360      1.0  0.34740  0.20668  0.86352  1.0000
  H   H361      1.0  0.14527  0.38368  0.71982  1.0000
  H   H362      1.0  0.09118  0.44702  0.69931  1.0000
  H   H363      1.0  0.33858  0.20072  0.92152  1.0000
  C   C210      1.0  0.47600  0.01271  0.92548  1.0000
  H   H364      1.0  0.46961  0.30025  0.93633  1.0000
  C   C211      1.0  0.26604  0.34726  0.68157  1.0000
  H   H365      1.0  0.41472  0.27014  0.92324  1.0000
  H   H366      1.0  0.11049  0.38167  0.72992  1.0000
  H   H367      1.0  0.11293  0.29107  0.96261  1.0000
  C   C212      1.0  0.41155  0.25141  0.93649  1.0000
  H   H368      1.0  0.38872  0.14695  0.96516  1.0000
  H   H369      1.0  0.37222  0.20530  0.90695  1.0000
  H   H370      1.0  0.43471  0.43242  0.83408  1.0000
  C   C213      1.0  0.36244  0.21760  0.91719  1.0000
  C   C214      1.0  0.40342  0.36202  0.97232  1.0000
  H   H371      1.0  0.16768  0.30949  0.69248  1.0000
  H   H372      1.0  0.06498  0.30888  0.97272  1.0000
  C   C215      1.0  0.01348  0.43207  0.70596  1.0000
  C   C216      1.0  0.36284  0.23966  0.89577  1.0000
  C   C217      1.0  0.08729  0.32051  0.74623  1.0000
  C   C218      1.0  0.36590  0.24975  0.95477  1.0000
  N   N12       1.0  0.28020  0.42897  0.69023  1.0000
  H   H373      1.0  0.03801  0.30624  0.67787  1.0000
  C   C219      1.0  0.32877  0.48075  0.68420  1.0000
  H   H374      1.0  0.36882  0.26961  0.73594  1.0000
  H   H375      1.0  0.09477  0.30380  0.74865  1.0000
  C   C220      1.0  0.98928  0.34418  0.74010  1.0000
  H   H376      1.0  0.37716  0.29914  0.98788  1.0000
  C   C221      1.0  0.12600  0.38585  0.71294  1.0000
  C   C222      1.0  0.45621  0.16580  0.80304  1.0000
  H   H377      1.0  0.43051  0.24971  0.97576  1.0000
  S   S59       1.0  0.02233  0.36206  0.66363  1.0000
  H   H378      1.0  0.07918  0.29058  0.67160  1.0000
  N   N13       1.0  0.03224  0.46852  0.66475  1.0000
  H   H379      1.0  0.13594  0.33755  0.71996  1.0000
  H   H380      1.0  0.46970  0.02925  0.91835  1.0000
  C   C223      1.0  0.44317  0.44915  0.95693  1.0000
  C   C224      1.0  0.07575  0.31909  0.71721  1.0000
  H   H381      1.0  0.11375  0.46639  0.67019  1.0000
  H   H382      1.0  0.32796  0.33130  0.96817  1.0000
  C   C225      1.0  0.43291  0.26634  0.96044  1.0000
  H   H383      1.0  0.35659  0.02159  0.72264  1.0000
  C   C226      1.0  0.99209  0.34524  0.71188  1.0000
  C   C227      1.0  0.26721  0.39697  0.68092  1.0000
  S   S60       1.0  0.01047  0.36537  0.92196  1.0000
  C   C228      1.0  0.38531  0.18517  0.95164  1.0000
  C   C229      1.0  0.39133  0.29006  0.73567  1.0000
  C   C230      1.0  0.34159  0.22276  0.87267  1.0000
  H   H384      1.0  0.11983  0.42229  0.69868  1.0000
  H   H385      1.0  0.47664  0.19178  0.83828  1.0000
  S   S61       1.0  0.39938  0.00786  0.80742  1.0000
  H   H386      1.0  0.40727  0.27748  0.70132  1.0000
  H   H387      1.0  0.19300  0.34119  0.67238  1.0000
  H   H388      1.0  0.47148  0.26658  0.94204  1.0000
  H   H389      1.0  0.27747  0.33527  0.68912  1.0000
  H   H390      1.0  0.26668  0.46269  0.68987  1.0000
  H   H391      1.0  0.10416  0.33410  0.96958  1.0000
  C   C231      1.0  0.45507  0.45114  0.84338  1.0000
  H   H392      1.0  0.08759  0.29224  0.93835  1.0000
  C   C232      1.0  0.35029  0.34318  0.97656  1.0000
  C   C233      1.0  0.43994  0.36285  0.67386  1.0000
  C   C234      1.0  0.37168  0.00062  0.97120  1.0000
  C   C235      1.0  0.22868  0.42222  0.67412  1.0000
  H   H393      1.0  0.29772  0.42555  0.72863  1.0000
  H   H394      1.0  0.47305  0.01073  0.94758  1.0000
  C   C236      1.0  0.36475  0.00863  0.73298  1.0000
  H   H395      1.0  0.45051  0.14382  0.79415  1.0000
  C   C237      1.0  0.15000  0.33806  0.67936  1.0000
  H   H396      1.0  0.38951  0.30927  0.74329  1.0000
  H   H397      1.0  0.45294  0.03361  0.68902  1.0000
  H   H398      1.0  0.04287  0.29051  0.76294  1.0000
  H   H399      1.0  0.39332  0.17287  0.99141  1.0000
  H   H400      1.0  0.44041  0.43440  0.91581  1.0000
  H   H401      1.0  0.14815  0.41954  0.98772  1.0000
  H   H402      1.0  0.35642  0.14777  0.97785  1.0000
  C   C238      1.0  0.10425  0.46909  0.68926  1.0000
  H   H403      1.0  0.33452  0.29725  0.66755  1.0000
  H   H404      1.0  0.37370  0.48675  0.68015  1.0000
  H   H405      1.0  0.39530  0.35270  0.66530  1.0000
  H   H406      1.0  0.45594  0.35482  0.67027  1.0000
  H   H407      1.0  0.99137  0.45406  0.68735  1.0000
  C   C239      1.0  0.47271  0.17042  0.82959  1.0000
  H   H408      1.0  0.46058  0.43322  0.98727  1.0000
  N   N14       1.0  0.39536  0.31121  0.65933  1.0000
  H   H409      1.0  0.44100  0.40559  0.66883  1.0000
  H   H410      1.0  0.14150  0.32565  0.66028  1.0000
  C   C240      1.0  0.36616  0.25261  0.98576  1.0000
  H   H411      1.0  0.99224  0.40401  0.74072  1.0000
  C   C241      1.0  0.99179  0.42249  0.72961  1.0000
  H   H412      1.0  0.47009  0.18407  0.78873  1.0000
  H   H413      1.0  0.41594  0.46622  0.98898  1.0000
  C   C242      1.0  0.05444  0.31310  0.66126  1.0000
  H   H414      1.0  0.46068  0.99075  0.91603  1.0000
  H   H415      1.0  0.12308  0.48420  0.70254  1.0000
  H   H416      1.0  0.07565  0.48537  0.70339  1.0000
  H   H417      1.0  0.33197  0.48633  0.70584  1.0000
  C   C243      1.0  0.98395  0.47369  0.81085  1.0000
  H   H418      1.0  0.98487  0.48866  0.76976  1.0000
  C   C244      1.0  0.12423  0.40346  0.99214  1.0000
  Fe  Fe33      1.0  0.06199  0.63968  0.09081  1.0000
  S   S62       1.0  0.10998  0.65128  0.09819  1.0000
  S   S63       1.0  0.03729  0.61572  0.05195  1.0000
  Fe  Fe34      1.0  0.05232  0.64902  0.15144  1.0000
  S   S64       1.0  0.09948  0.66158  0.16207  1.0000
  S   S65       1.0  0.01627  0.64626  0.18060  1.0000
  Fe  Fe35      1.0  0.11401  0.68939  0.12406  1.0000
  S   S66       1.0  0.14939  0.74007  0.12494  1.0000
  Fe  Fe36      1.0  0.09185  0.62297  0.13549  1.0000
  S   S67       1.0  0.09606  0.58435  0.15248  1.0000
  S   S68       1.0  0.06658  0.67891  0.11468  1.0000
  S   S69       1.0  0.04408  0.60932  0.12681  1.0000
  Fe  Fe37      1.0  0.32420  0.88644  0.12269  1.0000
  S   S70       1.0  0.32420  0.92977  0.11443  1.0000
  S   S71       1.0  0.29010  0.83682  0.11385  1.0000
  Fe  Fe38      1.0  0.39101  0.92040  0.13749  1.0000
  S   S72       1.0  0.39508  0.96497  0.13011  1.0000
  S   S73       1.0  0.43171  0.92121  0.15532  1.0000
  Fe  Fe39      1.0  0.35181  0.94660  0.15282  1.0000
  H   H419      1.0  0.45795  0.97996  0.31706  1.0000
  Fe  Fe40      1.0  0.36807  0.94510  0.09259  1.0000
  H   H420      1.0  0.39710  0.80028  0.14902  1.0000
  S   S74       1.0  0.34897  0.90254  0.16205  1.0000
  S   S75       1.0  0.36682  0.90125  0.09905  1.0000
  C   C245      1.0  0.45388  0.91065  0.13677  1.0000
  C   C246      1.0  0.44487  0.89720  0.11163  1.0000
  C   C247      1.0  0.46259  0.88788  0.09790  1.0000
  H   H421      1.0  0.31559  0.54066  0.06456  1.0000
  H   H422      1.0  0.42412  0.89367  0.10296  1.0000
  H   H423      1.0  0.45541  0.87708  0.07860  1.0000
  H   H424      1.0  0.26748  0.82918  0.06072  1.0000
  H   H425      1.0  0.42519  0.49364  0.03455  1.0000
  H   H426      1.0  0.09336  0.50918  0.04736  1.0000
  H   H427      1.0  0.10521  0.55768  0.04999  1.0000
  H   H428      1.0  0.14660  0.61003  0.05199  1.0000
  H   H429      1.0  0.26902  0.81034  0.17498  1.0000
  H   H430      1.0  0.21893  0.77724  0.01894  1.0000
  C   C248      1.0  0.98903  0.60602  0.26632  1.0000
  H   H431      1.0  0.09454  0.60111  0.05207  1.0000
  C   C249      1.0  0.00692  0.63119  0.21389  1.0000
  C   C250      1.0  0.02079  0.61687  0.22625  1.0000
  C   C251      1.0  0.01192  0.60445  0.25222  1.0000
  H   H432      1.0  0.04683  0.70720  0.32130  1.0000
  H   H433      1.0  0.01566  0.69074  0.10910  1.0000
  H   H434      1.0  0.03827  0.61521  0.21573  1.0000
  H   H435      1.0  0.02285  0.59342  0.26140  1.0000
  C   C252      1.0  0.02254  0.62352  0.02250  1.0000
  N   N15       1.0  0.05965  0.54004  0.03662  1.0000
  H   H436      1.0  0.08073  0.66227  0.29954  1.0000
  H   H437      1.0  0.37989  0.86389  0.16443  1.0000
  H   H438      1.0  0.03688  0.66958  0.03143  1.0000
  C   C253      1.0  0.18874  0.76642  0.12205  1.0000
  C   C254      1.0  0.20948  0.75832  0.11315  1.0000
  C   C255      1.0  0.24019  0.78018  0.11067  1.0000
  C   C256      1.0  0.25086  0.81041  0.11744  1.0000
  C   C257      1.0  0.23018  0.81854  0.12640  1.0000
  C   C258      1.0  0.19940  0.79676  0.12849  1.0000
  H   H439      1.0  0.20179  0.73523  0.10794  1.0000
  H   H440      1.0  0.25577  0.77350  0.10346  1.0000
  H   H441      1.0  0.23780  0.84159  0.13171  1.0000
  H   H442      1.0  0.18366  0.80340  0.13537  1.0000
  C   C259      1.0  0.10378  0.56022  0.13338  1.0000
  C   C260      1.0  0.12182  0.57023  0.11048  1.0000
  C   C261      1.0  0.12965  0.55105  0.09717  1.0000
  C   C262      1.0  0.11875  0.52154  0.10615  1.0000
  H   H443      1.0  0.25261  0.91381  0.04905  1.0000
  C   C263      1.0  0.09309  0.53076  0.14244  1.0000
  H   H444      1.0  0.13054  0.59303  0.10363  1.0000
  H   H445      1.0  0.34582  0.93575  0.22548  1.0000
  H   H446      1.0  0.03105  0.65077  0.30837  1.0000
  H   H447      1.0  0.07937  0.52300  0.16030  1.0000
  C   C264      1.0  0.44493  0.51238  0.11897  1.0000
  C   C265      1.0  0.04200  0.54725  0.01681  1.0000
  H   H448      1.0  0.47319  0.51119  0.02666  1.0000
  H   H449      1.0  0.28389  0.92309  0.01568  1.0000
  H   H450      1.0  0.00148  0.51538  0.05980  1.0000
  H   H451      1.0  0.36309  0.90306  0.03949  1.0000
  H   H452      1.0  0.30858  0.88058  0.06409  1.0000
  C   C266      1.0  0.10019  0.51134  0.12868  1.0000
  H   H453      1.0  0.09434  0.60142  0.01603  1.0000
  H   H454      1.0  0.25537  0.85660  0.99912  1.0000
  H   H455      1.0  0.01762  0.53117  0.01892  1.0000
  H   H456      1.0  0.26195  0.50327  0.06553  1.0000
  H   H457      1.0  0.36241  0.88809  0.00676  1.0000
  H   H458      1.0  0.45004  0.98407  0.24242  1.0000
  C   C267      1.0  0.00740  0.60045  0.00365  1.0000
  H   H459      1.0  0.04444  0.56952  0.02128  1.0000
  H   H460      1.0  0.00441  0.70359  0.29485  1.0000
  N   N16       1.0  0.35227  0.81597  0.15973  1.0000
  H   H461      1.0  0.04666  0.57137  0.32186  1.0000
  C   C268      1.0  0.32522  0.81506  0.17262  1.0000
  H   H462      1.0  0.12598  0.70470  0.28037  1.0000
  H   H463      1.0  0.39513  0.79957  0.18461  1.0000
  H   H464      1.0  0.35579  0.94107  0.27451  1.0000
  H   H465      1.0  0.40060  0.75801  0.16776  1.0000
  H   H466      1.0  0.00992  0.64731  0.08074  1.0000
  H   H467      1.0  0.24415  0.53871  0.08318  1.0000
  H   H468      1.0  0.37540  0.85105  0.08168  1.0000
  H   H469      1.0  0.01039  0.54733  0.10002  1.0000
  C   C269      1.0  0.35030  0.82031  0.12998  1.0000
  H   H470      1.0  0.19177  0.55234  0.16511  1.0000
  C   C270      1.0  0.46196  0.54312  0.12459  1.0000
  H   H471      1.0  0.25878  0.90811  0.10970  1.0000
  C   C271      1.0  0.09285  0.56133  0.03356  1.0000
  H   H472      1.0  0.25682  0.93805  0.09291  1.0000
  C   C272      1.0  0.02455  0.68666  0.32304  1.0000
  C   C273      1.0  0.08873  0.68469  0.30829  1.0000
  C   C274      1.0  0.22288  0.81288  0.04515  1.0000
  C   C275      1.0  0.38258  0.78808  0.16622  1.0000
  H   H473      1.0  0.35029  0.84166  0.12630  1.0000
  H   H474      1.0  0.27154  0.78864  0.20241  1.0000
  H   H475      1.0  0.26107  0.53992  0.11419  1.0000
  C   C276      1.0  0.21395  0.78024  0.03998  1.0000
  C   C277      1.0  0.02539  0.65153  0.01722  1.0000
  H   H476      1.0  0.14346  0.63858  0.03387  1.0000
  C   C278      1.0  0.00198  0.68334  0.09052  1.0000
  C   C279      1.0  0.20871  0.52953  0.14013  1.0000
  C   C280      1.0  0.37985  0.84308  0.17055  1.0000
  C   C281      1.0  0.29965  0.54635  0.07421  1.0000
  H   H477      1.0  0.42850  0.94194  0.03001  1.0000
  C   C282      1.0  0.30202  0.88346  0.04348  1.0000
  C   C283      1.0  0.01921  0.51854  0.07415  1.0000
  H   H478      1.0  0.42555  0.88680  0.20262  1.0000
  H   H479      1.0  0.31751  0.85252  0.03173  1.0000
  C   C284      1.0  0.13699  0.61453  0.03382  1.0000
  H   H480      1.0  0.37054  0.85434  0.21038  1.0000
  H   H481      1.0  0.23474  0.86986  0.01689  1.0000
  H   H482      1.0  0.39762  0.83667  0.11891  1.0000
  H   H483      1.0  0.47605  0.49667  0.15696  1.0000
  H   H484      1.0  0.26492  0.82627  0.02537  1.0000
  C   C285      1.0  0.05332  0.50856  0.03156  1.0000
  C   C286      1.0  0.48094  0.91540  0.14783  1.0000
  H   H485      1.0  0.18951  0.76562  0.04355  1.0000
  H   H486      1.0  0.21978  0.50647  0.05033  1.0000
  H   H487      1.0  0.39889  0.96004  0.20092  1.0000
  C   C287      1.0  0.25734  0.83390  0.04302  1.0000
  C   C288      1.0  0.27177  0.51765  0.08342  1.0000
  H   H488      1.0  0.45260  0.95829  0.00137  1.0000
  S   S76       1.0  0.12916  0.49824  0.08897  1.0000
  H   H489      1.0  0.31177  0.90803  0.04136  1.0000
  C   C289      1.0  0.38335  0.84434  0.20154  1.0000
  N   N17       1.0  0.26828  0.86710  0.04094  1.0000
  H   H490      1.0  0.41749  0.86427  0.23237  1.0000
  H   H491      1.0  0.45442  0.55279  0.13981  1.0000
  H   H492      1.0  0.21511  0.81386  0.06571  1.0000
  H   H493      1.0  0.98936  0.50803  0.10825  1.0000
  H   H494      1.0  0.99087  0.59249  0.09189  1.0000
  H   H495      1.0  0.05088  0.56507  0.06656  1.0000
  H   H496      1.0  0.10159  0.55657  0.01495  1.0000
  H   H497      1.0  0.22530  0.90043  0.09163  1.0000
  H   H498      1.0  0.48055  0.98034  0.19997  1.0000
  C   C290      1.0  0.35183  0.78697  0.16553  1.0000
  H   H499      1.0  0.21078  0.81930  0.03060  1.0000
  H   H500      1.0  0.23049  0.86231  0.06414  1.0000
  C   C291      1.0  0.05057  0.54338  0.06462  1.0000
  C   C292      1.0  0.26299  0.90845  0.06605  1.0000
  H   H501      1.0  0.27927  0.50601  0.09748  1.0000
  H   H502      1.0  0.30750  0.86761  0.00375  1.0000
  C   C293      1.0  0.37477  0.82024  0.11205  1.0000
  C   C294      1.0  0.37192  0.82804  0.08304  1.0000
  H   H503      1.0  0.36474  0.74367  0.18402  1.0000
  H   H504      1.0  0.33504  0.96403  0.02888  1.0000
  C   C295      1.0  0.19906  0.50855  0.11543  1.0000
  H   H505      1.0  0.33706  0.76956  0.15082  1.0000
  H   H506      1.0  0.06714  0.54465  0.07966  1.0000
  C   C296      1.0  0.35399  0.95730  0.23497  1.0000
  H   H507      1.0  0.22612  0.77307  0.05374  1.0000
  H   H508      1.0  0.34143  0.77792  0.18546  1.0000
  H   H509      1.0  0.37214  0.79751  0.11184  1.0000
  H   H510      1.0  0.34945  0.81195  0.07487  1.0000
  H   H511      1.0  0.32449  0.83578  0.16752  1.0000
  C   C297      1.0  0.31834  0.87307  0.02374  1.0000
  H   H512      1.0  0.38925  0.82705  0.07055  1.0000
  C   C298      1.0  0.35962  0.96039  0.26285  1.0000
  C   C299      1.0  0.37838  0.75656  0.16647  1.0000
  H   H513      1.0  0.14437  0.55916  0.07997  1.0000
  H   H514      1.0  0.29354  0.55852  0.05940  1.0000
  H   H515      1.0  0.01624  0.69682  0.07347  1.0000
  H   H516      1.0  0.36721  0.74446  0.14777  1.0000
  C   C300      1.0  0.24900  0.52478  0.09712  1.0000
  C   C301      1.0  0.48148  0.51842  0.08530  1.0000
  H   H517      1.0  0.18121  0.54956  0.13037  1.0000
  C   C302      1.0  0.01149  0.52640  0.10142  1.0000
  H   H518      1.0  0.26235  0.86949  0.08356  1.0000
  C   C303      1.0  0.10285  0.59518  0.03392  1.0000
  C   C304      1.0  0.98412  0.63289  0.22805  1.0000
  H   H519      1.0  0.37446  0.82173  0.21041  1.0000
  C   C305      1.0  0.25537  0.87541  0.06439  1.0000
  H   H520      1.0  0.40058  0.84547  0.16147  1.0000
  H   H521      1.0  0.00894  0.53619  0.26428  1.0000
  H   H522      1.0  0.00444  0.57856  0.00762  1.0000
  C   C306      1.0  0.35124  0.89686  0.01997  1.0000
  H   H523      1.0  0.32670  0.81479  0.19480  1.0000
  C   C307      1.0  0.41606  0.86354  0.21016  1.0000
  H   H524      1.0  0.28750  0.92413  0.06595  1.0000
  H   H525      1.0  0.32884  0.80243  0.12162  1.0000
  H   H526      1.0  0.29293  0.76632  0.17155  1.0000
  H   H527      1.0  0.28908  0.78656  0.14408  1.0000
  H   H528      1.0  0.31108  0.56123  0.09156  1.0000
  C   C308      1.0  0.29412  0.78766  0.16569  1.0000
  H   H529      1.0  0.24693  0.77012  0.17448  1.0000
  H   H530      1.0  0.01818  0.68103  0.27976  1.0000
  C   C309      1.0  0.35850  0.98192  0.21955  1.0000
  C   C310      1.0  0.26898  0.78939  0.18038  1.0000
  S   S77       1.0  0.35169  0.97930  0.18417  1.0000
  C   C311      1.0  0.38209  0.98169  0.02195  1.0000
  C   C312      1.0  0.00666  0.68342  0.29761  1.0000
  H   H531      1.0  0.42975  0.85404  0.20239  1.0000
  C   C313      1.0  0.25774  0.87321  0.01459  1.0000
  H   H532      1.0  0.35314  0.91723  0.01044  1.0000
  H   H533      1.0  0.06104  0.50679  0.01120  1.0000
  C   C314      1.0  0.47285  0.94732  0.03485  1.0000
  C   C315      1.0  0.25017  0.91399  0.09165  1.0000
  H   H534      1.0  0.02866  0.52951  0.11657  1.0000
  C   C316      1.0  0.45484  0.50000  0.09937  1.0000
  C   C317      1.0  0.18470  0.53755  0.14726  1.0000
  H   H535      1.0  0.22979  0.55075  0.13598  1.0000
  H   H536      1.0  0.16305  0.51701  0.15189  1.0000
  C   C318      1.0  0.37000  0.98811  0.27585  1.0000
  S   S78       1.0  0.39012  0.97008  0.05325  1.0000
  H   H537      1.0  0.98693  0.55371  0.05592  1.0000
  N   N18       1.0  0.22034  0.49804  0.10680  1.0000
  C   C319      1.0  0.12224  0.70365  0.30237  1.0000
  H   H538      1.0  0.21215  0.51880  0.15799  1.0000
  H   H539      1.0  0.19555  0.52090  0.09881  1.0000
  H   H540      1.0  0.13468  0.69358  0.31181  1.0000
  C   C320      1.0  0.41845  0.96008  0.21031  1.0000
  H   H541      1.0  0.46459  0.92415  0.02762  1.0000
  H   H542      1.0  0.02873  0.49254  0.03160  1.0000
  H   H543      1.0  0.18190  0.49309  0.06129  1.0000
  H   H544      1.0  0.99159  0.63531  0.12487  1.0000
  H   H545      1.0  0.99969  0.49291  0.29307  1.0000
  H   H546      1.0  0.06477  0.49976  0.07219  1.0000
  C   C321      1.0  0.35328  0.97561  0.01487  1.0000
  C   C322      1.0  0.99035  0.65010  0.08529  1.0000
  H   H547      1.0  0.47070  0.94686  0.05699  1.0000
  C   C323      1.0  0.06879  0.49689  0.05089  1.0000
  C   C324      1.0  0.27784  0.90448  0.00151  1.0000
  H   H548      1.0  0.42604  0.92906  0.23415  1.0000
  C   C325      1.0  0.47507  0.50207  0.00703  1.0000
  H   H549      1.0  0.39307  0.91173  0.21330  1.0000
  H   H550      1.0  0.05895  0.49870  0.22272  1.0000
  H   H551      1.0  0.07739  0.69503  0.29739  1.0000
  H   H552      1.0  0.03017  0.50262  0.25277  1.0000
  H   H553      1.0  0.14655  0.61003  0.01565  1.0000
  C   C326      1.0  0.40696  0.93118  0.22645  1.0000
  H   H554      1.0  0.39294  0.93074  0.24352  1.0000
  H   H555      1.0  0.04103  0.61510  0.31247  1.0000
  C   C327      1.0  0.45191  0.95768  0.02361  1.0000
  H   H556      1.0  0.43238  0.95955  0.19392  1.0000
  H   H557      1.0  0.01854  0.49679  0.07641  1.0000
  H   H558      1.0  0.24249  0.50083  0.14457  1.0000
  H   H559      1.0  0.29909  0.90657  0.99405  1.0000
  H   H560      1.0  0.13121  0.72686  0.30990  1.0000
  H   H561      1.0  0.45818  0.98028  0.03135  1.0000
  H   H562      1.0  0.48271  0.49510  0.19126  1.0000
  H   H563      1.0  0.41814  0.98859  0.24076  1.0000
  H   H564      1.0  0.09785  0.49054  0.20385  1.0000
  C   C328      1.0  0.43581  0.98820  0.22821  1.0000
  S   S79       1.0  0.41208  0.48984  0.13747  1.0000
  H   H565      1.0  0.48342  0.54101  0.17943  1.0000
  C   C329      1.0  0.98633  0.51595  0.26569  1.0000
  H   H566      1.0  0.98386  0.66348  0.29917  1.0000
  C   C330      1.0  0.01378  0.65638  0.99319  1.0000
  H   H567      1.0  0.03683  0.55155  0.48910  1.0000
  H   H568      1.0  0.05192  0.58053  0.35708  1.0000
  H   H569      1.0  0.99946  0.50932  0.53496  1.0000
  C   C331      1.0  0.09796  0.53701  0.45808  1.0000
  C   C332      1.0  0.02847  0.63496  0.47500  1.0000
  H   H570      1.0  0.08756  0.75742  0.63319  1.0000
  Fe  Fe41      1.0  0.04679  0.64862  0.58463  1.0000
  S   S80       1.0  0.08911  0.64806  0.57499  1.0000
  S   S81       1.0  0.01514  0.65082  0.55317  1.0000
  H   H571      1.0  0.06984  0.71860  0.41406  1.0000
  C   C333      1.0  0.15373  0.52507  0.52877  1.0000
  Fe  Fe42      1.0  0.10701  0.67329  0.61406  1.0000
  S   S82       1.0  0.15685  0.70845  0.62171  1.0000
  Fe  Fe43      1.0  0.06949  0.60628  0.60022  1.0000
  S   S83       1.0  0.05817  0.56077  0.58383  1.0000
  S   S84       1.0  0.06541  0.67652  0.62256  1.0000
  S   S85       1.0  0.02682  0.60611  0.60853  1.0000
  Fe  Fe44      1.0  0.30294  0.88200  0.62507  1.0000
  S   S86       1.0  0.31850  0.93130  0.61893  1.0000
  S   S87       1.0  0.25235  0.84982  0.61748  1.0000
  Fe  Fe45      1.0  0.36729  0.89685  0.63663  1.0000
  S   S88       1.0  0.38651  0.94613  0.63112  1.0000
  H   H572      1.0  0.32409  0.91017  0.51870  1.0000
  H   H573      1.0  0.21936  0.74287  0.63542  1.0000
  Fe  Fe46      1.0  0.35657  0.93392  0.59476  1.0000
  C   C334      1.0  0.10308  0.52711  0.48551  1.0000
  H   H574      1.0  0.32212  0.98766  0.49393  1.0000
  S   S89       1.0  0.33986  0.88449  0.59888  1.0000
  C   C335      1.0  0.43290  0.89377  0.63062  1.0000
  C   C336      1.0  0.45279  0.88361  0.63739  1.0000
  Fe  Fe47      1.0  0.04867  0.63302  0.64558  1.0000
  C   C337      1.0  0.44086  0.91520  0.61035  1.0000
  H   H575      1.0  0.08502  0.52483  0.49893  1.0000
  H   H576      1.0  0.10799  0.78662  0.65739  1.0000
  H   H577      1.0  0.42563  0.92300  0.60478  1.0000
  H   H578      1.0  0.07191  0.60629  0.49491  1.0000
  H   H579      1.0  0.26338  0.91237  0.58725  1.0000
  H   H580      1.0  0.31188  0.98017  0.59604  1.0000
  C   C338      1.0  0.01016  0.64097  0.51838  1.0000
  H   H581      1.0  0.12526  0.50384  0.47163  1.0000
  C   C339      1.0  0.03321  0.64220  0.50257  1.0000
  C   C340      1.0  0.33103  0.91367  0.46303  1.0000
  H   H582      1.0  0.05479  0.64903  0.51155  1.0000
  C   C341      1.0  0.18341  0.74769  0.61867  1.0000
  C   C342      1.0  0.17581  0.76836  0.60851  1.0000
  C   C343      1.0  0.19722  0.79935  0.60818  1.0000
  C   C344      1.0  0.22673  0.81021  0.61751  1.0000
  C   C345      1.0  0.23456  0.78946  0.62694  1.0000
  C   C346      1.0  0.21303  0.75853  0.62766  1.0000
  C   C347      1.0  0.46865  0.49512  0.53827  1.0000
  H   H583      1.0  0.08931  0.70680  0.34479  1.0000
  H   H584      1.0  0.25710  0.79726  0.63409  1.0000
  C   C348      1.0  0.34223  0.98632  0.49679  1.0000
  C   C349      1.0  0.07778  0.54241  0.59316  1.0000
  C   C350      1.0  0.06546  0.51212  0.58648  1.0000
  H   H585      1.0  0.06068  0.49252  0.53432  1.0000
  C   C351      1.0  0.10841  0.51145  0.60568  1.0000
  C   C352      1.0  0.12054  0.54169  0.61276  1.0000
  C   C353      1.0  0.10525  0.55717  0.60655  1.0000
  H   H586      1.0  0.04797  0.69665  0.37034  1.0000
  H   H587      1.0  0.45610  0.49488  0.52008  1.0000
  H   H588      1.0  0.23998  0.92032  0.56591  1.0000
  C   C354      1.0  0.37222  0.97264  0.52506  1.0000
  C   C355      1.0  0.46288  0.50938  0.61319  1.0000
  C   C356      1.0  0.44849  0.52349  0.60147  1.0000
  H   H589      1.0  0.11488  0.58057  0.61179  1.0000
  H   H590      1.0  0.33023  0.87812  0.48558  1.0000
  C   C357      1.0  0.00060  0.62612  0.46276  1.0000
  H   H591      1.0  0.33792  0.90734  0.44419  1.0000
  S   S90       1.0  0.37893  0.95812  0.55525  1.0000
  C   C358      1.0  0.04119  0.58225  0.33837  1.0000
  H   H592      1.0  0.99210  0.58658  0.55979  1.0000
  C   C359      1.0  0.08243  0.68338  0.33889  1.0000
  H   H593      1.0  0.02099  0.65953  0.38007  1.0000
  H   H594      1.0  0.35795  0.49136  0.64930  1.0000
  C   C360      1.0  0.01775  0.56756  0.52035  1.0000
  H   H595      1.0  0.05537  0.55800  0.64473  1.0000
  H   H596      1.0  0.04660  0.63629  0.46304  1.0000
  H   H597      1.0  0.04394  0.50055  0.57657  1.0000
  C   C361      1.0  0.08075  0.49670  0.59259  1.0000
  H   H598      1.0  0.16157  0.54268  0.56944  1.0000
  H   H599      1.0  0.21706  0.84404  0.53364  1.0000
  C   C362      1.0  0.20054  0.80465  0.50955  1.0000
  C   C363      1.0  0.07265  0.58964  0.50859  1.0000
  C   C364      1.0  0.34649  0.97484  0.52114  1.0000
  H   H600      1.0  0.04446  0.54496  0.52290  1.0000
  C   C365      1.0  0.16553  0.55117  0.54851  1.0000
  H   H601      1.0  0.08990  0.58449  0.50122  1.0000
  H   H602      1.0  0.19081  0.81507  0.60072  1.0000
  H   H603      1.0  0.28272  0.92480  0.54019  1.0000
  C   C366      1.0  0.25466  0.84749  0.50973  1.0000
  H   H604      1.0  0.03760  0.68500  0.42674  1.0000
  H   H605      1.0  0.07935  0.59957  0.52892  1.0000
  H   H606      1.0  0.30942  0.80348  0.54084  1.0000
  C   C367      1.0  0.10875  0.76927  0.64479  1.0000
  C   C368      1.0  0.04484  0.67392  0.37373  1.0000
  H   H607      1.0  0.29515  0.86868  0.46960  1.0000
  H   H608      1.0  0.07459  0.69538  0.43838  1.0000
  N   N19       1.0  0.05079  0.66202  0.34817  1.0000
  H   H609      1.0  0.25811  0.83143  0.49746  1.0000
  C   C369      1.0  0.04649  0.63141  0.35438  1.0000
  H   H610      1.0  0.24950  0.86048  0.49490  1.0000
  C   C370      1.0  0.46479  0.55451  0.59597  1.0000
  H   H611      1.0  0.15436  0.56462  0.54534  1.0000
  C   C371      1.0  0.24803  0.90430  0.56979  1.0000
  C   C372      1.0  0.06484  0.67687  0.39817  1.0000
  H   H612      1.0  0.27698  0.83104  0.57095  1.0000
  H   H613      1.0  0.32441  0.82881  0.56898  1.0000
  S   S91       1.0  0.99633  0.61776  0.42768  1.0000
  H   H614      1.0  0.15331  0.76051  0.60128  1.0000
  S   S92       1.0  0.12838  0.49280  0.61315  1.0000
  S   S93       1.0  0.39844  0.87939  0.64790  1.0000
  H   H615      1.0  0.06179  0.63266  0.37063  1.0000
  H   H616      1.0  0.02333  0.61652  0.36215  1.0000
  H   H617      1.0  0.15960  0.53427  0.50817  1.0000
  H   H618      1.0  0.47427  0.94267  0.58114  1.0000
  C   C373      1.0  0.06147  0.69513  0.42063  1.0000
  H   H619      1.0  0.09842  0.67822  0.34934  1.0000
  H   H620      1.0  0.24828  0.89442  0.52798  1.0000
  H   H621      1.0  0.42496  0.51051  0.59642  1.0000
  H   H622      1.0  0.16575  0.51262  0.53294  1.0000
  H   H623      1.0  0.29265  0.90704  0.50109  1.0000
  H   H624      1.0  0.14197  0.55326  0.62286  1.0000
  H   H625      1.0  0.05816  0.65446  0.40664  1.0000
  H   H626      1.0  0.17978  0.79265  0.52175  1.0000
  C   C374      1.0  0.22542  0.82921  0.52641  1.0000
  C   C375      1.0  0.31435  0.88618  0.48109  1.0000
  H   H627      1.0  0.02550  0.57784  0.54049  1.0000
  H   H628      1.0  0.35152  0.93104  0.47321  1.0000
  H   H629      1.0  0.07602  0.51988  0.44970  1.0000
  H   H630      1.0  0.31662  0.92331  0.45777  1.0000
  H   H631      1.0  0.08886  0.68800  0.39256  1.0000
  H   H632      1.0  0.26329  0.80650  0.54210  1.0000
  H   H633      1.0  0.33000  0.96793  0.53692  1.0000
  C   C376      1.0  0.46843  0.92629  0.59694  1.0000
  N   N20       1.0  0.28300  0.86800  0.52501  1.0000
  C   C377      1.0  0.27709  0.88081  0.54989  1.0000
  C   C378      1.0  0.29964  0.85186  0.53267  1.0000
  C   C379      1.0  0.26418  0.90197  0.54503  1.0000
  C   C380      1.0  0.30366  0.89412  0.50731  1.0000
  H   H634      1.0  0.22862  0.81846  0.54431  1.0000
  H   H635      1.0  0.44668  0.86687  0.65292  1.0000
  H   H636      1.0  0.29143  0.79265  0.57315  1.0000
  C   C381      1.0  0.28343  0.82476  0.55192  1.0000
  C   C382      1.0  0.30350  0.81175  0.55907  1.0000
  H   H637      1.0  0.22841  0.88210  0.57480  1.0000
  H   H638      1.0  0.19568  0.81444  0.49172  1.0000
  H   H639      1.0  0.29812  0.89370  0.56168  1.0000
  H   H640      1.0  0.26168  0.86275  0.56352  1.0000
  H   H641      1.0  0.30483  0.84272  0.51461  1.0000
  H   H642      1.0  0.32170  0.86799  0.54176  1.0000
  H   H643      1.0  0.19003  0.56599  0.54564  1.0000
  H   H644      1.0  0.11105  0.72907  0.64899  1.0000
  H   H645      1.0  0.45363  0.56529  0.58673  1.0000
  H   H646      1.0  0.10899  0.51766  0.53606  1.0000
  H   H647      1.0  0.01815  0.58552  0.50784  1.0000
  H   H648      1.0  0.20708  0.78813  0.50295  1.0000
  C   C383      1.0  0.04213  0.56096  0.50963  1.0000
  H   H649      1.0  0.12769  0.78033  0.63044  1.0000
  C   C384      1.0  0.11946  0.50380  0.53204  1.0000
  H   H650      1.0  0.11641  0.49112  0.55102  1.0000
  H   H651      1.0  0.12445  0.54559  0.49350  1.0000
  Fe  Fe48      1.0  0.34726  0.94005  0.65589  1.0000
  S   S94       1.0  0.09054  0.63056  0.63849  1.0000
  H   H652      1.0  0.01262  0.50674  0.63560  1.0000
  H   H653      1.0  0.06063  0.50999  0.64345  1.0000
  C   C385      1.0  0.48052  0.89492  0.62413  1.0000
  H   H654      1.0  0.01235  0.68974  0.33999  1.0000
  H   H655      1.0  0.01645  0.56999  0.34101  1.0000
  H   H656      1.0  0.48232  0.98549  0.50459  1.0000
  H   H657      1.0  0.09783  0.55841  0.46007  1.0000
  C   C386      1.0  0.39390  0.98281  0.50452  1.0000
  H   H658      1.0  0.41397  0.98136  0.50724  1.0000
  H   H659      1.0  0.11613  0.54058  0.44396  1.0000
  H   H660      1.0  0.00242  0.56347  0.46752  1.0000
  C   C387      1.0  0.02185  0.51244  0.65624  1.0000
  C   C388      1.0  0.05236  0.61502  0.33123  1.0000
  H   H661      1.0  0.99756  0.53127  0.56106  1.0000
  C   C389      1.0  0.98609  0.51938  0.54231  1.0000
  C   C390      1.0  0.10454  0.49775  0.48330  1.0000
  H   H662      1.0  0.00493  0.64035  0.33446  1.0000
  N   N21       1.0  0.98635  0.54119  0.52196  1.0000
  H   H663      1.0  0.01981  0.55356  0.65473  1.0000
  H   H664      1.0  0.98857  0.51362  0.49025  1.0000
  H   H665      1.0  0.07683  0.62586  0.32740  1.0000
  C   C391      1.0  0.02742  0.65848  0.32799  1.0000
  S   S95       1.0  0.01953  0.61242  0.68354  1.0000
  H   H666      1.0  0.32581  0.98018  0.98452  1.0000
  H   H667      1.0  0.18633  0.74569  0.68276  1.0000
  H   H668      1.0  0.04119  0.53959  0.81654  1.0000
  S   S96       1.0  0.32929  0.89085  0.66355  1.0000
  C   C392      1.0  0.35984  0.49554  0.67125  1.0000
  H   H669      1.0  0.47517  0.51387  0.96484  1.0000
  C   C393      1.0  0.03269  0.65039  0.75849  1.0000
  C   C394      1.0  0.20200  0.78841  0.70233  1.0000
  H   H670      1.0  0.20011  0.80033  0.68455  1.0000
  C   C395      1.0  0.01571  0.61976  0.71801  1.0000
  C   C396      1.0  0.03652  0.64603  0.73110  1.0000
  C   C397      1.0  0.23446  0.79518  0.70342  1.0000
  C   C398      1.0  0.99949  0.63349  0.97395  1.0000
  H   H671      1.0  0.02036  0.50120  0.78457  1.0000
  H   H672      1.0  0.05548  0.66299  0.72010  1.0000
  C   C399      1.0  0.14260  0.76183  0.67720  1.0000
  H   H673      1.0  0.10595  0.70258  0.68953  1.0000
  H   H674      1.0  0.01640  0.67820  0.98924  1.0000
  S   S97       1.0  0.98540  0.64078  0.94380  1.0000
  S   S98       1.0  0.00454  0.63564  0.80795  1.0000
  H   H675      1.0  0.44611  0.51475  0.98463  1.0000
  C   C400      1.0  0.04965  0.54660  0.98677  1.0000
  H   H676      1.0  0.39363  0.96240  0.77055  1.0000
  H   H677      1.0  0.07685  0.58521  0.73227  1.0000
  H   H678      1.0  0.12755  0.65525  0.68916  1.0000
  H   H679      1.0  0.23838  0.78531  0.72170  1.0000
  H   H680      1.0  0.03817  0.55579  0.94737  1.0000
  H   H681      1.0  0.44424  0.91127  0.70804  1.0000
  H   H682      1.0  0.00311  0.50183  0.67081  1.0000
  C   C401      1.0  0.26226  0.90930  0.97754  1.0000
  H   H683      1.0  0.07261  0.73701  0.76017  1.0000
  C   C402      1.0  0.13087  0.69030  0.71565  1.0000
  H   H684      1.0  0.09175  0.64993  0.70033  1.0000
  C   C403      1.0  0.04493  0.50185  0.66078  1.0000
  C   C404      1.0  0.99771  0.49799  0.78862  1.0000
  H   H685      1.0  0.01117  0.56882  0.77464  1.0000
  H   H686      1.0  0.09861  0.75553  0.71711  1.0000
  H   H687      1.0  0.05731  0.60177  0.74837  1.0000
  H   H688      1.0  0.04310  0.58938  0.80915  1.0000
  H   H689      1.0  0.37148  0.52014  0.67453  1.0000
  H   H690      1.0  0.08946  0.71738  0.72345  1.0000
  H   H691      1.0  0.45641  0.94002  0.73321  1.0000
  H   H692      1.0  0.99688  0.53737  0.75350  1.0000
  H   H693      1.0  0.05867  0.51449  0.67839  1.0000
  H   H694      1.0  0.04243  0.58251  0.97258  1.0000
  H   H695      1.0  0.37487  0.94906  0.72378  1.0000
  C   C405      1.0  0.38567  0.97550  0.76014  1.0000
  N   N22       1.0  0.99992  0.52758  0.79524  1.0000
  H   H696      1.0  0.04372  0.53657  0.75297  1.0000
  H   H697      1.0  0.07400  0.56056  0.98284  1.0000
  H   H698      1.0  0.25657  0.89165  0.96222  1.0000
  H   H699      1.0  0.03694  0.57065  0.86834  1.0000
  H   H700      1.0  0.13869  0.70669  0.67464  1.0000
  H   H701      1.0  0.11500  0.64318  0.72295  1.0000
  H   H702      1.0  0.04219  0.52330  0.98037  1.0000
  S   S99       1.0  0.35119  0.97606  0.68573  1.0000
  C   C406      1.0  0.02992  0.57399  0.82567  1.0000
  H   H703      1.0  0.00998  0.57636  0.82931  1.0000
  C   C407      1.0  0.37508  0.96787  0.73350  1.0000
  H   H704      1.0  0.24987  0.81982  0.70381  1.0000
  H   H705      1.0  0.07016  0.58320  0.84785  1.0000
  H   H706      1.0  0.06013  0.56515  0.77829  1.0000
  C   C408      1.0  0.02048  0.54104  0.81900  1.0000
  H   H707      1.0  0.03870  0.57344  0.72300  1.0000
  H   H708      1.0  0.10090  0.72891  0.77170  1.0000
  N   N23       1.0  0.14683  0.74428  0.69948  1.0000
  H   H709      1.0  0.11908  0.69123  0.73392  1.0000
  C   C409      1.0  0.03380  0.55834  0.96873  1.0000
  C   C410      1.0  0.17984  0.75406  0.70072  1.0000
  C   C411      1.0  0.13779  0.75111  0.72611  1.0000
  C   C412      1.0  0.10417  0.74101  0.72941  1.0000
  C   C413      1.0  0.04371  0.55639  0.76165  1.0000
  C   C414      1.0  0.11528  0.65770  0.70637  1.0000
  H   H710      1.0  0.42173  0.93667  0.68188  1.0000
  H   H711      1.0  0.09271  0.73638  0.67611  1.0000
  C   C415      1.0  0.09670  0.74382  0.75851  1.0000
  H   H712      1.0  0.05608  0.60819  0.85502  1.0000
  C   C416      1.0  0.01172  0.54782  0.77107  1.0000
  C   C417      1.0  0.36448  0.98436  0.71967  1.0000
  H   H713      1.0  0.24151  0.90906  0.98401  1.0000
  H   H714      1.0  0.04896  0.67081  0.76831  1.0000
  H   H715      1.0  0.15412  0.69654  0.72107  1.0000
  H   H716      1.0  0.18477  0.74410  0.71838  1.0000
  H   H717      1.0  0.14460  0.74137  0.74275  1.0000
  H   H718      1.0  0.15009  0.77564  0.72992  1.0000
  C   C418      1.0  0.00797  0.62871  0.77330  1.0000
  H   H719      1.0  0.04501  0.55361  0.67973  1.0000
  C   C419      1.0  0.99623  0.60539  0.97949  1.0000
  C   C420      1.0  0.13003  0.71106  0.69350  1.0000
  H   H720      1.0  0.19797  0.79817  0.72053  1.0000
  C   C421      1.0  0.04950  0.58454  0.85076  1.0000
  H   H721      1.0  0.31646  0.49109  0.67510  1.0000
  H   H722      1.0  0.40630  0.92559  0.71499  1.0000
  H   H723      1.0  0.43282  0.96442  0.70820  1.0000
  C   C422      1.0  0.42685  0.94100  0.70358  1.0000
  H   H724      1.0  0.09847  0.50507  0.67490  1.0000
  H   H725      1.0  0.11031  0.76734  0.76553  1.0000
  C   C423      1.0  0.05474  0.58064  0.73999  1.0000
  C   C424      1.0  0.45230  0.93540  0.71149  1.0000
  H   H726      1.0  0.00964  0.52775  0.83741  1.0000
  S   S100      1.0  0.99561  0.60017  0.87831  1.0000
  C   C425      1.0  0.99101  0.59806  0.73283  1.0000
  C   C426      1.0  0.46963  0.51954  0.98464  1.0000
  H   H727      1.0  0.23989  0.78611  0.68545  1.0000
  H   H728      1.0  0.00918  0.54558  0.97204  1.0000
  H   H729      1.0  0.27749  0.93141  0.96820  1.0000
  C   C427      1.0  0.34815  0.98490  0.98968  1.0000
  H   H730      1.0  0.47421  0.94739  0.67354  1.0000
  H   H731      1.0  0.14719  0.78410  0.68467  1.0000
  C   C428      1.0  0.48081  0.95506  0.69455  1.0000
  H   H732      1.0  0.98506  0.58743  0.96513  1.0000
  C   C429      1.0  0.98703  0.60254  0.76016  1.0000
  H   H733      1.0  0.15931  0.76689  0.66099  1.0000
  C   C430      1.0  0.11211  0.74679  0.66233  1.0000
  C   C431      1.0  0.03649  0.54644  0.65907  1.0000
  H   H734      1.0  0.70383  0.01686  0.25321  1.0000
  H   H735      1.0  0.48936  0.04567  0.26204  1.0000
  H   H736      1.0  0.49788  0.45448  0.17845  1.0000
  H   H737      1.0  0.51124  0.99142  0.03220  1.0000
  C   C432      1.0  0.86720  0.38378  0.29942  1.0000
  H   H738      1.0  0.66120  0.03954  0.25614  1.0000
  H   H739      1.0  0.58479  0.99247  0.32272  1.0000
  S   S101      1.0  0.92019  0.33412  0.32251  1.0000
  H   H740      1.0  0.59539  0.02148  0.27231  1.0000
  H   H741      1.0  0.90740  0.42758  0.30262  1.0000
  C   C433      1.0  0.61398  0.06878  0.27687  1.0000
  H   H742      1.0  0.52423  0.99685  0.17154  1.0000
  C   C434      1.0  0.48934  0.00249  0.19012  1.0000
  H   H743      1.0  0.60085  0.07068  0.26012  1.0000
  N   N24       1.0  0.54724  0.99731  0.30965  1.0000
  H   H744      1.0  0.81275  0.26060  0.30992  1.0000
  C   C435      1.0  0.60084  0.03605  0.01551  1.0000
  C   C436      1.0  0.50805  0.13655  0.31859  1.0000
  H   H745      1.0  0.91300  0.19783  0.32422  1.0000
  H   H746      1.0  0.93734  0.35095  0.24196  1.0000
  H   H747      1.0  0.76138  0.35144  0.31916  1.0000
  H   H748      1.0  0.61289  0.03640  0.30420  1.0000
  H   H749      1.0  0.55577  0.03634  0.28610  1.0000
  H   H750      1.0  0.50846  0.47354  0.30029  1.0000
  H   H751      1.0  0.60601  0.05950  0.01249  1.0000
  H   H752      1.0  0.53548  0.01762  0.20241  1.0000
  C   C437      1.0  0.52232  0.01384  0.18374  1.0000
  S   S102      1.0  0.96920  0.31939  0.27520  1.0000
  H   H753      1.0  0.56229  0.02507  0.03955  1.0000
  H   H754      1.0  0.85299  0.39432  0.29837  1.0000
  H   H755      1.0  0.96996  0.31398  0.21786  1.0000
  H   H756      1.0  0.53892  0.00514  0.12170  1.0000
  H   H757      1.0  0.56189  0.00492  0.07905  1.0000
  C   C438      1.0  0.63695  0.99264  0.26596  1.0000
  H   H758      1.0  0.54190  0.00415  0.25330  1.0000
  H   H759      1.0  0.81122  0.34449  0.30557  1.0000
  C   C439      1.0  0.97706  0.42788  0.25622  1.0000
  H   H760      1.0  0.50017  0.04750  0.20158  1.0000
  H   H761      1.0  0.93610  0.36885  0.27238  1.0000
  H   H762      1.0  0.55473  0.01776  0.00453  1.0000
  H   H763      1.0  0.49208  0.45454  0.07746  1.0000
  H   H764      1.0  0.49642  0.02343  0.22824  1.0000
  C   C440      1.0  0.65915  0.02128  0.00028  1.0000
  H   H765      1.0  0.72420  0.01609  0.16552  1.0000
  H   H766      1.0  0.81922  0.30903  0.29199  1.0000
  C   C441      1.0  0.94019  0.37212  0.25051  1.0000
  H   H767      1.0  0.51075  0.48696  0.03710  1.0000
  C   C442      1.0  0.89851  0.40720  0.29000  1.0000
  H   H768      1.0  0.53199  0.03506  0.17211  1.0000
  H   H769      1.0  0.96562  0.46910  0.27507  1.0000
  C   C443      1.0  0.56718  0.02944  0.30092  1.0000
  H   H770      1.0  0.97554  0.39902  0.22307  1.0000
  C   C444      1.0  0.97203  0.39755  0.24511  1.0000
  C   C445      1.0  0.64203  0.99187  0.01037  1.0000
  C   C446      1.0  0.49509  0.46262  0.03435  1.0000
  C   C447      1.0  0.56753  0.01596  0.02166  1.0000
  H   H771      1.0  0.50273  0.01052  0.28907  1.0000
  H   H772      1.0  0.83304  0.27185  0.27868  1.0000
  C   C448      1.0  0.64888  0.01701  0.24828  1.0000
  H   H773      1.0  0.48402  0.11907  0.31898  1.0000
  C   C449      1.0  0.49824  0.44679  0.05901  1.0000
  H   H774      1.0  0.97335  0.32631  0.01355  1.0000
  H   H775      1.0  0.61753  0.08552  0.29253  1.0000
  H   H776      1.0  0.89760  0.41362  0.26893  1.0000
  H   H777      1.0  0.61472  0.03562  0.03239  1.0000
  H   H778      1.0  0.52052  0.03630  0.31610  1.0000
  H   H779      1.0  0.96207  0.43293  0.24390  1.0000
  H   H780      1.0  0.67212  0.03944  0.01403  1.0000
  C   C450      1.0  0.83790  0.30901  0.30295  1.0000
  H   H781      1.0  0.91397  0.39810  0.29113  1.0000
  C   C451      1.0  0.83389  0.27765  0.30020  1.0000
  H   H782      1.0  0.54819  0.45659  0.99357  1.0000
  H   H783      1.0  0.63626  0.07394  0.26908  1.0000
  H   H784      1.0  0.85812  0.36520  0.28487  1.0000
  H   H785      1.0  0.70888  0.99674  0.28027  1.0000
  H   H786      1.0  0.96759  0.42383  0.27689  1.0000
  S   S103      1.0  0.67984  0.08555  0.32551  1.0000
  H   H787      1.0  0.52182  0.45192  0.06094  1.0000
  H   H788      1.0  0.65554  0.03129  0.20688  1.0000
  S   S104      1.0  0.64178  0.99696  0.30149  1.0000
  H   H789      1.0  0.92347  0.37694  0.24120  1.0000
  C   C452      1.0  0.64563  0.01222  0.22028  1.0000
  H   H790      1.0  0.51252  0.14908  0.29944  1.0000
  H   H791      1.0  0.85954  0.32467  0.29320  1.0000
  C   C453      1.0  0.59792  0.03715  0.28862  1.0000
  H   H792      1.0  0.57191  0.04466  0.31833  1.0000
  Fe  Fe49      1.0  0.96064  0.32856  0.31847  1.0000
  C   C454      1.0  0.50545  0.01234  0.31106  1.0000
  C   C455      1.0  0.49782  0.48739  0.29677  1.0000
  H   H793      1.0  0.60697  0.02839  0.99705  1.0000
  H   H794      1.0  0.79141  0.37852  0.29804  1.0000
  H   H795      1.0  0.49920  0.40472  0.30616  1.0000
  H   H796      1.0  0.52473  0.99971  0.07392  1.0000
  H   H797      1.0  0.73845  0.01611  0.25604  1.0000
  C   C456      1.0  0.51863  0.99323  0.32224  1.0000
  C   C457      1.0  0.78300  0.37294  0.31895  1.0000
  H   H798      1.0  0.50232  0.45493  0.01660  1.0000
  H   H799      1.0  0.52216  0.12586  0.31932  1.0000
  H   H800      1.0  0.49310  0.38879  0.27309  1.0000
  H   H801      1.0  0.85302  0.27675  0.30953  1.0000
  H   H802      1.0  0.48902  0.43465  0.27279  1.0000
  H   H803      1.0  0.74723  0.02368  0.12087  1.0000
  H   H804      1.0  0.97911  0.27296  0.01008  1.0000
  C   C458      1.0  0.48582  0.02425  0.20913  1.0000
  H   H805      1.0  0.55157  0.48279  0.23030  1.0000
  H   H806      1.0  0.53039  0.48876  0.13789  1.0000
  C   C459      1.0  0.72558  0.99717  0.15634  1.0000
  H   H807      1.0  0.74663  0.99846  0.16328  1.0000
  C   C460      1.0  0.71377  0.00282  0.25875  1.0000
  H   H808      1.0  0.72683  0.00102  0.20840  1.0000
  C   C461      1.0  0.72731  0.00179  0.12600  1.0000
  H   H809      1.0  0.70699  0.00184  0.11859  1.0000
  H   H810      1.0  0.68845  0.99075  0.20664  1.0000
  H   H811      1.0  0.49622  0.01572  0.52840  1.0000
  C   C462      1.0  0.52509  0.20691  0.41760  1.0000
  C   C463      1.0  0.52224  0.11941  0.42278  1.0000
  S   S105      1.0  0.93244  0.34260  0.38703  1.0000
  H   H812      1.0  0.82703  0.39282  0.33648  1.0000
  Fe  Fe50      1.0  0.90707  0.30359  0.35843  1.0000
  S   S106      1.0  0.85787  0.26903  0.36924  1.0000
  Fe  Fe51      1.0  0.94878  0.37204  0.35028  1.0000
  H   H813      1.0  0.91358  0.16001  0.48211  1.0000
  S   S107      1.0  0.94577  0.29545  0.35295  1.0000
  Fe  Fe52      1.0  0.71336  0.09433  0.35854  1.0000
  S   S108      1.0  0.69833  0.04468  0.36235  1.0000
  S   S109      1.0  0.76379  0.12867  0.35199  1.0000
  Fe  Fe53      1.0  0.64888  0.08133  0.35919  1.0000
  S   S110      1.0  0.63036  0.03215  0.36376  1.0000
  H   H814      1.0  0.49009  0.17371  0.39263  1.0000
  Fe  Fe54      1.0  0.66643  0.04292  0.39438  1.0000
  C   C464      1.0  0.80991  0.17705  0.43372  1.0000
  C   C465      1.0  0.90390  0.19184  0.42352  1.0000
  S   S111      1.0  0.68304  0.09288  0.39218  1.0000
  H   H815      1.0  0.85225  0.18065  0.39798  1.0000
  H   H816      1.0  0.93271  0.25118  0.43396  1.0000
  C   C466      1.0  0.51047  0.14200  0.36953  1.0000
  C   C467      1.0  0.67338  0.02450  0.47979  1.0000
  C   C468      1.0  0.59988  0.01924  0.53287  1.0000
  H   H817      1.0  0.68804  0.04651  0.47149  1.0000
  C   C469      1.0  0.58123  0.08252  0.36223  1.0000
  C   C470      1.0  0.57188  0.06124  0.38271  1.0000
  C   C471      1.0  0.54248  0.04823  0.39265  1.0000
  C   C472      1.0  0.52206  0.05590  0.38192  1.0000
  C   C473      1.0  0.53093  0.07618  0.36059  1.0000
  C   C474      1.0  0.56061  0.08976  0.35100  1.0000
  H   H818      1.0  0.58764  0.05557  0.39141  1.0000
  H   H819      1.0  0.53551  0.03249  0.40909  1.0000
  H   H820      1.0  0.51501  0.08146  0.35169  1.0000
  C   C475      1.0  0.51439  0.14445  0.41867  1.0000
  C   C476      1.0  0.83120  0.23057  0.36215  1.0000
  C   C477      1.0  0.83837  0.21230  0.34687  1.0000
  C   C478      1.0  0.60743  0.17764  0.38203  1.0000
  C   C479      1.0  0.78860  0.16829  0.35543  1.0000
  C   C480      1.0  0.78111  0.18680  0.37009  1.0000
  C   C481      1.0  0.80231  0.21759  0.37353  1.0000
  H   H821      1.0  0.50205  0.34862  0.43050  1.0000
  N   N25       1.0  0.48989  0.41771  0.46051  1.0000
  S   S112      1.0  0.95653  0.41830  0.33938  1.0000
  H   H822      1.0  0.79719  0.36669  0.35762  1.0000
  C   C482      1.0  0.94042  0.43780  0.35480  1.0000
  C   C483      1.0  0.51680  0.44855  0.46481  1.0000
  H   H823      1.0  0.92715  0.20866  0.46188  1.0000
  C   C484      1.0  0.90766  0.44179  0.38754  1.0000
  C   C485      1.0  0.92193  0.42663  0.37733  1.0000
  H   H824      1.0  0.80732  0.19654  0.42823  1.0000
  H   H825      1.0  0.90732  0.28361  0.46706  1.0000
  H   H826      1.0  0.91877  0.40646  0.38688  1.0000
  H   H827      1.0  0.59828  0.02073  0.57650  1.0000
  C   C486      1.0  0.52769  0.41458  0.36251  1.0000
  C   C487      1.0  0.55911  0.43202  0.36191  1.0000
  C   C488      1.0  0.57349  0.46352  0.36299  1.0000
  H   H828      1.0  0.59470  0.99673  0.47864  1.0000
  C   C489      1.0  0.51076  0.42888  0.36421  1.0000
  C   C490      1.0  0.51513  0.15802  0.34206  1.0000
  H   H829      1.0  0.50337  0.42714  0.51585  1.0000
  H   H830      1.0  0.79634  0.23133  0.38546  1.0000
  H   H831      1.0  0.79695  0.16690  0.45234  1.0000
  C   C491      1.0  0.90692  0.18844  0.45413  1.0000
  H   H832      1.0  0.85561  0.32107  0.38545  1.0000
  C   C492      1.0  0.90791  0.22550  0.38700  1.0000
  C   C493      1.0  0.55856  0.99523  0.64000  1.0000
  Fe  Fe55      1.0  0.66272  0.03637  0.33158  1.0000
  H   H833      1.0  0.69241  0.03625  0.51957  1.0000
  C   C494      1.0  0.90189  0.20120  0.36556  1.0000
  C   C495      1.0  0.94571  0.46495  0.34345  1.0000
  H   H834      1.0  0.52444  0.24671  0.43087  1.0000
  C   C496      1.0  0.67572  0.01862  0.50714  1.0000
  C   C497      1.0  0.98028  0.40538  0.61443  1.0000
  H   H835      1.0  0.53844  0.17678  0.33973  1.0000
  C   C498      1.0  0.52506  0.46026  0.36522  1.0000
  H   H836      1.0  0.57302  0.03087  0.44014  1.0000
  H   H837      1.0  0.75920  0.17722  0.37926  1.0000
  C   C499      1.0  0.90105  0.26631  0.42620  1.0000
  C   C500      1.0  0.81741  0.18142  0.34382  1.0000
  H   H838      1.0  0.84189  0.34135  0.42429  1.0000
  H   H839      1.0  0.89304  0.43294  0.40475  1.0000
  H   H840      1.0  0.88816  0.16928  0.41514  1.0000
  H   H841      1.0  0.88737  0.18579  0.46557  1.0000
  H   H842      1.0  0.79121  0.32359  0.33380  1.0000
  H   H843      1.0  0.89995  0.23418  0.45399  1.0000
  H   H844      1.0  0.56989  0.16078  0.35550  1.0000
  H   H845      1.0  0.94044  0.30199  0.44610  1.0000
  H   H846      1.0  0.96272  0.41156  0.61118  1.0000
  H   H847      1.0  0.85122  0.20386  0.45456  1.0000
  C   C501      1.0  0.86385  0.35490  0.41413  1.0000
  C   C502      1.0  0.91246  0.46861  0.37573  1.0000
  H   H848      1.0  0.59770  0.47679  0.36257  1.0000
  C   C503      1.0  0.91566  0.29183  0.44651  1.0000
  H   H849      1.0  0.48670  0.41582  0.36484  1.0000
  H   H850      1.0  0.53982  0.01002  0.53826  1.0000
  C   C504      1.0  0.65232  0.00185  0.46324  1.0000
  C   C505      1.0  0.80599  0.37082  0.33677  1.0000
  N   N26       1.0  0.89480  0.21424  0.41454  1.0000
  C   C506      1.0  0.86193  0.34503  0.38500  1.0000
  H   H851      1.0  0.86018  0.22186  0.33759  1.0000
  C   C507      1.0  0.91061  0.16138  0.46021  1.0000
  H   H852      1.0  0.61249  0.17800  0.40370  1.0000
  H   H853      1.0  0.98104  0.36533  0.44819  1.0000
  H   H854      1.0  0.89897  0.23937  0.37833  1.0000
  H   H855      1.0  0.93064  0.16350  0.44979  1.0000
  C   C508      1.0  0.55926  0.17866  0.39140  1.0000
  C   C509      1.0  0.57361  0.16182  0.37746  1.0000
  H   H856      1.0  0.91003  0.18596  0.37211  1.0000
  H   H857      1.0  0.80035  0.16008  0.41747  1.0000
  H   H858      1.0  0.52305  0.19961  0.37516  1.0000
  H   H859      1.0  0.88088  0.35161  0.42486  1.0000
  H   H860      1.0  0.94253  0.22876  0.34231  1.0000
  C   C510      1.0  0.50766  0.10127  0.44816  1.0000
  H   H861      1.0  0.85503  0.21565  0.40338  1.0000
  H   H862      1.0  0.53387  0.44685  0.47721  1.0000
  H   H863      1.0  0.51774  0.12524  0.36757  1.0000
  H   H864      1.0  0.84125  0.37114  0.37475  1.0000
  H   H865      1.0  0.52395  0.15914  0.43645  1.0000
  C   C511      1.0  0.55643  0.47768  0.36465  1.0000
  H   H866      1.0  0.81588  0.33184  0.37691  1.0000
  C   C512      1.0  0.49563  0.99448  0.52325  1.0000
  H   H867      1.0  0.56910  0.18524  0.41183  1.0000
  H   H868      1.0  0.62833  0.01584  0.56331  1.0000
  H   H869      1.0  0.56411  0.13851  0.38457  1.0000
  H   H870      1.0  0.53394  0.36696  0.45290  1.0000
  C   C513      1.0  0.93187  0.48034  0.35385  1.0000
  H   H871      1.0  0.61840  0.20094  0.37420  1.0000
  C   C514      1.0  0.52384  0.36934  0.43406  1.0000
  H   H872      1.0  0.87059  0.37896  0.41527  1.0000
  H   H873      1.0  0.57238  0.42112  0.36066  1.0000
  H   H874      1.0  0.87762  0.18744  0.36113  1.0000
  H   H875      1.0  0.57839  0.48902  0.45518  1.0000
  S   S113      1.0  0.51033  0.37508  0.36180  1.0000
  H   H876      1.0  0.53053  0.24590  0.39541  1.0000
  C   C515      1.0  0.53282  0.46732  0.43939  1.0000
  N   N27       1.0  0.83931  0.34651  0.33887  1.0000
  H   H877      1.0  0.92646  0.19813  0.41534  1.0000
  H   H878      1.0  0.51182  0.47116  0.36655  1.0000
  S   S114      1.0  0.61856  0.10077  0.35062  1.0000
  C   C516      1.0  0.86120  0.19972  0.41225  1.0000
  C   C517      1.0  0.57242  0.99468  0.48241  1.0000
  H   H879      1.0  0.81930  0.29847  0.34314  1.0000
  S   S115      1.0  0.64773  0.00760  0.42856  1.0000
  C   C518      1.0  0.81139  0.34505  0.32776  1.0000
  H   H880      1.0  0.53783  0.01714  0.50295  1.0000
  C   C519      1.0  0.84295  0.18702  0.43829  1.0000
  H   H881      1.0  0.51861  0.47493  0.42926  1.0000
  N   N28       1.0  0.52539  0.16246  0.39309  1.0000
  H   H882      1.0  0.51444  0.10364  0.40577  1.0000
  H   H883      1.0  0.48954  0.13416  0.42021  1.0000
  H   H884      1.0  0.57738  0.01780  0.48665  1.0000
  H   H885      1.0  0.91015  0.30950  0.44140  1.0000
  H   H886      1.0  0.52220  0.99909  0.34399  1.0000
  H   H887      1.0  0.88436  0.35798  0.37569  1.0000
  H   H888      1.0  0.57093  0.00780  0.34723  1.0000
  H   H889      1.0  0.54220  0.41658  0.43784  1.0000
  H   H890      1.0  0.94432  0.47802  0.53221  1.0000
  H   H891      1.0  0.58831  0.03225  0.53018  1.0000
  H   H892      1.0  0.54677  0.12929  0.42532  1.0000
  C   C520      1.0  0.51963  0.39664  0.43530  1.0000
  H   H893      1.0  0.84392  0.16692  0.44478  1.0000
  H   H894      1.0  0.53775  0.45452  0.42449  1.0000
  H   H895      1.0  0.51566  0.11583  0.46615  1.0000
  C   C521      1.0  0.83871  0.31749  0.33278  1.0000
  H   H896      1.0  0.93271  0.24044  0.38842  1.0000
  H   H897      1.0  0.87452  0.39322  0.34132  1.0000
  H   H898      1.0  0.87659  0.25792  0.42651  1.0000
  H   H899      1.0  0.91005  0.27608  0.40624  1.0000
  H   H900      1.0  0.51358  0.08338  0.45031  1.0000
  H   H901      1.0  0.54953  0.21723  0.42119  1.0000
  H   H902      1.0  0.61783  0.02679  0.51746  1.0000
  C   C522      1.0  0.90782  0.24094  0.43314  1.0000
  H   H903      1.0  0.56791  0.20020  0.38028  1.0000
  H   H904      1.0  0.51284  0.19483  0.43598  1.0000
  H   H905      1.0  0.58017  0.99835  0.64775  1.0000
  C   C523      1.0  0.51503  0.18523  0.39337  1.0000
  H   H906      1.0  0.55819  0.01645  0.64243  1.0000
  C   C524      1.0  0.83829  0.34893  0.36903  1.0000
  H   H907      1.0  0.63077  0.05182  0.56136  1.0000
  C   C525      1.0  0.61515  0.02729  0.56023  1.0000
  H   H908      1.0  0.88689  0.36886  0.33010  1.0000
  H   H909      1.0  0.82352  0.16752  0.33229  1.0000
  H   H910      1.0  0.89040  0.14034  0.45378  1.0000
  H   H911      1.0  0.61692  0.16533  0.37136  1.0000
  C   C526      1.0  0.95745  0.47381  0.57213  1.0000
  H   H912      1.0  0.51009  0.39796  0.41589  1.0000
  H   H913      1.0  0.49990  0.16743  0.34049  1.0000
  H   H914      1.0  0.91009  0.23053  0.33107  1.0000
  H   H915      1.0  0.85903  0.31804  0.34090  1.0000
  C   C527      1.0  0.86782  0.37318  0.32850  1.0000
  H   H916      1.0  0.59428  0.01307  0.43079  1.0000
  H   H917      1.0  0.48688  0.42298  0.41758  1.0000
  C   C528      1.0  0.49909  0.39414  0.45893  1.0000
  C   C529      1.0  0.91789  0.21556  0.33925  1.0000
  H   H918      1.0  0.51043  0.46279  0.47673  1.0000
  H   H919      1.0  0.93487  0.45485  0.57713  1.0000
  H   H920      1.0  0.53903  0.37204  0.41714  1.0000
  H   H921      1.0  0.96942  0.38055  0.61484  1.0000
  H   H922      1.0  0.51166  0.39454  0.47716  1.0000
  H   H923      1.0  0.48586  0.12826  0.37292  1.0000
  S   S116      1.0  0.89329  0.48649  0.38815  1.0000
  Fe  Fe56      1.0  0.97167  0.33558  0.38015  1.0000
  S   S117      1.0  0.48619  0.04011  0.39658  1.0000
  H   H924      1.0  0.97181  0.46455  0.56570  1.0000
  H   H925      1.0  0.56767  0.10597  0.33490  1.0000
  C   C530      1.0  0.51795  0.23202  0.41296  1.0000
  C   C531      1.0  0.57136  0.00935  0.43413  1.0000
  C   C532      1.0  0.65669  0.99026  0.51856  1.0000
  C   C533      1.0  0.52759  0.00043  0.51927  1.0000
  H   H926      1.0  0.55893  0.00192  0.41493  1.0000
  H   H927      1.0  0.49353  0.22254  0.40944  1.0000
  C   C534      1.0  0.56394  0.99076  0.33100  1.0000
  H   H928      1.0  0.55695  0.98993  0.61830  1.0000
  H   H929      1.0  0.97948  0.40856  0.65707  1.0000
  H   H930      1.0  0.77902  0.39092  0.32649  1.0000
  H   H931      1.0  0.96719  0.48754  0.59045  1.0000
  H   H932      1.0  0.96021  0.47395  0.32624  1.0000
  H   H933      1.0  0.77722  0.34730  0.92744  1.0000
  S   S118      1.0  0.92630  0.32330  0.82188  1.0000
  H   H934      1.0  0.54187  0.40861  0.86701  1.0000
  C   C535      1.0  0.60499  0.05136  0.93588  1.0000
  S   S119      1.0  0.92584  0.32700  0.88858  1.0000
  C   C536      1.0  0.68022  0.00552  0.73938  1.0000
  Fe  Fe57      1.0  0.92185  0.29378  0.85712  1.0000
  S   S120      1.0  0.88739  0.24312  0.86115  1.0000
  Fe  Fe58      1.0  0.93305  0.35741  0.85344  1.0000
  S   S121      1.0  0.90796  0.38299  0.84867  1.0000
  C   C537      1.0  0.48663  0.45474  0.80302  1.0000
  Fe  Fe59      1.0  0.70587  0.10902  0.85993  1.0000
  S   S122      1.0  0.70717  0.06586  0.86332  1.0000
  S   S123      1.0  0.74365  0.15889  0.86053  1.0000
  Fe  Fe60      1.0  0.63812  0.07430  0.84664  1.0000
  S   S124      1.0  0.63604  0.02988  0.84859  1.0000
  S   S125      1.0  0.59542  0.07164  0.83111  1.0000
  Fe  Fe61      1.0  0.66343  0.04732  0.88643  1.0000
  H   H935      1.0  0.89375  0.37118  0.96457  1.0000
  Fe  Fe62      1.0  0.67905  0.05164  0.82549  1.0000
  H   H936      1.0  0.96160  0.46955  0.81712  1.0000
  S   S126      1.0  0.66358  0.09135  0.88523  1.0000
  S   S127      1.0  0.67967  0.09517  0.82129  1.0000
  H   H937      1.0  0.58060  0.01906  0.88871  1.0000
  C   C538      1.0  0.53549  0.42452  0.96198  1.0000
  C   C539      1.0  0.65982  0.02750  0.97257  1.0000
  S   S128      1.0  0.50511  0.09745  0.89638  1.0000
  H   H938      1.0  0.67319  0.05022  0.96528  1.0000
  H   H939      1.0  0.61374  0.05046  0.91594  1.0000
  H   H940      1.0  0.48959  0.17603  0.87767  1.0000
  H   H941      1.0  0.57907  0.45701  0.97623  1.0000
  H   H942      1.0  0.76919  0.31343  0.94491  1.0000
  H   H943      1.0  0.75395  0.07865  0.79899  1.0000
  C   C540      1.0  0.57057  0.07838  0.85012  1.0000
  C   C541      1.0  0.57924  0.09422  0.87425  1.0000
  C   C542      1.0  0.55888  0.09983  0.88834  1.0000
  C   C543      1.0  0.52971  0.08930  0.87859  1.0000
  C   C544      1.0  0.52091  0.07299  0.85476  1.0000
  C   C545      1.0  0.54135  0.06773  0.84051  1.0000
  H   H944      1.0  0.60174  0.10256  0.88174  1.0000
  H   H945      1.0  0.56579  0.11248  0.90680  1.0000
  H   H946      1.0  0.49845  0.06473  0.84712  1.0000
  H   H947      1.0  0.53452  0.05545  0.82186  1.0000
  C   C546      1.0  0.84741  0.21979  0.85972  1.0000
  C   C547      1.0  0.82861  0.23037  0.85087  1.0000
  C   C548      1.0  0.79709  0.21133  0.85095  1.0000
  C   C549      1.0  0.78376  0.18125  0.85950  1.0000
  C   C550      1.0  0.80262  0.17050  0.86787  1.0000
  C   C551      1.0  0.83413  0.18959  0.86786  1.0000
  H   H948      1.0  0.83844  0.25326  0.84398  1.0000
  H   H949      1.0  0.78288  0.21999  0.84435  1.0000
  H   H950      1.0  0.79293  0.14776  0.87514  1.0000
  H   H951      1.0  0.84833  0.18104  0.87480  1.0000
  C   C552      1.0  0.92492  0.42056  0.85962  1.0000
  C   C553      1.0  0.91070  0.43733  0.85467  1.0000
  C   C554      1.0  0.92423  0.46760  0.86251  1.0000
  C   C555      1.0  0.96603  0.46427  0.88059  1.0000
  C   C556      1.0  0.95251  0.43408  0.87282  1.0000
  H   H952      1.0  0.88927  0.42695  0.84455  1.0000
  H   H953      1.0  0.64713  0.08998  0.94760  1.0000
  H   H954      1.0  0.96358  0.42136  0.87689  1.0000
  H   H955      1.0  0.54374  0.42168  0.94224  1.0000
  C   C557      1.0  0.75830  0.15782  0.77806  1.0000
  C   C558      1.0  0.53921  0.44686  0.88040  1.0000
  C   C559      1.0  0.55411  0.47824  0.88162  1.0000
  H   H956      1.0  0.58200  0.14380  0.83704  1.0000
  C   C560      1.0  0.58207  0.45016  0.85705  1.0000
  C   C561      1.0  0.55312  0.43281  0.86786  1.0000
  S   S129      1.0  0.97194  0.31039  0.85810  1.0000
  H   H957      1.0  0.59299  0.43923  0.84766  1.0000
  H   H958      1.0  0.53509  0.00661  0.84009  1.0000
  H   H959      1.0  0.53723  0.19944  0.90425  1.0000
  C   C562      1.0  0.78217  0.10171  0.83241  1.0000
  H   H960      1.0  0.80084  0.11285  0.75218  1.0000
  H   H961      1.0  0.48804  0.13895  0.92622  1.0000
  H   H962      1.0  0.79490  0.06765  0.83880  1.0000
  H   H963      1.0  0.83867  0.16712  0.75642  1.0000
  H   H964      1.0  0.56677  0.00059  0.84082  1.0000
  C   C563      1.0  0.95211  0.48120  0.87532  1.0000
  C   C564      1.0  0.55695  0.45544  0.97358  1.0000
  H   H965      1.0  0.56486  0.47628  0.93451  1.0000
  N   N29       1.0  0.78238  0.12457  0.78573  1.0000
  H   H966      1.0  0.87160  0.19694  0.79504  1.0000
  H   H967      1.0  0.51546  0.17037  0.94517  1.0000
  C   C565      1.0  0.64345  0.00429  0.95441  1.0000
  H   H968      1.0  0.53717  0.16448  0.90337  1.0000
  C   C566      1.0  0.77732  0.09742  0.80166  1.0000
  N   N30       1.0  0.83924  0.30605  0.90778  1.0000
  C   C567      1.0  0.84699  0.31961  0.88001  1.0000
  C   C568      1.0  0.86453  0.32414  0.92730  1.0000
  C   C569      1.0  0.83540  0.27501  0.90591  1.0000
  C   C570      1.0  0.81022  0.30297  0.91775  1.0000
  C   C571      1.0  0.80907  0.33233  0.91955  1.0000
  C   C572      1.0  0.82216  0.30462  0.85841  1.0000
  C   C573      1.0  0.83054  0.25790  0.93279  1.0000
  C   C574      1.0  0.88382  0.35848  0.92252  1.0000
  S   S130      1.0  0.64299  0.01046  0.91912  1.0000
  C   C575      1.0  0.77731  0.32585  0.92570  1.0000
  C   C576      1.0  0.83383  0.31881  0.83092  1.0000
  C   C577      1.0  0.82922  0.22794  0.92821  1.0000
  H   H969      1.0  0.86741  0.31967  0.87255  1.0000
  H   H970      1.0  0.85305  0.34349  0.88010  1.0000
  H   H971      1.0  0.85581  0.32050  0.94820  1.0000
  H   H972      1.0  0.88100  0.31613  0.92731  1.0000
  H   H973      1.0  0.85531  0.27611  0.89586  1.0000
  H   H974      1.0  0.81576  0.26014  0.89332  1.0000
  H   H975      1.0  0.79113  0.28660  0.90524  1.0000
  H   H976      1.0  0.80515  0.29326  0.93827  1.0000
  H   H977      1.0  0.81623  0.34532  0.90063  1.0000
  H   H978      1.0  0.82369  0.34639  0.93611  1.0000
  H   H979      1.0  0.81401  0.28040  0.85641  1.0000
  H   H980      1.0  0.80277  0.30753  0.86338  1.0000
  H   H981      1.0  0.80903  0.25291  0.94221  1.0000
  H   H982      1.0  0.84892  0.27082  0.94722  1.0000
  H   H983      1.0  0.89735  0.36298  0.90403  1.0000
  H   H984      1.0  0.87002  0.36928  0.92027  1.0000
  H   H985      1.0  0.51790  0.40617  0.76445  1.0000
  H   H986      1.0  0.52966  0.45456  0.75084  1.0000
  H   H987      1.0  0.50246  0.46915  0.84454  1.0000
  H   H988      1.0  0.51551  0.00039  0.95087  1.0000
  H   H989      1.0  0.91983  0.39826  0.94102  1.0000
  H   H990      1.0  0.76173  0.31249  0.90933  1.0000
  H   H991      1.0  0.85309  0.31612  0.82478  1.0000
  H   H992      1.0  0.81580  0.30775  0.81575  1.0000
  H   H993      1.0  0.84116  0.34309  0.83133  1.0000
  H   H994      1.0  0.82564  0.21599  0.94758  1.0000
  H   H995      1.0  0.81041  0.21352  0.91459  1.0000
  H   H996      1.0  0.85058  0.23154  0.91936  1.0000
  H   H997      1.0  0.91323  0.48040  0.85858  1.0000
  H   H998      1.0  0.77348  0.08178  0.71113  1.0000
  H   H999      1.0  0.92109  0.36456  0.94769  1.0000
  H   H1000     1.0  0.76606  0.10741  0.84149  1.0000
  H   H1001     1.0  0.60941  0.03709  0.94957  1.0000
  C   C578      1.0  0.82970  0.17560  0.77230  1.0000
  C   C579      1.0  0.62311  0.08351  0.94613  1.0000
  H   H1002     1.0  0.48772  0.48095  0.75499  1.0000
  C   C580      1.0  0.81263  0.15069  0.79353  1.0000
  C   C581      1.0  0.57105  0.04095  0.93459  1.0000
  H   H1003     1.0  0.82852  0.14266  0.79867  1.0000
  H   H1004     1.0  0.62117  0.09922  0.93210  1.0000
  H   H1005     1.0  0.79221  0.08910  0.79413  1.0000
  N   N31       1.0  0.52261  0.17698  0.85000  1.0000
  H   H1006     1.0  0.70250  0.00859  0.74121  1.0000
  H   H1007     1.0  0.57409  0.27178  0.84349  1.0000
  C   C582      1.0  0.53907  0.15970  0.84726  1.0000
  C   C583      1.0  0.54539  0.20995  0.85057  1.0000
  H   H1008     1.0  0.56382  0.04194  0.95542  1.0000
  C   C584      1.0  0.52284  0.17482  0.90218  1.0000
  C   C585      1.0  0.55872  0.16646  0.82175  1.0000
  H   H1009     1.0  0.57073  0.26417  0.87919  1.0000
  H   H1010     1.0  0.51447  0.18433  0.80870  1.0000
  H   H1011     1.0  0.54877  0.27830  0.86350  1.0000
  H   H1012     1.0  0.72596  0.16038  0.80453  1.0000
  C   C586      1.0  0.56988  0.14416  0.81875  1.0000
  H   H1013     1.0  0.49463  0.14625  0.81876  1.0000
  C   C587      1.0  0.55830  0.26333  0.86071  1.0000
  C   C588      1.0  0.66296  0.99139  0.71630  1.0000
  H   H1014     1.0  0.75702  0.10516  0.70472  1.0000
  H   H1015     1.0  0.52272  0.13513  0.84773  1.0000
  H   H1016     1.0  0.55438  0.16395  0.86444  1.0000
  H   H1017     1.0  0.56306  0.21453  0.86570  1.0000
  H   H1018     1.0  0.55759  0.21714  0.83116  1.0000
  H   H1019     1.0  0.52087  0.23221  0.83740  1.0000
  H   H1020     1.0  0.81532  0.18306  0.76249  1.0000
  C   C589      1.0  0.98021  0.44386  0.80127  1.0000
  C   C590      1.0  0.52755  0.99681  0.77062  1.0000
  H   H1021     1.0  0.57877  0.18918  0.82305  1.0000
  H   H1022     1.0  0.77703  0.17904  0.78608  1.0000
  H   H1023     1.0  0.51270  0.42146  0.95936  1.0000
  H   H1024     1.0  0.54621  0.16520  0.80327  1.0000
  H   H1025     1.0  0.84820  0.21350  0.79984  1.0000
  H   H1026     1.0  0.54993  0.99897  0.77365  1.0000
  H   H1027     1.0  0.56927  0.05849  0.92306  1.0000
  H   H1028     1.0  0.81047  0.16146  0.81210  1.0000
  C   C591      1.0  0.51523  0.42858  0.80082  1.0000
  N   N32       1.0  0.51417  0.45588  0.79109  1.0000
  H   H1029     1.0  0.61524  0.08554  0.96631  1.0000
  H   H1030     1.0  0.96755  0.33077  0.74937  1.0000
  C   C592      1.0  0.66883  0.01547  0.76018  1.0000
  C   C593      1.0  0.77764  0.07300  0.84576  1.0000
  H   H1031     1.0  0.51318  0.37320  0.80251  1.0000
  H   H1032     1.0  0.55441  0.03100  0.88399  1.0000
  H   H1033     1.0  0.96432  0.43502  0.78419  1.0000
  H   H1034     1.0  0.75798  0.13573  0.81427  1.0000
  H   H1035     1.0  0.58544  0.15056  0.80144  1.0000
  C   C594      1.0  0.55916  0.48062  0.95492  1.0000
  H   H1036     1.0  0.86900  0.22003  0.76919  1.0000
  H   H1037     1.0  0.77959  0.07603  0.86784  1.0000
  Fe  Fe63      1.0  0.97579  0.34550  0.88750  1.0000
  C   C595      1.0  0.53296  0.23139  0.85548  1.0000
  H   H1038     1.0  0.63079  0.01878  0.77318  1.0000
  H   H1039     1.0  0.78625  0.13623  0.74342  1.0000
  C   C596      1.0  0.51896  0.00195  0.92875  1.0000
  H   H1040     1.0  0.76079  0.15691  0.75613  1.0000
  S   S131      1.0  0.50442  0.42616  0.89671  1.0000
  H   H1041     1.0  0.54906  0.40175  0.81543  1.0000
  C   C597      1.0  0.72951  0.15879  0.78280  1.0000
  C   C598      1.0  0.85622  0.20312  0.78492  1.0000
  H   H1042     1.0  0.54693  0.38443  0.78361  1.0000
  C   C599      1.0  0.78203  0.11709  0.75643  1.0000
  H   H1043     1.0  0.73297  0.09217  0.74960  1.0000
  H   H1044     1.0  0.73335  0.06533  0.70921  1.0000
  H   H1045     1.0  0.55073  0.12133  0.81506  1.0000
  C   C600      1.0  0.59735  0.48153  0.85906  1.0000
  C   C601      1.0  0.75278  0.08956  0.74602  1.0000
  H   H1046     1.0  0.80514  0.11973  0.83753  1.0000
  C   C602      1.0  0.63992  0.01125  0.75746  1.0000
  H   H1047     1.0  0.49045  0.43349  0.75514  1.0000
  H   H1048     1.0  0.51763  0.22453  0.87293  1.0000
  H   H1049     1.0  0.55387  0.43451  0.77632  1.0000
  H   H1050     1.0  0.53538  0.01047  0.72951  1.0000
  H   H1051     1.0  0.52535  0.43273  0.82115  1.0000
  C   C603      1.0  0.75756  0.13090  0.79259  1.0000
  H   H1052     1.0  0.73111  0.17875  0.77271  1.0000
  C   C604      1.0  0.75443  0.08535  0.71590  1.0000
  H   H1053     1.0  0.48948  0.14191  0.87524  1.0000
  H   H1054     1.0  0.73526  0.11062  0.78946  1.0000
  C   C605      1.0  0.53147  0.41661  0.78273  1.0000
  H   H1055     1.0  0.70991  0.13845  0.77445  1.0000
  H   H1056     1.0  0.49206  0.40914  0.80318  1.0000
  H   H1057     1.0  0.97094  0.42716  0.81777  1.0000
  H   H1058     1.0  0.74897  0.06862  0.75585  1.0000
  C   C606      1.0  0.50212  0.16946  0.82590  1.0000
  C   C607      1.0  0.90589  0.37393  0.94546  1.0000
  H   H1059     1.0  0.75505  0.05383  0.84108  1.0000
  H   H1060     1.0  0.48709  0.17360  0.92673  1.0000
  C   C608      1.0  0.53534  0.39254  0.79705  1.0000
  C   C609      1.0  0.51072  0.45491  0.76101  1.0000
  Fe  Fe64      1.0  0.97637  0.34226  0.82476  1.0000
  S   S132      1.0  0.98293  0.37820  0.85418  1.0000
  C   C610      1.0  0.50465  0.16666  0.87567  1.0000
  N   N33       1.0  0.55094  0.01034  0.92257  1.0000
  S   S133      1.0  0.69150  0.03292  0.78903  1.0000
  C   C611      1.0  0.50198  0.16377  0.92649  1.0000
  C   C612      1.0  0.50854  0.02347  0.91777  1.0000
  H   H1061     1.0  0.52216  0.04635  0.92609  1.0000
  H   H1062     1.0  0.96779  0.32745  0.96408  1.0000
  H   H1063     1.0  0.50997  0.02477  0.89559  1.0000
  H   H1064     1.0  0.53390  0.40681  0.97572  1.0000
  H   H1065     1.0  0.53606  0.47698  0.95350  1.0000
  C   C613      1.0  0.62267  0.99712  0.73441  1.0000
  H   H1066     1.0  0.53708  0.99872  0.68757  1.0000
  H   H1067     1.0  0.56576  0.99485  0.95665  1.0000
  H   H1068     1.0  0.52891  0.01806  0.77714  1.0000
  C   C614      1.0  0.55691  0.01260  0.89280  1.0000
  H   H1069     1.0  0.97231  0.33258  0.69969  1.0000
  H   H1070     1.0  0.48619  0.47561  0.79837  1.0000
  H   H1071     1.0  0.93867  0.48096  0.78243  1.0000
  H   H1072     1.0  0.54372  0.48394  0.82260  1.0000
  H   H1073     1.0  0.57925  0.47680  0.79827  1.0000
  H   H1074     1.0  0.48675  0.46977  0.97635  1.0000
  H   H1075     1.0  0.48578  0.45646  0.71167  1.0000
  H   H1076     1.0  0.89641  0.48923  0.77717  1.0000
  C   C615      1.0  0.50593  0.47786  0.71755  1.0000
  H   H1077     1.0  0.52628  0.47867  0.70911  1.0000
  C   C616      1.0  0.54122  0.48444  0.80053  1.0000
  C   C617      1.0  0.50815  0.48093  0.74806  1.0000
  C   C618      1.0  0.54270  0.99072  0.84609  1.0000
  H   H1078     1.0  0.96853  0.41428  0.72250  1.0000
  H   H1079     1.0  0.60036  0.99398  0.73268  1.0000
  H   H1080     1.0  0.54322  0.48919  0.89093  1.0000
  H   H1081     1.0  0.49652  0.99011  0.73917  1.0000
  C   C619      1.0  0.51840  0.99099  0.74112  1.0000
  S   S134      1.0  0.67643  0.63144  0.29024  1.0000
  Fe  Fe65      1.0  0.63420  0.65479  0.07778  1.0000
  S   S135      1.0  0.59322  0.65639  0.06571  1.0000
  S   S136      1.0  0.66957  0.66050  0.04680  1.0000
  Fe  Fe66      1.0  0.61229  0.63788  0.13708  1.0000
  S   S137      1.0  0.56971  0.63863  0.12767  1.0000
  S   S138      1.0  0.61102  0.61307  0.17623  1.0000
  Fe  Fe67      1.0  0.56795  0.61426  0.08993  1.0000
  S   S139      1.0  0.53093  0.57129  0.07185  1.0000
  Fe  Fe68      1.0  0.59900  0.68150  0.10448  1.0000
  S   S140      1.0  0.58710  0.71931  0.10224  1.0000
  S   S141      1.0  0.60875  0.61144  0.09997  1.0000
  S   S142      1.0  0.64203  0.68220  0.11572  1.0000
  N   N34       1.0  0.65026  0.74614  0.02818  1.0000
  Fe  Fe69      1.0  0.61331  0.89169  0.10879  1.0000
  S   S143      1.0  0.64566  0.94181  0.11126  1.0000
  S   S144      1.0  0.63355  0.86069  0.11423  1.0000
  Fe  Fe70      1.0  0.56080  0.90230  0.10229  1.0000
  S   S145      1.0  0.58912  0.95214  0.10533  1.0000
  S   S146      1.0  0.51183  0.88162  0.09094  1.0000
  Fe  Fe71      1.0  0.62026  0.94739  0.07687  1.0000
  H   H1082     1.0  0.84454  0.64927  0.28356  1.0000
  Fe  Fe72      1.0  0.61245  0.94372  0.13955  1.0000
  C   C620      1.0  0.63025  0.98308  0.20944  1.0000
  S   S147      1.0  0.59074  0.89742  0.07218  1.0000
  S   S148      1.0  0.58123  0.89355  0.13873  1.0000
  H   H1083     1.0  0.64762  0.75995  0.06875  1.0000
  C   C621      1.0  0.49910  0.90691  0.13375  1.0000
  H   H1084     1.0  0.52009  0.91086  0.14228  1.0000
  H   H1085     1.0  0.68692  0.80740  0.05101  1.0000
  H   H1086     1.0  0.92747  0.59072  0.05405  1.0000
  C   C622      1.0  0.48981  0.89287  0.10888  1.0000
  C   C623      1.0  0.53668  0.51349  0.21660  1.0000
  C   C624      1.0  0.61758  0.95872  0.22716  1.0000
  H   H1087     1.0  0.56695  0.53132  0.18361  1.0000
  H   H1088     1.0  0.60547  0.93617  0.21933  1.0000
  C   C625      1.0  0.63449  0.63538  0.00115  1.0000
  C   C626      1.0  0.49829  0.54916  0.09067  1.0000
  H   H1089     1.0  0.50671  0.54452  0.20742  1.0000
  H   H1090     1.0  0.91693  0.58571  0.15323  1.0000
  C   C627      1.0  0.60017  0.75856  0.10693  1.0000
  C   C628      1.0  0.62898  0.77878  0.11630  1.0000
  C   C629      1.0  0.63866  0.80972  0.11835  1.0000
  C   C630      1.0  0.61970  0.82112  0.11136  1.0000
  C   C631      1.0  0.59080  0.80086  0.10219  1.0000
  C   C632      1.0  0.58121  0.76994  0.09997  1.0000
  H   H1091     1.0  0.64373  0.77054  0.12215  1.0000
  H   H1092     1.0  0.66100  0.82497  0.12559  1.0000
  H   H1093     1.0  0.57584  0.80902  0.09670  1.0000
  H   H1094     1.0  0.55888  0.75470  0.09266  1.0000
  H   H1095     1.0  0.50218  0.58958  0.20220  1.0000
  H   H1096     1.0  0.79772  0.66241  0.31840  1.0000
  C   C633      1.0  0.52774  0.98104  0.26097  1.0000
  C   C634      1.0  0.65739  0.62605  0.25893  1.0000
  C   C635      1.0  0.66956  0.64917  0.23964  1.0000
  C   C636      1.0  0.65571  0.64588  0.21440  1.0000
  C   C637      1.0  0.62947  0.61925  0.20796  1.0000
  C   C638      1.0  0.61738  0.59611  0.22723  1.0000
  C   C639      1.0  0.63113  0.59943  0.25251  1.0000
  H   H1097     1.0  0.68983  0.66988  0.24428  1.0000
  H   H1098     1.0  0.66539  0.66392  0.19992  1.0000
  H   H1099     1.0  0.59712  0.57550  0.22258  1.0000
  H   H1100     1.0  0.62142  0.58141  0.26701  1.0000
  H   H1101     1.0  0.55038  0.52622  0.08646  1.0000
  C   C640      1.0  0.66213  0.64514  0.01376  1.0000
  H   H1102     1.0  0.51378  0.92803  0.00418  1.0000
  H   H1103     1.0  0.66778  0.83096  0.00268  1.0000
  C   C641      1.0  0.52720  0.54710  0.16762  1.0000
  C   C642      1.0  0.68729  0.75524  0.06687  1.0000
  H   H1104     1.0  0.71168  0.96162  0.24731  1.0000
  H   H1105     1.0  0.69079  0.73568  0.06514  1.0000
  C   C643      1.0  0.73019  0.93496  0.17249  1.0000
  H   H1106     1.0  0.54046  0.59888  0.19641  1.0000
  H   H1107     1.0  0.67635  0.74859  0.10946  1.0000
  H   H1108     1.0  0.60627  0.75541  0.05311  1.0000
  N   N35       1.0  0.52290  0.51581  0.16676  1.0000
  C   C644      1.0  0.54347  0.51278  0.18649  1.0000
  N   N36       1.0  0.75306  0.62077  0.28045  1.0000
  C   C645      1.0  0.73559  0.59392  0.29842  1.0000
  C   C646      1.0  0.96237  0.54457  0.05459  1.0000
  C   C647      1.0  0.73403  0.61616  0.25585  1.0000
  C   C648      1.0  0.78297  0.62457  0.27187  1.0000
  C   C649      1.0  0.79880  0.61380  0.29191  1.0000
  C   C650      1.0  0.72464  0.56308  0.28473  1.0000
  C   C651      1.0  0.74511  0.64329  0.23656  1.0000
  H   H1109     1.0  0.73669  0.90226  0.19484  1.0000
  H   H1110     1.0  0.92643  0.54321  0.07703  1.0000
  C   C652      1.0  0.83111  0.62441  0.28354  1.0000
  H   H1111     1.0  0.54436  0.49200  0.18258  1.0000
  C   C653      1.0  0.72789  0.63413  0.21009  1.0000
  H   H1112     1.0  0.71534  0.59389  0.30632  1.0000
  C   C654      1.0  0.50577  0.96862  0.02596  1.0000
  H   H1113     1.0  0.48963  0.50889  0.07066  1.0000
  H   H1114     1.0  0.51638  0.59495  0.16845  1.0000
  H   H1115     1.0  0.71068  0.60970  0.26179  1.0000
  H   H1116     1.0  0.73194  0.59712  0.24371  1.0000
  H   H1117     1.0  0.78068  0.61225  0.25291  1.0000
  H   H1118     1.0  0.79888  0.64848  0.26688  1.0000
  H   H1119     1.0  0.78691  0.58896  0.29282  1.0000
  H   H1120     1.0  0.50706  0.94179  0.07396  1.0000
  H   H1121     1.0  0.70381  0.55670  0.27323  1.0000
  H   H1122     1.0  0.74158  0.56391  0.27050  1.0000
  H   H1123     1.0  0.76936  0.65321  0.23214  1.0000
  H   H1124     1.0  0.74119  0.66074  0.24560  1.0000
  H   H1125     1.0  0.88443  0.64829  0.03588  1.0000
  H   H1126     1.0  0.54113  0.52812  0.29976  1.0000
  H   H1127     1.0  0.50069  0.96924  0.32156  1.0000
  H   H1128     1.0  0.61281  0.94588  0.99940  1.0000
  H   H1129     1.0  0.61190  0.55695  0.00572  1.0000
  H   H1130     1.0  0.83181  0.61588  0.26330  1.0000
  H   H1131     1.0  0.84145  0.61581  0.29803  1.0000
  H   H1132     1.0  0.92525  0.54969  0.17925  1.0000
  H   H1133     1.0  0.73509  0.64671  0.29803  1.0000
  C   C655      1.0  0.57409  0.55398  0.02599  1.0000
  H   H1134     1.0  0.73232  0.61799  0.19915  1.0000
  H   H1135     1.0  0.70339  0.62372  0.21376  1.0000
  H   H1136     1.0  0.73506  0.65423  0.19728  1.0000
  S   S149      1.0  0.64210  0.98569  0.04572  1.0000
  H   H1137     1.0  0.98298  0.68762  0.09257  1.0000
  C   C656      1.0  0.69323  0.76592  0.09592  1.0000
  C   C657      1.0  0.60102  0.74823  0.03209  1.0000
  H   H1138     1.0  0.71489  0.93135  0.21368  1.0000
  C   C658      1.0  0.69766  0.96703  0.16445  1.0000
  H   H1139     1.0  0.65153  0.70474  0.02518  1.0000
  H   H1140     1.0  0.95122  0.51990  0.05211  1.0000
  H   H1141     1.0  0.50140  0.58528  0.11463  1.0000
  C   C659      1.0  0.88461  0.58529  0.06344  1.0000
  C   C660      1.0  0.96782  0.58631  0.08537  1.0000
  H   H1142     1.0  0.58067  0.52181  0.22978  1.0000
  H   H1143     1.0  0.97311  0.64379  0.21878  1.0000
  C   C661      1.0  0.70038  0.97438  0.24175  1.0000
  C   C662      1.0  0.91792  0.59861  0.06980  1.0000
  C   C663      1.0  0.92240  0.58949  0.09826  1.0000
  H   H1144     1.0  0.55892  0.70866  0.04333  1.0000
  H   H1145     1.0  0.60784  0.76833  0.01937  1.0000
  H   H1146     1.0  0.49982  0.91255  0.03652  1.0000
  C   C664      1.0  0.74943  0.92148  0.18102  1.0000
  C   C665      1.0  0.61704  0.73127  0.02262  1.0000
  H   H1147     1.0  0.56103  0.97438  0.28169  1.0000
  H   H1148     1.0  0.75583  0.91320  0.16309  1.0000
  C   C666      1.0  0.51717  0.58608  0.18856  1.0000
  H   H1149     1.0  0.87386  0.59324  0.07805  1.0000
  C   C667      1.0  0.70372  0.98186  0.21137  1.0000
  C   C668      1.0  0.52002  0.93000  0.02577  1.0000
  C   C669      1.0  0.94053  0.57417  0.18166  1.0000
  C   C670      1.0  0.62101  0.96351  0.25516  1.0000
  C   C671      1.0  0.97350  0.63066  0.11008  1.0000
  C   C672      1.0  0.52897  0.95969  0.06627  1.0000
  C   C673      1.0  0.54057  0.97549  0.28700  1.0000
  H   H1150     1.0  0.71582  0.77038  0.10206  1.0000
  H   H1151     1.0  0.74304  0.96750  0.20378  1.0000
  H   H1152     1.0  0.54502  0.95279  0.07320  1.0000
  H   H1153     1.0  0.58744  0.57728  0.03366  1.0000
  C   C674      1.0  0.56259  0.53447  0.12861  1.0000
  C   C675      1.0  0.75726  0.64862  0.29438  1.0000
  H   H1154     1.0  0.79936  0.62183  0.31249  1.0000
  H   H1155     1.0  0.76996  0.66869  0.28145  1.0000
  H   H1156     1.0  0.93773  0.55707  0.13011  1.0000
  H   H1157     1.0  0.90666  0.56506  0.10087  1.0000
  H   H1158     1.0  0.70423  0.77346  0.05407  1.0000
  H   H1159     1.0  0.88200  0.59234  0.04304  1.0000
  H   H1160     1.0  0.56014  0.72107  0.00907  1.0000
  H   H1161     1.0  0.68623  0.73746  0.01840  1.0000
  H   H1162     1.0  0.97346  0.52004  0.28136  1.0000
  H   H1163     1.0  0.61660  0.63601  0.01192  1.0000
  H   H1164     1.0  0.78696  0.70409  0.32006  1.0000
  H   H1165     1.0  0.57724  0.98241  0.03798  1.0000
  H   H1166     1.0  0.70672  0.65213  0.00855  1.0000
  C   C676      1.0  0.66706  0.93058  0.19905  1.0000
  H   H1167     1.0  0.55096  0.56382  0.17221  1.0000
  S   S150      1.0  0.62893  0.97869  0.17378  1.0000
  H   H1168     1.0  0.69242  0.78695  0.09811  1.0000
  C   C677      1.0  0.67096  0.80366  0.03455  1.0000
  H   H1169     1.0  0.87054  0.61962  0.99392  1.0000
  C   C678      1.0  0.65555  0.90209  0.18167  1.0000
  C   C679      1.0  0.62373  0.87848  0.18984  1.0000
  H   H1170     1.0  0.71042  0.91742  0.16176  1.0000
  H   H1171     1.0  0.77022  0.93859  0.19109  1.0000
  C   C680      1.0  0.53747  0.98908  0.08130  1.0000
  H   H1172     1.0  0.95742  0.55417  0.03667  1.0000
  H   H1173     1.0  0.66607  0.92281  0.22001  1.0000
  H   H1174     1.0  0.65026  0.93811  0.19762  1.0000
  H   H1175     1.0  0.52301  0.55371  0.14754  1.0000
  C   C681      1.0  0.53202  0.88828  0.01845  1.0000
  H   H1176     1.0  0.56497  0.55706  0.12800  1.0000
  C   C682      1.0  0.68517  0.64444  0.99914  1.0000
  C   C683      1.0  0.68359  0.83292  0.01874  1.0000
  H   H1177     1.0  0.60534  0.70840  0.03162  1.0000
  C   C684      1.0  0.54415  0.92037  0.02828  1.0000
  H   H1178     1.0  0.51248  0.87236  0.03072  1.0000
  C   C685      1.0  0.56765  0.52688  0.10021  1.0000
  C   C686      1.0  0.50688  0.55269  0.18691  1.0000
  H   H1179     1.0  0.65501  0.90706  0.16014  1.0000
  H   H1180     1.0  0.66969  0.89172  0.18466  1.0000
  H   H1181     1.0  0.62349  0.87051  0.21058  1.0000
  H   H1182     1.0  0.60841  0.88776  0.18876  1.0000
  H   H1183     1.0  0.61526  0.85901  0.17605  1.0000
  C   C687      1.0  0.53114  0.51069  0.13901  1.0000
  H   H1184     1.0  0.74846  0.59506  0.31663  1.0000
  C   C688      1.0  0.95240  0.58174  0.13197  1.0000
  N   N37       1.0  0.69785  0.95646  0.19261  1.0000
  C   C689      1.0  0.52595  0.95973  0.23880  1.0000
  C   C690      1.0  0.58856  0.55062  0.00052  1.0000
  H   H1185     1.0  0.87297  0.56042  0.06393  1.0000
  H   H1186     1.0  0.96035  0.64009  0.11937  1.0000
  N   N38       1.0  0.95386  0.59723  0.10579  1.0000
  H   H1187     1.0  0.48802  0.92587  0.16726  1.0000
  H   H1188     1.0  0.97454  0.51250  0.24626  1.0000
  H   H1189     1.0  0.58065  0.53550  0.14144  1.0000
  H   H1190     1.0  0.56425  0.93487  0.01610  1.0000
  H   H1191     1.0  0.49908  0.50867  0.00537  1.0000
  H   H1192     1.0  0.70558  0.83883  0.00970  1.0000
  H   H1193     1.0  0.91398  0.60038  0.11228  1.0000
  H   H1194     1.0  0.64003  0.72297  0.06635  1.0000
  S   S151      1.0  0.97887  0.58958  0.29906  1.0000
  H   H1195     1.0  0.61158  0.94444  0.26856  1.0000
  H   H1196     1.0  0.57369  0.50415  0.00586  1.0000
  C   C691      1.0  0.65485  0.74583  0.05804  1.0000
  H   H1197     1.0  0.54161  0.53630  0.22225  1.0000
  C   C692      1.0  0.55959  0.98286  0.02529  1.0000
  H   H1198     1.0  0.69460  0.94987  0.14948  1.0000
  H   H1199     1.0  0.91347  0.68088  0.01903  1.0000
  C   C693      1.0  0.56698  0.72856  0.03003  1.0000
  H   H1200     1.0  0.67629  0.96086  0.24718  1.0000
  C   C694      1.0  0.51857  0.51812  0.30909  1.0000
  H   H1201     1.0  0.55101  0.54947  0.02190  1.0000
  C   C695      1.0  0.53106  0.98347  0.11127  1.0000
  H   H1202     1.0  0.68686  0.85133  0.03239  1.0000
  C   C696      1.0  0.95075  0.55207  0.07987  1.0000
  H   H1203     1.0  0.52400  0.95236  0.29349  1.0000
  H   H1204     1.0  0.69996  0.53578  0.31915  1.0000
  C   C697      1.0  0.66685  0.77738  0.01633  1.0000
  H   H1205     1.0  0.55621  0.74152  0.03662  1.0000
  H   H1206     1.0  0.95395  0.53996  0.09682  1.0000
  H   H1207     1.0  0.55155  0.92152  0.04926  1.0000
  H   H1208     1.0  0.95429  0.61539  0.16059  1.0000
  C   C698      1.0  0.66164  0.72717  0.01528  1.0000
  H   H1209     1.0  0.61239  0.72798  0.00080  1.0000
  H   H1210     1.0  0.96351  0.57845  0.18591  1.0000
  H   H1211     1.0  0.64974  0.79948  0.04385  1.0000
  H   H1212     1.0  0.92822  0.62329  0.06851  1.0000
  H   H1213     1.0  0.57337  0.53846  0.04176  1.0000
  H   H1214     1.0  0.56672  0.50489  0.09983  1.0000
  C   C699      1.0  0.72164  0.94784  0.19696  1.0000
  H   H1215     1.0  0.67792  0.97007  0.16159  1.0000
  H   H1216     1.0  0.59006  0.54435  0.09296  1.0000
  H   H1217     1.0  0.97111  0.59777  0.06581  1.0000
  N   N39       1.0  0.52875  0.96092  0.03610  1.0000
  H   H1218     1.0  0.97511  0.58562  0.13737  1.0000
  H   H1219     1.0  0.74338  0.95298  0.15777  1.0000
  H   H1220     1.0  0.50659  0.96916  0.11481  1.0000
  H   H1221     1.0  0.54971  0.88207  0.02035  1.0000
  H   H1222     1.0  0.54293  0.97240  0.11994  1.0000
  H   H1223     1.0  0.56261  0.97600  0.00490  1.0000
  H   H1224     1.0  0.54876  0.96405  0.23349  1.0000
  H   H1225     1.0  0.95744  0.62169  0.26435  1.0000
  H   H1226     1.0  0.65561  0.77828  0.99758  1.0000
  H   H1227     1.0  0.55243  0.50819  0.25551  1.0000
  H   H1228     1.0  0.72931  0.98378  0.11569  1.0000
  H   H1229     1.0  0.51198  0.93601  0.24524  1.0000
  H   H1230     1.0  0.51438  0.50951  0.12423  1.0000
  C   C700      1.0  0.49037  0.49270  0.17124  1.0000
  C   C701      1.0  0.90059  0.65599  0.01895  1.0000
  H   H1231     1.0  0.52526  0.88621  0.99709  1.0000
  H   H1232     1.0  0.73807  0.54304  0.31643  1.0000
  H   H1233     1.0  0.50466  0.97665  0.26450  1.0000
  C   C702      1.0  0.94037  0.59105  0.15650  1.0000
  H   H1234     1.0  0.93290  0.58191  0.19915  1.0000
  C   C703      1.0  0.48858  0.56153  0.11044  1.0000
  H   H1235     1.0  0.51568  0.96315  0.22057  1.0000
  C   C704      1.0  0.55658  0.50609  0.23401  1.0000
  H   H1236     1.0  0.51315  0.49700  0.22172  1.0000
  C   C705      1.0  0.97518  0.62038  0.25399  1.0000
  H   H1237     1.0  0.50619  0.96922  0.00363  1.0000
  C   C706      1.0  0.71763  0.53819  0.30499  1.0000
  H   H1238     1.0  0.91629  0.64735  0.02205  1.0000
  H   H1239     1.0  0.50965  0.53352  0.30572  1.0000
  H   H1240     1.0  0.97639  0.64385  0.06706  1.0000
  H   H1241     1.0  0.70943  0.51657  0.29438  1.0000
  C   C707      1.0  0.77416  0.65680  0.32135  1.0000
  H   H1242     1.0  0.68988  0.78314  0.01001  1.0000
  H   H1243     1.0  0.48503  0.56046  0.00802  1.0000
  H   H1244     1.0  0.49663  0.49072  0.27497  1.0000
  C   C708      1.0  0.88363  0.64438  0.99254  1.0000
  H   H1245     1.0  0.59304  0.97505  0.53050  1.0000
  H   H1246     1.0  0.62112  0.94556  0.51027  1.0000
  Fe  Fe73      1.0  0.66360  0.61024  0.39183  1.0000
  S   S152      1.0  0.65488  0.56354  0.39867  1.0000
  S   S153      1.0  0.66337  0.64159  0.42442  1.0000
  Fe  Fe74      1.0  0.69072  0.57432  0.36717  1.0000
  S   S154      1.0  0.72518  0.55848  0.37319  1.0000
  Fe  Fe75      1.0  0.62274  0.55072  0.36410  1.0000
  H   H1247     1.0  0.58747  0.59299  0.50075  1.0000
  S   S155      1.0  0.70125  0.62196  0.36221  1.0000
  S   S156      1.0  0.62976  0.59713  0.35871  1.0000
  Fe  Fe76      1.0  0.89913  0.58686  0.36848  1.0000
  S   S157      1.0  0.94895  0.61996  0.36250  1.0000
  S   S158      1.0  0.86704  0.60621  0.36643  1.0000
  Fe  Fe77      1.0  0.91110  0.53509  0.37635  1.0000
  C   C709      1.0  0.55324  0.56977  0.47005  1.0000
  Fe  Fe78      1.0  0.95675  0.59707  0.39786  1.0000
  H   H1248     1.0  0.51448  0.70520  0.63720  1.0000
  H   H1249     1.0  0.55337  0.92742  0.53918  1.0000
  S   S159      1.0  0.90747  0.56655  0.40550  1.0000
  H   H1250     1.0  0.51807  0.58487  0.50524  1.0000
  H   H1251     1.0  0.66812  0.92206  0.45669  1.0000
  H   H1252     1.0  0.52564  0.95565  0.35399  1.0000
  H   H1253     1.0  0.60543  0.57220  0.58209  1.0000
  H   H1254     1.0  0.53299  0.57027  0.61963  1.0000
  C   C710      1.0  0.76470  0.57224  0.37030  1.0000
  C   C711      1.0  0.77527  0.55176  0.37122  1.0000
  C   C712      1.0  0.80629  0.56153  0.36988  1.0000
  C   C713      1.0  0.82740  0.59210  0.36773  1.0000
  C   C714      1.0  0.81680  0.61257  0.36690  1.0000
  C   C715      1.0  0.78581  0.60279  0.36829  1.0000
  C   C716      1.0  0.97754  0.62482  0.47857  1.0000
  H   H1255     1.0  0.81389  0.54540  0.37066  1.0000
  C   C717      1.0  0.56606  0.57140  0.49854  1.0000
  H   H1256     1.0  0.77843  0.61899  0.36846  1.0000
  C   C718      1.0  0.65636  0.63741  0.45964  1.0000
  C   C719      1.0  0.65126  0.65842  0.47317  1.0000
  C   C720      1.0  0.65642  0.61440  0.47454  1.0000
  H   H1257     1.0  0.65105  0.67627  0.46190  1.0000
  H   H1258     1.0  0.65987  0.59784  0.46447  1.0000
  H   H1259     1.0  0.96530  0.55675  0.47428  1.0000
  C   C721      1.0  0.82051  0.60000  0.44243  1.0000
  Fe  Fe79      1.0  0.62666  0.65290  0.58275  1.0000
  S   S160      1.0  0.59704  0.67279  0.57534  1.0000
  S   S161      1.0  0.64503  0.63284  0.55187  1.0000
  H   H1260     1.0  0.50474  0.51581  0.62870  1.0000
  H   H1261     1.0  0.49563  0.88685  0.62938  1.0000
  Fe  Fe80      1.0  0.56519  0.63780  0.60442  1.0000
  S   S162      1.0  0.51559  0.61028  0.59437  1.0000
  Fe  Fe81      1.0  0.61820  0.70110  0.61208  1.0000
  S   S163      1.0  0.63606  0.75209  0.61553  1.0000
  S   S164      1.0  0.59351  0.61681  0.61007  1.0000
  S   S165      1.0  0.65055  0.68345  0.61798  1.0000
  Fe  Fe82      1.0  0.59467  0.89044  0.61126  1.0000
  S   S166      1.0  0.63817  0.93278  0.62102  1.0000
  S   S167      1.0  0.58215  0.84074  0.60876  1.0000
  Fe  Fe83      1.0  0.56180  0.92579  0.60061  1.0000
  C   C722      1.0  0.56242  0.49532  0.44655  1.0000
  S   S168      1.0  0.52261  0.93072  0.58616  1.0000
  Fe  Fe84      1.0  0.62763  0.95230  0.58434  1.0000
  H   H1262     1.0  0.55319  0.96441  0.44777  1.0000
  Fe  Fe85      1.0  0.60974  0.94701  0.64479  1.0000
  S   S169      1.0  0.58590  0.90966  0.57383  1.0000
  S   S170      1.0  0.56685  0.90343  0.63714  1.0000
  C   C723      1.0  0.55216  0.94347  0.49841  1.0000
  S   S171      1.0  0.58398  0.66730  0.64063  1.0000
  H   H1263     1.0  0.51149  0.96738  0.64606  1.0000
  H   H1264     1.0  0.53097  0.63950  0.50362  1.0000
  C   C724      1.0  0.52760  0.97112  0.51275  1.0000
  H   H1265     1.0  0.81270  0.58253  0.42664  1.0000
  C   C725      1.0  0.62107  0.77662  0.61134  1.0000
  C   C726      1.0  0.63976  0.80755  0.61610  1.0000
  C   C727      1.0  0.62859  0.82765  0.61477  1.0000
  C   C728      1.0  0.59835  0.81705  0.60890  1.0000
  C   C729      1.0  0.57984  0.78626  0.60349  1.0000
  C   C730      1.0  0.59109  0.76623  0.60455  1.0000
  H   H1266     1.0  0.57150  0.97310  0.38217  1.0000
  H   H1267     1.0  0.64317  0.85117  0.61906  1.0000
  H   H1268     1.0  0.55646  0.77773  0.59877  1.0000
  H   H1269     1.0  0.57639  0.74265  0.60055  1.0000
  H   H1270     1.0  0.70792  0.94371  0.46265  1.0000
  H   H1271     1.0  0.58687  0.54734  0.53845  1.0000
  H   H1272     1.0  0.52557  0.88142  0.49372  1.0000
  C   C731      1.0  0.64673  0.65683  0.50118  1.0000
  C   C732      1.0  0.64802  0.63457  0.51621  1.0000
  C   C733      1.0  0.65269  0.61326  0.50266  1.0000
  H   H1273     1.0  0.64320  0.67339  0.51123  1.0000
  H   H1274     1.0  0.65360  0.59587  0.51405  1.0000
  H   H1275     1.0  0.76947  0.60756  0.54387  1.0000
  H   H1276     1.0  0.96464  0.63222  0.51777  1.0000
  H   H1277     1.0  0.94675  0.59064  0.55045  1.0000
  H   H1278     1.0  0.93573  0.50097  0.34458  1.0000
  H   H1279     1.0  0.61752  0.95552  0.46193  1.0000
  C   C734      1.0  0.56062  0.62305  0.51660  1.0000
  H   H1280     1.0  0.67562  0.80959  0.52575  1.0000
  C   C735      1.0  0.58438  0.55020  0.58094  1.0000
  H   H1281     1.0  0.55786  0.84649  0.54740  1.0000
  S   S172      1.0  0.89926  0.55287  0.33979  1.0000
  S   S173      1.0  0.57291  0.51691  0.36666  1.0000
  H   H1282     1.0  0.78745  0.68991  0.35296  1.0000
  H   H1283     1.0  0.57069  0.62625  0.49636  1.0000
  H   H1284     1.0  0.57872  0.62962  0.53154  1.0000
  C   C736      1.0  0.70379  0.55536  0.46557  1.0000
  H   H1285     1.0  0.51775  0.95652  0.53068  1.0000
  H   H1286     1.0  0.55321  0.93350  0.37544  1.0000
  C   C737      1.0  0.68555  0.93298  0.47241  1.0000
  C   C738      1.0  0.67207  0.53167  0.45729  1.0000
  H   H1287     1.0  0.58689  0.95885  0.35751  1.0000
  H   H1288     1.0  0.77722  0.64258  0.52891  1.0000
  Fe  Fe86      1.0  0.61491  0.64830  0.64479  1.0000
  H   H1289     1.0  0.56864  0.54893  0.59679  1.0000
  C   C739      1.0  0.49544  0.57159  0.60230  1.0000
  C   C740      1.0  0.57018  0.54596  0.55327  1.0000
  H   H1290     1.0  0.95224  0.50770  0.49638  1.0000
  C   C741      1.0  0.56140  0.57021  0.54749  1.0000
  H   H1291     1.0  0.83281  0.63628  0.36550  1.0000
  H   H1292     1.0  0.56023  0.81324  0.55399  1.0000
  H   H1293     1.0  0.50630  0.52546  0.56187  1.0000
  S   S174      1.0  0.66161  0.98367  0.55291  1.0000
  Fe  Fe87      1.0  0.66591  0.60436  0.32953  1.0000
  C   C742      1.0  0.54670  0.95940  0.34446  1.0000
  H   H1294     1.0  0.71774  0.54458  0.46508  1.0000
  H   H1295     1.0  0.96887  0.55007  0.57412  1.0000
  S   S175      1.0  0.96030  0.56432  0.37060  1.0000
  H   H1296     1.0  0.53872  0.64296  0.53922  1.0000
  N   N40       1.0  0.74865  0.60676  0.45067  1.0000
  C   C743      1.0  0.76812  0.59328  0.44449  1.0000
  C   C744      1.0  0.71623  0.58300  0.44688  1.0000
  C   C745      1.0  0.75566  0.63106  0.43019  1.0000
  C   C746      1.0  0.75387  0.62033  0.47838  1.0000
  C   C747      1.0  0.53967  0.91934  0.52081  1.0000
  C   C748      1.0  0.80218  0.61589  0.44182  1.0000
  C   C749      1.0  0.73554  0.64557  0.43108  1.0000
  C   C750      1.0  0.97001  0.56587  0.55847  1.0000
  H   H1297     1.0  0.75214  0.68029  0.33745  1.0000
  C   C751      1.0  0.49345  0.52651  0.61955  1.0000
  C   C752      1.0  0.74921  0.67468  0.41494  1.0000
  H   H1298     1.0  0.76093  0.58060  0.42531  1.0000
  H   H1299     1.0  0.70127  0.59244  0.45009  1.0000
  H   H1300     1.0  0.71253  0.57488  0.42577  1.0000
  H   H1301     1.0  0.75407  0.62218  0.40952  1.0000
  H   H1302     1.0  0.77915  0.64967  0.43256  1.0000
  H   H1303     1.0  0.77188  0.64433  0.47795  1.0000
  H   H1304     1.0  0.73348  0.62070  0.48534  1.0000
  H   H1305     1.0  0.68279  0.95081  0.48222  1.0000
  H   H1306     1.0  0.80684  0.62788  0.42235  1.0000
  H   H1307     1.0  0.81024  0.63287  0.45801  1.0000
  H   H1308     1.0  0.73194  0.65073  0.45185  1.0000
  H   H1309     1.0  0.71337  0.63008  0.42214  1.0000
  H   H1310     1.0  0.96817  0.57064  0.51610  1.0000
  H   H1311     1.0  0.78642  0.61035  0.49747  1.0000
  H   H1312     1.0  0.84450  0.61644  0.43859  1.0000
  H   H1313     1.0  0.70235  0.56205  0.48639  1.0000
  H   H1314     1.0  0.50162  0.66624  0.64415  1.0000
  H   H1315     1.0  0.73336  0.68340  0.41462  1.0000
  H   H1316     1.0  0.77053  0.69189  0.42418  1.0000
  H   H1317     1.0  0.75349  0.67073  0.39398  1.0000
  H   H1318     1.0  0.55866  0.50939  0.46108  1.0000
  H   H1319     1.0  0.52401  0.58961  0.54010  1.0000
  C   C753      1.0  0.63365  0.97333  0.47457  1.0000
  H   H1320     1.0  0.70145  0.92211  0.50790  1.0000
  H   H1321     1.0  0.53601  0.54631  0.46532  1.0000
  C   C754      1.0  0.50960  0.55743  0.61428  1.0000
  N   N41       1.0  0.64828  0.87409  0.52995  1.0000
  C   C755      1.0  0.65270  0.84871  0.52069  1.0000
  C   C756      1.0  0.65185  0.89391  0.50635  1.0000
  C   C757      1.0  0.67101  0.89116  0.55156  1.0000
  C   C758      1.0  0.61739  0.86248  0.54155  1.0000
  C   C759      1.0  0.59071  0.84224  0.52293  1.0000
  C   C760      1.0  0.64500  0.82350  0.54163  1.0000
  C   C761      1.0  0.67441  0.92177  0.55964  1.0000
  C   C762      1.0  0.68331  0.91002  0.49309  1.0000
  H   H1322     1.0  0.66299  0.81595  0.62135  1.0000
  C   C763      1.0  0.56096  0.82868  0.53806  1.0000
  C   C764      1.0  0.65147  0.79964  0.53070  1.0000
  C   C765      1.0  0.69754  0.93647  0.58196  1.0000
  H   H1323     1.0  0.67648  0.85745  0.51472  1.0000
  H   H1324     1.0  0.63958  0.83825  0.50218  1.0000
  H   H1325     1.0  0.63593  0.88063  0.49013  1.0000
  H   H1326     1.0  0.64560  0.91100  0.51202  1.0000
  H   H1327     1.0  0.69360  0.89513  0.54581  1.0000
  H   H1328     1.0  0.66524  0.87755  0.57026  1.0000
  H   H1329     1.0  0.61494  0.85021  0.56053  1.0000
  H   H1330     1.0  0.61412  0.88139  0.54738  1.0000
  H   H1331     1.0  0.59273  0.82338  0.51468  1.0000
  H   H1332     1.0  0.58936  0.85553  0.50603  1.0000
  H   H1333     1.0  0.65849  0.83267  0.56010  1.0000
  H   H1334     1.0  0.62092  0.81197  0.54720  1.0000
  H   H1335     1.0  0.65285  0.91897  0.56690  1.0000
  H   H1336     1.0  0.68206  0.93769  0.54256  1.0000
  H   H1337     1.0  0.69058  0.92204  0.60012  1.0000
  H   H1338     1.0  0.75934  0.52806  0.37303  1.0000
  C   C766      1.0  0.96548  0.55249  0.52992  1.0000
  C   C767      1.0  0.57779  0.58014  0.44878  1.0000
  H   H1339     1.0  0.50458  0.53533  0.50097  1.0000
  C   C768      1.0  0.54845  0.64459  0.51899  1.0000
  H   H1340     1.0  0.63780  0.78897  0.51255  1.0000
  H   H1341     1.0  0.76519  0.57623  0.45958  1.0000
  H   H1342     1.0  0.64564  0.78198  0.54616  1.0000
  H   H1343     1.0  0.69949  0.95831  0.58730  1.0000
  H   H1344     1.0  0.95071  0.58468  0.58532  1.0000
  H   H1345     1.0  0.93955  0.50049  0.55712  1.0000
  H   H1346     1.0  0.58252  0.59212  0.54813  1.0000
  H   H1347     1.0  0.54210  0.81573  0.52405  1.0000
  H   H1348     1.0  0.52983  0.87387  0.52823  1.0000
  H   H1349     1.0  0.74854  0.58096  0.50144  1.0000
  H   H1350     1.0  0.56774  0.57631  0.42846  1.0000
  C   C769      1.0  0.95483  0.49275  0.54981  1.0000
  H   H1351     1.0  0.67211  0.52360  0.43666  1.0000
  H   H1352     1.0  0.94343  0.51015  0.44713  1.0000
  H   H1353     1.0  0.94165  0.53459  0.52768  1.0000
  H   H1354     1.0  0.73887  0.61261  0.53315  1.0000
  N   N42       1.0  0.55755  0.97415  0.50606  1.0000
  N   N43       1.0  0.54513  0.56697  0.52145  1.0000
  H   H1355     1.0  0.95608  0.61843  0.46953  1.0000
  H   H1356     1.0  0.68757  0.89349  0.48265  1.0000
  H   H1357     1.0  0.71988  0.94070  0.57525  1.0000
  H   H1358     1.0  0.54814  0.57096  0.56480  1.0000
  H   H1359     1.0  0.57282  0.55404  0.49898  1.0000
  H   H1360     1.0  0.57329  0.94524  0.49084  1.0000
  H   H1361     1.0  0.59021  0.56773  0.45043  1.0000
  C   C770      1.0  0.63559  0.96761  0.50201  1.0000
  H   H1362     1.0  0.51627  0.91305  0.52591  1.0000
  H   H1363     1.0  0.56489  0.97690  0.54912  1.0000
  H   H1364     1.0  0.53279  0.94879  0.65059  1.0000
  H   H1365     1.0  0.81859  0.58944  0.46228  1.0000
  C   C771      1.0  0.53535  0.59014  0.52093  1.0000
  H   H1366     1.0  0.48684  0.54203  0.54575  1.0000
  H   H1367     1.0  0.53223  0.98235  0.45785  1.0000
  H   H1368     1.0  0.52122  0.51605  0.33097  1.0000
  H   H1369     1.0  0.59382  0.60449  0.45095  1.0000
  H   H1370     1.0  0.51119  0.95937  0.49639  1.0000
  H   H1371     1.0  0.55042  0.52308  0.55277  1.0000
  H   H1372     1.0  0.52417  0.51898  0.51572  1.0000
  Fe  Fe88      1.0  0.94911  0.58474  0.33565  1.0000
  C   C772      1.0  0.53948  0.89086  0.51198  1.0000
  S   S176      1.0  0.60315  0.96961  0.60894  1.0000
  C   C773      1.0  0.76313  0.60557  0.50075  1.0000
  H   H1373     1.0  0.53570  0.93384  0.48177  1.0000
  H   H1374     1.0  0.56267  0.89564  0.50792  1.0000
  C   C774      1.0  0.76208  0.61790  0.52831  1.0000
  C   C775      1.0  0.51770  0.53633  0.51905  1.0000
  H   H1375     1.0  0.65674  0.54100  0.45805  1.0000
  C   C776      1.0  0.48839  0.91627  0.60380  1.0000
  H   H1376     1.0  0.92350  0.55397  0.56525  1.0000
  C   C777      1.0  0.49550  0.52637  0.54296  1.0000
  C   C778      1.0  0.94617  0.57420  0.56516  1.0000
  C   C779      1.0  0.56578  0.95610  0.36621  1.0000
  S   S177      1.0  0.65715  0.55705  0.33296  1.0000
  H   H1377     1.0  0.56697  0.66795  0.51597  1.0000
  H   H1378     1.0  0.58999  0.53234  0.58473  1.0000
  C   C780      1.0  0.77517  0.68446  0.33363  1.0000
  C   C781      1.0  0.55501  0.98541  0.45555  1.0000
  H   H1379     1.0  0.54276  0.58394  0.46815  1.0000
  C   C782      1.0  0.57815  0.98495  0.53025  1.0000
  H   H1380     1.0  0.96975  0.54254  0.42840  1.0000
  H   H1381     1.0  0.53623  0.68834  0.62632  1.0000
  H   H1382     1.0  0.57996  0.72987  0.64956  1.0000
  C   C783      1.0  0.97621  0.52555  0.49528  1.0000
  C   C784      1.0  0.53227  0.96964  0.65483  1.0000
  C   C785      1.0  0.96749  0.52746  0.44529  1.0000
  H   H1383     1.0  0.66344  0.51226  0.47118  1.0000
  C   C786      1.0  0.52177  0.68889  0.64259  1.0000
  H   H1384     1.0  0.76282  0.63831  0.33593  1.0000
  H   H1385     1.0  0.57269  0.50880  0.42816  1.0000
  C   C787      1.0  0.97885  0.54576  0.47106  1.0000
  H   H1386     1.0  0.54117  0.94139  0.32961  1.0000
  C   C788      1.0  0.98246  0.63260  0.50603  1.0000
  H   H1387     1.0  0.48434  0.97824  0.53984  1.0000
  H   H1388     1.0  0.98075  0.51647  0.44045  1.0000
  Fe  Fe89      1.0  0.68317  0.61390  0.83038  1.0000
  S   S178      1.0  0.70011  0.58131  0.82804  1.0000
  S   S179      1.0  0.68670  0.64386  0.79458  1.0000
  Fe  Fe90      1.0  0.67150  0.60347  0.89193  1.0000
  S   S180      1.0  0.68773  0.57005  0.89336  1.0000
  S   S181      1.0  0.64607  0.61193  0.92576  1.0000
  Fe  Fe91      1.0  0.72556  0.60168  0.86613  1.0000
  S   S182      1.0  0.77641  0.61903  0.86939  1.0000
  Fe  Fe92      1.0  0.66135  0.55216  0.85519  1.0000
  H   H1389     1.0  0.76176  0.60650  0.80681  1.0000
  S   S183      1.0  0.71097  0.63656  0.86717  1.0000
  S   S184      1.0  0.64269  0.58324  0.85504  1.0000
  H   H1390     1.0  0.97521  0.68693  0.90041  1.0000
  Fe  Fe93      1.0  0.91184  0.57694  0.87135  1.0000
  S   S185      1.0  0.94937  0.62484  0.87093  1.0000
  S   S186      1.0  0.86118  0.56051  0.87155  1.0000
  Fe  Fe94      1.0  0.95597  0.55345  0.87764  1.0000
  H   H1391     1.0  0.80653  0.60678  0.76501  1.0000
  H   H1392     1.0  0.61572  0.84162  0.68006  1.0000
  H   H1393     1.0  0.79702  0.63564  0.73788  1.0000
  S   S187      1.0  0.97111  0.51944  0.88430  1.0000
  H   H1394     1.0  0.54369  0.53846  0.95596  1.0000
  S   S188      1.0  0.92993  0.56418  0.90726  1.0000
  S   S189      1.0  0.93470  0.56148  0.84155  1.0000
  C   C789      1.0  0.79514  0.65181  0.75136  1.0000
  H   H1395     1.0  0.74312  0.63566  0.72108  1.0000
  H   H1396     1.0  0.87199  0.70287  0.74671  1.0000
  H   H1397     1.0  0.97463  0.57770  0.72299  1.0000
  H   H1398     1.0  0.53939  0.92380  0.72129  1.0000
  H   H1399     1.0  0.61038  0.71849  0.73595  1.0000
  H   H1400     1.0  0.76829  0.57715  0.76986  1.0000
  H   H1401     1.0  0.52105  0.94651  0.91834  1.0000
  H   H1402     1.0  0.59731  0.52779  0.81761  1.0000
  H   H1403     1.0  0.54348  0.74452  0.76250  1.0000
  C   C790      1.0  0.56861  0.73543  0.71668  1.0000
  H   H1404     1.0  0.85612  0.55217  0.96658  1.0000
  C   C791      1.0  0.60204  0.72058  0.69322  1.0000
  C   C792      1.0  0.79938  0.60208  0.86965  1.0000
  C   C793      1.0  0.83063  0.62042  0.86647  1.0000
  C   C794      1.0  0.84988  0.60823  0.86680  1.0000
  C   C795      1.0  0.83814  0.57741  0.87050  1.0000
  C   C796      1.0  0.80690  0.55911  0.87367  1.0000
  C   C797      1.0  0.78765  0.57128  0.87326  1.0000
  H   H1405     1.0  0.84001  0.64425  0.86350  1.0000
  H   H1406     1.0  0.87372  0.62260  0.86393  1.0000
  H   H1407     1.0  0.79747  0.53524  0.87649  1.0000
  H   H1408     1.0  0.76374  0.55680  0.87577  1.0000
  C   C798      1.0  0.66671  0.63762  0.76376  1.0000
  C   C799      1.0  0.64054  0.61067  0.75800  1.0000
  C   C800      1.0  0.62543  0.60705  0.73341  1.0000
  C   C801      1.0  0.63626  0.63017  0.71412  1.0000
  C   C802      1.0  0.66278  0.65689  0.71968  1.0000
  C   C803      1.0  0.67770  0.66064  0.74438  1.0000
  H   H1409     1.0  0.63180  0.59275  0.77258  1.0000
  H   H1410     1.0  0.60505  0.58621  0.72935  1.0000
  H   H1411     1.0  0.67174  0.67472  0.70500  1.0000
  H   H1412     1.0  0.69798  0.68155  0.74849  1.0000
  C   C804      1.0  0.65329  0.62494  0.95960  1.0000
  H   H1413     1.0  0.82745  0.61235  0.92694  1.0000
  Fe  Fe95      1.0  0.97343  0.60880  0.84320  1.0000
  H   H1414     1.0  0.49314  0.91461  0.67715  1.0000
  H   H1415     1.0  0.69871  0.63381  0.96145  1.0000
  H   H1416     1.0  0.48467  0.90637  0.71147  1.0000
  H   H1417     1.0  0.68271  0.58849  0.74515  1.0000
  C   C805      1.0  0.53863  0.69730  0.66926  1.0000
  H   H1418     1.0  0.63926  0.56442  0.97062  1.0000
  C   C806      1.0  0.77612  0.69694  0.82169  1.0000
  H   H1419     1.0  0.67802  0.69505  0.98185  1.0000
  H   H1420     1.0  0.94841  0.68427  0.87543  1.0000
  C   C807      1.0  0.84961  0.68608  0.73887  1.0000
  C   C808      1.0  0.59957  0.79387  0.68169  1.0000
  C   C809      1.0  0.59599  0.52395  0.79564  1.0000
  H   H1421     1.0  0.78454  0.71518  0.80654  1.0000
  H   H1422     1.0  0.65297  0.71439  0.69531  1.0000
  C   C810      1.0  0.96969  0.52370  0.80236  1.0000
  H   H1423     1.0  0.90907  0.64135  0.90202  1.0000
  H   H1424     1.0  0.78851  0.66480  0.73800  1.0000
  H   H1425     1.0  0.94816  0.69893  0.93502  1.0000
  H   H1426     1.0  0.74770  0.59699  0.74587  1.0000
  H   H1427     1.0  0.83488  0.66458  0.77695  1.0000
  H   H1428     1.0  0.61389  0.49975  0.95076  1.0000
  H   H1429     1.0  0.51029  0.87668  0.67672  1.0000
  H   H1430     1.0  0.85148  0.66740  0.72981  1.0000
  C   C811      1.0  0.55134  0.53281  0.93723  1.0000
  H   H1431     1.0  0.54711  0.93039  0.68608  1.0000
  H   H1432     1.0  0.59464  0.51972  0.87250  1.0000
  C   C812      1.0  0.56527  0.74555  0.76604  1.0000
  C   C813      1.0  0.58124  0.53296  0.94169  1.0000
  C   C814      1.0  0.57138  0.51805  0.99001  1.0000
  H   H1433     1.0  0.59096  0.54016  0.78557  1.0000
  H   H1434     1.0  0.60646  0.75799  0.74566  1.0000
  H   H1435     1.0  0.65381  0.71132  0.73125  1.0000
  C   C815      1.0  0.93591  0.68696  0.91667  1.0000
  H   H1436     1.0  0.68816  0.56924  0.96116  1.0000
  H   H1437     1.0  0.78010  0.56991  0.81641  1.0000
  H   H1438     1.0  0.54470  0.96720  0.88060  1.0000
  H   H1439     1.0  0.90255  0.60117  0.97348  1.0000
  H   H1440     1.0  0.80343  0.56537  0.79222  1.0000
  C   C816      1.0  0.50237  0.92226  0.69754  1.0000
  H   H1441     1.0  0.53802  0.50397  0.79683  1.0000
  H   H1442     1.0  0.50280  0.97941  0.92098  1.0000
  H   H1443     1.0  0.94919  0.51351  0.76199  1.0000
  H   H1444     1.0  0.64046  0.55141  0.93764  1.0000
  H   H1445     1.0  0.82403  0.65705  0.91112  1.0000
  H   H1446     1.0  0.52686  0.91146  0.94817  1.0000
  C   C817      1.0  0.87639  0.60806  0.94197  1.0000
  H   H1447     1.0  0.91797  0.52705  0.78932  1.0000
  H   H1448     1.0  0.55791  0.74422  0.66334  1.0000
  C   C818      1.0  0.57202  0.49176  0.78900  1.0000
  H   H1449     1.0  0.53365  0.55546  0.91293  1.0000
  Fe  Fe96      1.0  0.96832  0.61141  0.90589  1.0000
  H   H1450     1.0  0.51651  0.95287  0.95285  1.0000
  C   C819      1.0  0.67808  0.71409  0.97148  1.0000
  H   H1451     1.0  0.62685  0.78049  0.70436  1.0000
  C   C820      1.0  0.63028  0.62570  0.97422  1.0000
  C   C821      1.0  0.87570  0.55967  0.95303  1.0000
  H   H1452     1.0  0.54408  0.67959  0.67393  1.0000
  H   H1453     1.0  0.52966  0.96970  0.83452  1.0000
  H   H1454     1.0  0.88944  0.54997  0.96026  1.0000
  H   H1455     1.0  0.87189  0.65445  0.90974  1.0000
  H   H1456     1.0  0.52298  0.69657  0.68491  1.0000
  S   S190      1.0  0.61067  0.96909  0.68526  1.0000
  H   H1457     1.0  0.81866  0.59927  0.81156  1.0000
  C   C822      1.0  0.90556  0.65517  0.96853  1.0000
  H   H1458     1.0  0.62229  0.68333  0.71262  1.0000
  H   H1459     1.0  0.82665  0.69429  0.77037  1.0000
  H   H1460     1.0  0.51385  0.55966  0.98794  1.0000
  H   H1461     1.0  0.97240  0.71941  0.89185  1.0000
  H   H1462     1.0  0.75173  0.68800  0.82480  1.0000
  C   C823      1.0  0.78015  0.61872  0.79201  1.0000
  H   H1463     1.0  0.80639  0.68170  0.81005  1.0000
  C   C824      1.0  0.62412  0.82636  0.68610  1.0000
  C   C825      1.0  0.79817  0.58183  0.80138  1.0000
  C   C826      1.0  0.63902  0.70764  0.71377  1.0000
  H   H1464     1.0  0.67170  0.70770  0.95023  1.0000
  H   H1465     1.0  0.48546  0.97861  0.69482  1.0000
  H   H1466     1.0  0.58004  0.78921  0.69437  1.0000
  C   C827      1.0  0.74325  0.61230  0.75815  1.0000
  C   C828      1.0  0.72852  0.62480  0.73871  1.0000
  C   C829      1.0  0.69851  0.59971  0.72827  1.0000
  H   H1467     1.0  0.74024  0.64413  0.79398  1.0000
  H   H1468     1.0  0.72595  0.59787  0.77315  1.0000
  H   H1469     1.0  0.72413  0.64145  0.74859  1.0000
  S   S191      1.0  0.61560  0.62430  0.68373  1.0000
  H   H1470     1.0  0.56112  0.72302  0.77206  1.0000
  H   H1471     1.0  0.68836  0.60924  0.71461  1.0000
  N   N44       1.0  0.89228  0.64190  0.94162  1.0000
  C   C830      1.0  0.51636  0.96143  0.73136  1.0000
  C   C831      1.0  0.87140  0.65277  0.93204  1.0000
  C   C832      1.0  0.91772  0.65259  0.92171  1.0000
  H   H1472     1.0  0.92460  0.65142  0.97322  1.0000
  H   H1473     1.0  0.67204  0.98379  0.70062  1.0000
  H   H1474     1.0  0.58944  0.77943  0.73662  1.0000
  N   N45       1.0  0.77136  0.63532  0.77232  1.0000
  C   C833      1.0  0.83758  0.63329  0.93899  1.0000
  C   C834      1.0  0.82057  0.64974  0.93240  1.0000
  C   C835      1.0  0.53313  0.95512  0.93748  1.0000
  H   H1475     1.0  0.56118  0.93523  0.93038  1.0000
  C   C836      1.0  0.82680  0.67456  0.76174  1.0000
  H   H1476     1.0  0.64109  0.74982  0.71865  1.0000
  C   C837      1.0  0.68075  0.63417  0.97234  1.0000
  H   H1477     1.0  0.87926  0.67596  0.93929  1.0000
  H   H1478     1.0  0.55794  0.71173  0.72366  1.0000
  H   H1479     1.0  0.53998  0.88149  0.69889  1.0000
  C   C838      1.0  0.78197  0.67202  0.81259  1.0000
  H   H1480     1.0  0.59233  0.79191  0.66054  1.0000
  H   H1481     1.0  0.91573  0.67995  0.96804  1.0000
  C   C839      1.0  0.52004  0.88431  0.69699  1.0000
  C   C840      1.0  0.89472  0.59385  0.95271  1.0000
  C   C841      1.0  0.94370  0.50455  0.78267  1.0000
  H   H1482     1.0  0.96254  0.51378  0.82272  1.0000
  H   H1483     1.0  0.77460  0.65537  0.82903  1.0000
  H   H1484     1.0  0.65777  0.74147  0.97416  1.0000
  H   H1485     1.0  0.61503  0.50774  0.98544  1.0000
  H   H1486     1.0  0.83380  0.62696  0.96041  1.0000
  C   C842      1.0  0.58476  0.75635  0.74088  1.0000
  H   H1487     1.0  0.53341  0.51074  0.93002  1.0000
  H   H1488     1.0  0.90843  0.49570  0.81160  1.0000
  H   H1489     1.0  0.84302  0.69698  0.72316  1.0000
  C   C843      1.0  0.65591  0.72165  0.98468  1.0000
  H   H1490     1.0  0.53855  0.96360  0.73576  1.0000
  C   C844      1.0  0.61107  0.77167  0.68727  1.0000
  C   C845      1.0  0.53782  0.98400  0.87610  1.0000
  N   N46       1.0  0.58717  0.73948  0.69195  1.0000
  C   C846      1.0  0.61190  0.51510  0.96530  1.0000
  H   H1491     1.0  0.76533  0.67413  0.77310  1.0000
  H   H1492     1.0  0.82812  0.66963  0.94550  1.0000
  C   C847      1.0  0.52946  0.91726  0.70101  1.0000
  H   H1493     1.0  0.70112  0.73373  0.97206  1.0000
  H   H1494     1.0  0.79965  0.63432  0.80436  1.0000
  H   H1495     1.0  0.57690  0.76134  0.78277  1.0000
  C   C848      1.0  0.54552  0.93487  0.94588  1.0000
  H   H1496     1.0  0.67097  0.52969  0.95450  1.0000
  H   H1497     1.0  0.96773  0.58577  0.77103  1.0000
  H   H1498     1.0  0.54964  0.73920  0.71177  1.0000
  H   H1499     1.0  0.57228  0.57890  0.92264  1.0000
  H   H1500     1.0  0.51354  0.97423  0.87998  1.0000
  N   N47       1.0  0.58124  0.51237  0.96326  1.0000
  H   H1501     1.0  0.78783  0.70640  0.84095  1.0000
  H   H1502     1.0  0.58816  0.52773  0.92221  1.0000
  H   H1503     1.0  0.60900  0.61881  0.96459  1.0000
  C   C849      1.0  0.55525  0.55598  0.91608  1.0000
  H   H1504     1.0  0.93440  0.64624  0.92822  1.0000
  H   H1505     1.0  0.61389  0.95667  0.95068  1.0000
  C   C850      1.0  0.78804  0.59583  0.77976  1.0000
  H   H1506     1.0  0.79617  0.63449  0.93558  1.0000
  H   H1507     1.0  0.56252  0.55109  0.89670  1.0000
  C   C851      1.0  0.76389  0.65648  0.78694  1.0000
  C   C852      1.0  0.62337  0.72600  0.71701  1.0000
  H   H1508     1.0  0.91452  0.59996  0.93997  1.0000
  H   H1509     1.0  0.59828  0.55658  0.94577  1.0000
  H   H1510     1.0  0.50397  0.49663  0.70876  1.0000
  C   C853      1.0  0.62627  0.97490  0.96450  1.0000
  C   C854      1.0  0.63968  0.54623  0.95935  1.0000
  H   H1511     1.0  0.58515  0.69642  0.69439  1.0000
  H   H1512     1.0  0.86858  0.59924  0.92138  1.0000
  C   C855      1.0  0.53440  0.97606  0.68537  1.0000
  H   H1513     1.0  0.92124  0.69589  0.91033  1.0000
  H   H1514     1.0  0.70162  0.58288  0.71704  1.0000
  H   H1515     1.0  0.57813  0.98914  0.92519  1.0000
  H   H1516     1.0  0.55760  0.94234  0.96526  1.0000
  N   N48       1.0  0.50846  0.95370  0.70221  1.0000
  H   H1517     1.0  0.86759  0.55102  0.93253  1.0000
  H   H1518     1.0  0.85575  0.59838  0.95429  1.0000
  H   H1519     1.0  0.63296  0.70242  0.98132  1.0000
  S   S192      1.0  0.63398  0.50252  0.84611  1.0000
  H   H1520     1.0  0.50024  0.94291  0.74455  1.0000
  H   H1521     1.0  0.62534  0.77323  0.66985  1.0000
  H   H1522     1.0  0.58866  0.56666  0.98572  1.0000
  H   H1523     1.0  0.51079  0.97835  0.78340  1.0000
  H   H1524     1.0  0.48569  0.56554  0.97224  1.0000
  H   H1525     1.0  0.66984  0.54282  0.98798  1.0000
  H   H1526     1.0  0.97117  0.54596  0.80375  1.0000
  H   H1527     1.0  0.54709  0.51073  0.98954  1.0000
  H   H1528     1.0  0.64414  0.83176  0.67373  1.0000
  C   C856      1.0  0.56690  0.72906  0.66764  1.0000
  C   C857      1.0  0.63397  0.98701  0.71368  1.0000
  H   H1529     1.0  0.52809  0.50291  0.75281  1.0000
  H   H1530     1.0  0.50331  0.87009  0.71234  1.0000
  H   H1531     1.0  0.63066  0.83033  0.70754  1.0000
  C   C858      1.0  0.58317  0.49555  0.87118  1.0000
  H   H1532     1.0  0.61825  0.52816  0.78866  1.0000
  C   C859      1.0  0.95936  0.69474  0.89473  1.0000
  H   H1533     1.0  0.55594  0.97838  0.69264  1.0000
  C   C860      1.0  0.91493  0.50418  0.79079  1.0000
  H   H1534     1.0  0.61492  0.72349  0.67437  1.0000
  C   C861      1.0  0.66888  0.54685  0.96624  1.0000
  H   H1535     1.0  0.57165  0.48952  0.76694  1.0000
  H   H1536     1.0  0.86805  0.65327  0.99074  1.0000
  C   C862      1.0  0.55852  0.98834  0.93551  1.0000
  C   C863      1.0  0.48982  0.55332  0.98851  1.0000
  C   C864      1.0  0.62555  0.96869  0.99220  1.0000
