data_image0
_chemical_formula_structural       FeS2HSHFeHFeSCSFeS2FeSHFeSFeS4H4FeS2FeSHSHFeCSH2FeS2H2C6H4C6H4FeHC10H2FeHCHC6H2CSC6H3C2H2CHCHSHC2H3C2FeC2HCH2C2H6CH4CHNC6HC2H17C2HCH10C2H3C2H2CSH10CH2CHCH2CSHFeH3CHC2S2CNC6HCHC2HC2H2CH7CH4FeH6CSH3SCH2CHCSHSH7CHCHCH11CSH2CNH3C2H4C2H6CH11CH3CNH5FeH2CH2NCHC2H2NCHS2CHSFeHCFeSHCHSFeS2FeS2FeHFeS3C6H3C6H4C6H4CSC3HC5HCH2CH3C2S2C2HCH5CH4NHC2H3SHNC12H31SHC2HC5H2SH3CH4CHCHCHSH4CH4NC10H23NHSC2HCH10FeHC2H2SCHCHSHFeS2CHCH7CH2CHSH2CFeCHFeH3C2H4C2HNHC5HCHCHCH10CHFeHC2HC2HSH8CH2C2HCHC3H4CH4CH2FeCHFeH4CHCH4CH2SCNH4SFeS2CSNC5SH3SH2S2FeSHCH2FeS2FeS2FeSFeS3C6H4C6H4C6H10CH3C2H4CHCH2CHFeC6H3C4H2FeCH2CH2CH2CH5CSH2C2HSHC2HCH5CHC2H4CH2CSH6NCHC4H8CHCH3CHCHSH3SH6FeCHCH3CH3CHSCH3SH2CH2CHCH2CH4CHCHC2NC4HCSC5H12FeH6C3H3CH2NC12H22CH2C4H5NH2CH3CSC2HCH4CH2C2H2CH5CH3FeH2CH6SNHFeCH2CHCH4C3HC2H2NH2SFeSCSH2SCFeSHFeSFeSNSHSFeSHC3HC2H3SC2H5C6H4C7H3C5HCH3CH4CHSFeH2CHCH2NFeSCH7CHCHC2H2C2HCNC6HCH13FeH2CH3CH3SHCH2CH7CH6CHCH2FeH4SC2H7SC3HCH3CH2C2HCH4CHSCHCH8CH6CHCH4CHCNH3CHCH3SCH4CHNFeH3FeHC3H11NCHSHCH2SCFeH3CSH3SCHSHS2CFeSCH2C5H4C7SCH2CHFeHCSHCH4C2H3CH6CH3C4H3CH2C2HCH3CH6C2HCFeCHNHCFeH5SH2CH5NHCHCH2C3HCH6SH2CHCH8CHC2H3SH2C2HCH5C4H3NC4HC3HSC2H15C2HCH6CHNCHC2SC3H11C2H3FeSFeS2FeS2FeSFeS3CSFeSH2FeS3HFeSCSC2HC2H2C6H4C6H4C6H6CHCH5C2H2FeHC4HCHCHCH2CSCHCH2C2H5CH5CFeHNC4HC3HCSCH9SHCH3C3H2CH3NC2HC5HNCH16FeH3C2H10CH5C2SFeHCNH2CHCH6CHCHCHCH4C2HNC12H28C2H4C2HCHCHCHC2HCH8C3HC2H7NH5CHSC2SCHCH4C2H2CHCH2FeH4NH4C4H2CH2CH5FeSH3C2H4CHCHCH2C2SH4SHFeS2FeS2FeSFeS3HFeS2HSFeS2FeH4FeSCSC7H4C6H4C6H4C6H10CHCH3NC12H29SH3FeH4NC12H21CSCH3CHCHSH4CH5NH2CHCHCHC2HFeH2CHCHCH2CH9C2H2CHCHCH2CH2CH2CNH2C4H2SC2H4CHCH8NCHCHCHCH3CH2CHFeCHNCNCSCH4CFeH3FeH2SHCH2FeSCFeS2HFeSHSCHSH2CHSCH6CH3CH2CH3CHCH2C3HC5H2C4H5C5H4C4H3CSCSCH2CHC2H11SCHCH4NHC2HCHFeH2CH3C2H3CHC2H3CH4C2SCSCH3SH3CH2NH3CH2C3NHC2HCHCHCHCH2NC5H5CH4CH4CH2C2H2CH4CFeCH2CH2FeC2SH2SCHCH2CH2CSHFeHCFeCSFeSHSCSCFeSH2S2FeSFeSHC6H4C6H4CHC3HCH2NH2NC5H3C9HCHC2H2CHC2FeCH9CH5CH5CSCH3CHC3H3CH3CH4CH4C2H2CH2CH3NH2CH3C2H2CH3SH2CH2CH2SCH2SCHCHCH3CH4CH4NC8HC3H18CH9CH5CNCH3SH4CH2CH5CHSHCH7CSH8FeSCH2SHSCHFeS2FeS2FeSFeS3C3HC2H4C2HC2H3C6H4C6H4C6H2CH2C3H6CHCH3CH4CHSH3CHCHSCH3SHC3H8C4H4C2HCH6CHCHSC2HCH2CFeCHCHCH2CH4NCHCSC2H2CNHCHC2H6CH6SH2CHCH2C4H2C2HCSHCH2CHCH3NHCH2NCHCH3CH2CHCHC2H2CFeH2C2H4CNC2HC2H2CH4CNH2CH10CH6CH9CHC3HCH4SH4SCHFeH3CH7NFeHC2H5SCHC2HCHCHC2HSHFeSHSFeS2FeS2FeSFeS3FeSFeS2C6H4C6H6CH2C6H4SH4CSCHCHC2HC6H3CH4CHC2H2C2H3CHCHC2H2SH9SH8CHCNC12H29FeH6CH2CH4C3H2CH6CHCSH2CH2CH2CH4N2CHCHNCH5CHNH4CH2CH3CH4C3H7CH2CH2C2H4CH3CFeHSFeH3CH3FeH3CH2CH4CFeHC2NCH2SCH2SCSFeHC2HFeS2FeSFeSHSHCHCHFeS2FeSFeHS2C4HFeHCHCH2C7H4C6HFeH2C6H3C4S2C3HCH4CHFeH3SH11CFeCH3C2HCHSCH5SHSHCHSCH4CSFeH3CHCHFeH2FeH2SH3FeH2NHCH4SH2CHCH3SHCH3SH2CH2CHCH3CNC5HC5H6CH2CH8CH4SCH4C3H6SNC8H9C2HS2HSC2H2CSCH3C2FeS2Fe2CS2FeHFeS2FeHS2HFeSFeS4HFeSC3H3C6H3CSCHCNHFeC5H2C2HSCH2C2SCH4C2FeSH2C2NC4FeCHC2H2CH4FeHCHCHCNCH2CHCH2CH2CH4CH2CH3SCHCHCH6CHCNCHC3H4CH2CHCH3CH17CH3C2H2CFeH7C2SC2HCHSH2C2H3C2HC2H2CH2S2HSH2SFeHCNHCHCHCH2CHC2H5NC12H26C2H4CH2CH3C2HCHC2H4CH4CH2FeNHSFe2S2FeS2FeSFeS3FeS4HSHFeSH3CSCHC7H4C6H4C6H4CH4S2H2CSH2C2H2NC12H33CH3C2HFeH2CH3CHCHCHSH2CHCHCHC2H2SH4CFeSH4CH4CHCHCH5CSCSHC3H4SH6CHCH2NC3HCH2CHCHCHCHFeHCNC12H28CHCH4SH7C3H2FeHCSH2CHC3Fe2H4C2HCH3C2H3SCH2NSC3HCHCH4C2H2CH3CHCHCHSH2CH10CH2CS2FeS2FeS2FeSFeS3HSH2CH2FeS2FeSFeCS2C6H3CH2C3H3C7H4C6H4C6H4C6H6CNCHC2H2CHC2H6CH2CH12NC12H31SH4C4H11CH3CH4CSH23CH3CH7CHCHC2HC2NCH5C2H3NC10H4C2HCHC2H2SC2HCH2CH2SHCSCH3C2H2CNCHCH4CH3CH3CFe2H2SH3SH4CHCHCHC2SC2H5C2H2FeH4C2HC4H8SC2HCHCHC2HN2HCHCH3NH3CHFeH3NHC2H2C2H6CHCH7CHCHC2H2S2CH3CH3SH2C4H5CH3C2H4CFeHCFeCH3SH2CH2CHCHC3H3CH3CH
_chemical_formula_sum              "Fe176 S352 H2816 C1584 N88"
_cell_length_a       44.9634
_cell_length_b       89.3454
_cell_length_c       43.0851
_cell_angle_alpha    86.89
_cell_angle_beta     88.918
_cell_angle_gamma    85.108

_space_group_name_H-M_alt    "P 1"
_space_group_IT_number       1

loop_
  _space_group_symop_operation_xyz
  'x, y, z'

loop_
  _atom_site_type_symbol
  _atom_site_label
  _atom_site_symmetry_multiplicity
  _atom_site_fract_x
  _atom_site_fract_y
  _atom_site_fract_z
  _atom_site_occupancy
  Fe  Fe1       1.0  0.45028  0.11522  0.15064  1.0000
  S   S1        1.0  0.42969  0.13353  0.11762  1.0000
  S   S2        1.0  0.43586  0.10921  0.20026  1.0000
  H   H1        1.0  0.21267  0.08693  0.14525  1.0000
  S   S3        1.0  0.47712  0.11937  0.06463  1.0000
  H   H2        1.0  0.15829  0.08700  0.13148  1.0000
  Fe  Fe2       1.0  0.47695  0.13613  0.10165  1.0000
  H   H3        1.0  0.36957  0.03243  0.46522  1.0000
  Fe  Fe3       1.0  0.43106  0.11554  0.08284  1.0000
  S   S4        1.0  0.39666  0.11389  0.04576  1.0000
  C   C1        1.0  0.22763  0.00047  0.35076  1.0000
  S   S5        1.0  0.44735  0.09702  0.11695  1.0000
  Fe  Fe4       1.0  0.45584  0.13735  0.36392  1.0000
  S   S6        1.0  0.40786  0.13932  0.37958  1.0000
  S   S7        1.0  0.49761  0.11920  0.13751  1.0000
  Fe  Fe5       1.0  0.47808  0.12764  0.42898  1.0000
  S   S8        1.0  0.43195  0.12903  0.45026  1.0000
  H   H4        1.0  0.39295  0.20330  0.45099  1.0000
  Fe  Fe6       1.0  0.41972  0.11775  0.40756  1.0000
  S   S9        1.0  0.39485  0.09688  0.40831  1.0000
  Fe  Fe7       1.0  0.42435  0.15051  0.42074  1.0000
  S   S10       1.0  0.40037  0.17245  0.43472  1.0000
  S   S11       1.0  0.46647  0.11480  0.38824  1.0000
  S   S12       1.0  0.47150  0.15008  0.40316  1.0000
  S   S13       1.0  0.16850  0.05521  0.42862  1.0000
  H   H5        1.0  0.43968  0.10080  0.26482  1.0000
  H   H6        1.0  0.21635  0.01947  0.45398  1.0000
  H   H7        1.0  0.21955  0.98603  0.47565  1.0000
  H   H8        1.0  0.29123  0.98733  0.11776  1.0000
  Fe  Fe8       1.0  0.26168  0.06658  0.03681  1.0000
  S   S14       1.0  0.21196  0.06536  0.03842  1.0000
  S   S15       1.0  0.28524  0.07632  0.07599  1.0000
  Fe  Fe9       1.0  0.22241  0.04092  0.03013  1.0000
  S   S16       1.0  0.19670  0.02304  0.05617  1.0000
  H   H9        1.0  0.03691  0.00766  0.12809  1.0000
  S   S17       1.0  0.27219  0.04182  0.03145  1.0000
  H   H10       1.0  0.41515  0.18187  0.15313  1.0000
  Fe  Fe10      1.0  0.12548  0.00005  0.29836  1.0000
  C   C2        1.0  0.47499  0.19661  0.03806  1.0000
  S   S18       1.0  0.13912  1.00000  0.34924  1.0000
  H   H11       1.0  0.24272  0.99791  0.13926  1.0000
  H   H12       1.0  0.44294  0.09038  0.03632  1.0000
  Fe  Fe11      1.0  0.13985  0.00971  0.23095  1.0000
  S   S19       1.0  0.17177  0.02353  0.20215  1.0000
  S   S20       1.0  0.10869  0.01990  0.26726  1.0000
  H   H13       1.0  0.49658  0.07662  0.49179  1.0000
  H   H14       1.0  0.46896  0.07691  0.05588  1.0000
  C   C3        1.0  0.19027  0.02302  0.09683  1.0000
  C   C4        1.0  0.16663  0.01541  0.11012  1.0000
  C   C5        1.0  0.16086  0.01527  0.14242  1.0000
  C   C6        1.0  0.17867  0.02279  0.16165  1.0000
  C   C7        1.0  0.20260  0.03015  0.14839  1.0000
  C   C8        1.0  0.20843  0.03024  0.11617  1.0000
  H   H15       1.0  0.15262  0.00970  0.09531  1.0000
  H   H16       1.0  0.14251  0.00948  0.15239  1.0000
  H   H17       1.0  0.21669  0.03588  0.16312  1.0000
  H   H18       1.0  0.22705  0.03589  0.10627  1.0000
  C   C9        1.0  0.15941  0.03982  0.40713  1.0000
  C   C10       1.0  0.15206  0.04231  0.37555  1.0000
  C   C11       1.0  0.14564  0.03031  0.35744  1.0000
  C   C12       1.0  0.14572  0.01571  0.37099  1.0000
  C   C13       1.0  0.15192  0.01335  0.40285  1.0000
  C   C14       1.0  0.15886  0.02529  0.42079  1.0000
  H   H19       1.0  0.15179  0.05357  0.36489  1.0000
  H   H20       1.0  0.14061  0.03235  0.33304  1.0000
  H   H21       1.0  0.15143  0.00216  0.41369  1.0000
  H   H22       1.0  0.16322  0.02335  0.44532  1.0000
  Fe  Fe12      1.0  0.20157  0.05545  0.46832  1.0000
  H   H23       1.0  0.35379  0.02090  0.39713  1.0000
  C   C15       1.0  0.44858  0.01329  0.48918  1.0000
  C   C16       1.0  0.41942  0.18241  0.46110  1.0000
  C   C17       1.0  0.35983  0.09759  0.42712  1.0000
  C   C18       1.0  0.34417  0.08465  0.42922  1.0000
  C   C19       1.0  0.31663  0.08470  0.44514  1.0000
  C   C20       1.0  0.30447  0.09778  0.45865  1.0000
  C   C21       1.0  0.31993  0.11079  0.45609  1.0000
  C   C22       1.0  0.34759  0.11072  0.44031  1.0000
  C   C23       1.0  0.43282  0.06700  0.03373  1.0000
  C   C24       1.0  0.12166  0.04701  0.03658  1.0000
  H   H24       1.0  0.31052  0.12094  0.46643  1.0000
  H   H25       1.0  0.35951  0.12076  0.43865  1.0000
  Fe  Fe13      1.0  0.12219  0.97784  0.24693  1.0000
  H   H26       1.0  0.46828  0.05767  0.44417  1.0000
  C   C25       1.0  0.48697  0.03110  0.46988  1.0000
  H   H27       1.0  0.24990  0.99899  0.30543  1.0000
  C   C26       1.0  0.36550  0.10370  0.05482  1.0000
  C   C27       1.0  0.36164  0.09674  0.08428  1.0000
  C   C28       1.0  0.33666  0.08856  0.09065  1.0000
  C   C29       1.0  0.31581  0.08702  0.06743  1.0000
  C   C30       1.0  0.31964  0.09402  0.03801  1.0000
  C   C31       1.0  0.34434  0.10242  0.03180  1.0000
  H   H28       1.0  0.37772  0.09777  0.10224  1.0000
  H   H29       1.0  0.33363  0.08329  0.11356  1.0000
  C   C32       1.0  0.16315  0.07863  0.11339  1.0000
  S   S21       1.0  0.19987  0.07585  0.49763  1.0000
  C   C33       1.0  0.44831  0.11879  0.23163  1.0000
  C   C34       1.0  0.45819  0.13319  0.22748  1.0000
  C   C35       1.0  0.46544  0.14098  0.25346  1.0000
  C   C36       1.0  0.46292  0.13441  0.28363  1.0000
  C   C37       1.0  0.45428  0.11977  0.28767  1.0000
  C   C38       1.0  0.44685  0.11203  0.26172  1.0000
  H   H30       1.0  0.19267  0.98220  0.20232  1.0000
  H   H31       1.0  0.20704  0.99493  0.17473  1.0000
  H   H32       1.0  0.45291  0.11451  0.31079  1.0000
  C   C39       1.0  0.14172  0.06123  0.07995  1.0000
  C   C40       1.0  0.44939  0.16966  0.05445  1.0000
  H   H33       1.0  0.35237  0.05710  0.08849  1.0000
  H   H34       1.0  0.43281  0.19738  0.39650  1.0000
  C   C41       1.0  0.36769  0.05638  0.02432  1.0000
  H   H35       1.0  0.28871  0.11213  0.32712  1.0000
  C   C42       1.0  0.42559  0.20577  0.48610  1.0000
  H   H36       1.0  0.39547  0.21040  0.14281  1.0000
  S   S22       1.0  0.42815  0.20721  0.99979  1.0000
  H   H37       1.0  0.43444  0.21105  0.14511  1.0000
  C   C43       1.0  0.19222  0.06901  0.12310  1.0000
  C   C44       1.0  0.41613  0.21109  0.12824  1.0000
  H   H38       1.0  0.06261  0.09749  0.07186  1.0000
  H   H39       1.0  0.36105  0.15592  0.27462  1.0000
  H   H40       1.0  0.33490  0.13480  0.29960  1.0000
  C   C45       1.0  0.13185  0.05977  0.13711  1.0000
  C   C46       1.0  0.10959  0.08167  0.10476  1.0000
  Fe  Fe14      1.0  0.07513  0.00465  0.25103  1.0000
  C   C47       1.0  0.44750  0.19399  0.02561  1.0000
  C   C48       1.0  0.33438  0.10942  0.34538  1.0000
  H   H41       1.0  0.45948  0.13846  0.20432  1.0000
  C   C49       1.0  0.11584  0.05244  0.06937  1.0000
  H   H42       1.0  0.08847  0.07628  0.10278  1.0000
  H   H43       1.0  0.24178  0.99070  0.42221  1.0000
  C   C50       1.0  0.35447  0.12970  0.31309  1.0000
  C   C51       1.0  0.23712  0.99901  0.22483  1.0000
  H   H44       1.0  0.12833  0.98541  0.12935  1.0000
  H   H45       1.0  0.49646  0.03079  0.03947  1.0000
  H   H46       1.0  0.01222  0.99530  0.18787  1.0000
  H   H47       1.0  0.12997  0.10007  0.07786  1.0000
  H   H48       1.0  0.48490  0.03614  0.11257  1.0000
  H   H49       1.0  0.05094  0.98005  0.13632  1.0000
  C   C52       1.0  0.30194  0.11695  0.34503  1.0000
  H   H50       1.0  0.34532  0.11278  0.36668  1.0000
  H   H51       1.0  0.28648  0.10201  0.38279  1.0000
  H   H52       1.0  0.33210  0.09715  0.34893  1.0000
  H   H53       1.0  0.33896  0.01181  0.43181  1.0000
  C   C53       1.0  0.28626  0.11425  0.37639  1.0000
  H   H54       1.0  0.48631  0.14909  0.02376  1.0000
  N   N1        1.0  0.35353  0.11277  0.31704  1.0000
  C   C54       1.0  0.38436  0.10524  0.32325  1.0000
  C   C55       1.0  0.27105  0.98897  0.10308  1.0000
  C   C56       1.0  0.33959  0.10673  0.28922  1.0000
  C   C57       1.0  0.35741  0.10778  0.25815  1.0000
  C   C58       1.0  0.38697  0.08783  0.32792  1.0000
  C   C59       1.0  0.38298  0.13577  0.29789  1.0000
  H   H55       1.0  0.29740  0.11981  0.39487  1.0000
  C   C60       1.0  0.34326  0.09933  0.23310  1.0000
  C   C61       1.0  0.41951  0.08164  0.33190  1.0000
  H   H56       1.0  0.39369  0.10986  0.34417  1.0000
  H   H57       1.0  0.39999  0.10789  0.30410  1.0000
  H   H58       1.0  0.33469  0.09483  0.29421  1.0000
  H   H59       1.0  0.31745  0.11289  0.28448  1.0000
  H   H60       1.0  0.38079  0.10289  0.26049  1.0000
  H   H61       1.0  0.35725  0.11968  0.24938  1.0000
  H   H62       1.0  0.37468  0.08410  0.34910  1.0000
  H   H63       1.0  0.37827  0.08257  0.30758  1.0000
  H   H64       1.0  0.40203  0.13337  0.31389  1.0000
  H   H65       1.0  0.38925  0.13060  0.27571  1.0000
  H   H66       1.0  0.37394  0.15856  0.31346  1.0000
  H   H67       1.0  0.34352  0.08716  0.24001  1.0000
  H   H68       1.0  0.31991  0.10400  0.22886  1.0000
  H   H69       1.0  0.35625  0.10052  0.21100  1.0000
  H   H70       1.0  0.43281  0.08419  0.31060  1.0000
  H   H71       1.0  0.42942  0.08657  0.35202  1.0000
  H   H72       1.0  0.42068  0.06924  0.33625  1.0000
  C   C62       1.0  0.08255  0.10381  0.07460  1.0000
  C   C63       1.0  0.42069  0.19623  0.11109  1.0000
  H   H73       1.0  0.46125  0.05845  0.48451  1.0000
  C   C64       1.0  0.37915  0.15280  0.29155  1.0000
  H   H74       1.0  0.43741  0.19717  0.09213  1.0000
  H   H75       1.0  0.11287  0.08720  0.05426  1.0000
  H   H76       1.0  0.28614  0.00362  0.43001  1.0000
  H   H77       1.0  0.30481  0.07464  0.44698  1.0000
  H   H78       1.0  0.39937  0.19368  0.10070  1.0000
  H   H79       1.0  0.43635  0.13704  0.01459  1.0000
  H   H80       1.0  0.06561  0.98318  0.17355  1.0000
  H   H81       1.0  0.14618  0.04906  0.13517  1.0000
  H   H82       1.0  0.43323  0.19055  0.34085  1.0000
  H   H83       1.0  0.46248  0.21085  0.35309  1.0000
  C   C65       1.0  0.33361  0.02015  0.41219  1.0000
  C   C66       1.0  0.09938  0.04353  0.17168  1.0000
  H   H84       1.0  0.46632  0.17786  0.34810  1.0000
  H   H85       1.0  0.35725  0.03705  0.09617  1.0000
  H   H86       1.0  0.09425  0.05937  0.06882  1.0000
  C   C67       1.0  0.46682  0.08656  0.45681  1.0000
  C   C68       1.0  0.50122  0.21881  0.45217  1.0000
  H   H87       1.0  0.43872  0.01343  0.46572  1.0000
  H   H88       1.0  0.23850  0.07172  0.13316  1.0000
  C   C69       1.0  0.23601  0.99217  0.32133  1.0000
  S   S23       1.0  0.08969  0.98536  0.28450  1.0000
  H   H89       1.0  0.23761  0.00884  0.20792  1.0000
  H   H90       1.0  0.39454  0.04693  0.45657  1.0000
  H   H91       1.0  0.43203  0.17233  0.12066  1.0000
  H   H92       1.0  0.46977  0.07897  0.01403  1.0000
  H   H93       1.0  0.14874  0.06864  0.06003  1.0000
  H   H94       1.0  0.43759  0.21834  0.42432  1.0000
  H   H95       1.0  0.05160  0.01067  0.16592  1.0000
  H   H96       1.0  0.43938  0.15928  0.06060  1.0000
  H   H97       1.0  0.41927  0.21759  0.48851  1.0000
  H   H98       1.0  0.36034  0.07187  0.48964  1.0000
  C   C70       1.0  0.45397  0.19274  0.38572  1.0000
  H   H99       1.0  0.22246  0.08525  0.10450  1.0000
  H   H100      1.0  0.15247  0.97713  0.17932  1.0000
  C   C71       1.0  0.44589  0.18340  0.35884  1.0000
  H   H101      1.0  0.39750  0.04613  0.06164  1.0000
  C   C72       1.0  0.30784  0.01545  0.39330  1.0000
  H   H102      1.0  0.07620  0.00356  0.13566  1.0000
  H   H103      1.0  0.24917  0.00798  0.46590  1.0000
  C   C73       1.0  0.48957  0.18577  0.05876  1.0000
  S   S24       1.0  0.27015  0.09817  0.47892  1.0000
  H   H104      1.0  0.19927  0.06097  0.10526  1.0000
  Fe  Fe15      1.0  0.49346  0.10222  0.10158  1.0000
  H   H105      1.0  0.10663  0.08821  0.12609  1.0000
  H   H106      1.0  0.26062  0.98379  0.19484  1.0000
  H   H107      1.0  0.26267  0.11904  0.37522  1.0000
  C   C74       1.0  0.35217  0.04608  0.07785  1.0000
  H   H108      1.0  0.41354  0.17841  0.02434  1.0000
  C   C75       1.0  0.43480  0.18050  0.03389  1.0000
  C   C76       1.0  0.21790  0.07890  0.12674  1.0000
  S   S25       1.0  0.10530  0.99622  0.21232  1.0000
  S   S26       1.0  0.15897  0.99080  0.26317  1.0000
  C   C77       1.0  0.47362  0.20547  0.37420  1.0000
  N   N2        1.0  0.25058  0.01187  0.39834  1.0000
  C   C78       1.0  0.25591  0.00337  0.36908  1.0000
  C   C79       1.0  0.27975  0.01365  0.41421  1.0000
  C   C80       1.0  0.23191  0.00260  0.42025  1.0000
  C   C81       1.0  0.23358  0.02698  0.39181  1.0000
  C   C82       1.0  0.24893  0.03823  0.36961  1.0000
  C   C83       1.0  0.46187  0.02814  0.49422  1.0000
  H   H109      1.0  0.48299  0.09089  0.33703  1.0000
  C   C84       1.0  0.05339  0.00325  0.14593  1.0000
  H   H110      1.0  0.36942  0.22006  0.09523  1.0000
  C   C85       1.0  0.22778  0.05211  0.36122  1.0000
  C   C86       1.0  0.04806  0.98711  0.15678  1.0000
  H   H111      1.0  0.31523  0.00452  0.38325  1.0000
  C   C87       1.0  0.43099  0.18291  0.13319  1.0000
  C   C88       1.0  0.22759  0.00797  0.45392  1.0000
  H   H112      1.0  0.27694  0.02334  0.42955  1.0000
  H   H113      1.0  0.36067  0.06740  0.03431  1.0000
  C   C89       1.0  0.47683  0.17225  0.06695  1.0000
  H   H114      1.0  0.20917  0.00220  0.41099  1.0000
  H   H115      1.0  0.21116  0.02554  0.38269  1.0000
  H   H116      1.0  0.22901  0.03288  0.41363  1.0000
  H   H117      1.0  0.25631  0.03317  0.34757  1.0000
  H   H118      1.0  0.26835  0.04223  0.38129  1.0000
  H   H119      1.0  0.34699  0.05262  0.01433  1.0000
  H   H120      1.0  0.21478  0.01118  0.34333  1.0000
  C   C90       1.0  0.49083  0.07434  0.46766  1.0000
  H   H121      1.0  0.18931  0.06264  0.14561  1.0000
  H   H122      1.0  0.25633  0.99902  0.24063  1.0000
  H   H123      1.0  0.30374  0.02391  0.37384  1.0000
  H   H124      1.0  0.27055  0.00922  0.35235  1.0000
  Fe  Fe16      1.0  0.24868  0.07621  0.48584  1.0000
  H   H125      1.0  0.16900  0.08516  0.09171  1.0000
  H   H126      1.0  0.23971  0.06029  0.34641  1.0000
  H   H127      1.0  0.20848  0.04892  0.34809  1.0000
  H   H128      1.0  0.21949  0.05769  0.38252  1.0000
  H   H129      1.0  0.13954  0.06486  0.15831  1.0000
  H   H130      1.0  0.45366  0.18423  0.14192  1.0000
  C   C91       1.0  0.37253  0.04457  0.46698  1.0000
  S   S27       1.0  0.29745  0.02365  0.49219  1.0000
  H   H131      1.0  0.26824  0.99223  0.37488  1.0000
  H   H132      1.0  0.37587  0.03316  0.04338  1.0000
  H   H133      1.0  0.40028  0.15673  0.28158  1.0000
  S   S28       1.0  0.24956  0.05724  0.45381  1.0000
  C   C92       1.0  0.41086  0.19769  0.46479  1.0000
  H   H134      1.0  0.47635  0.03094  0.44689  1.0000
  H   H135      1.0  0.35242  0.13486  0.33614  1.0000
  C   C93       1.0  0.44271  0.17523  0.47877  1.0000
  H   H136      1.0  0.08626  0.06589  0.15387  1.0000
  C   C94       1.0  0.20844  0.99762  0.47357  1.0000
  S   S29       1.0  0.02759  0.01332  0.23718  1.0000
  H   H137      1.0  0.44318  0.03701  0.49217  1.0000
  S   S30       1.0  0.47173  0.14456  0.31571  1.0000
  H   H138      1.0  0.46267  0.04375  0.07995  1.0000
  H   H139      1.0  0.32757  0.03133  0.42175  1.0000
  H   H140      1.0  0.11390  0.04234  0.08524  1.0000
  H   H141      1.0  0.50341  0.05011  0.00532  1.0000
  H   H142      1.0  0.44409  0.22296  0.06778  1.0000
  H   H143      1.0  0.30135  0.12929  0.34019  1.0000
  H   H144      1.0  0.35350  0.07453  0.41876  1.0000
  C   C95       1.0  0.24272  0.98863  0.12317  1.0000
  H   H145      1.0  0.07602  0.04172  0.17877  1.0000
  C   C96       1.0  0.48241  0.04531  0.09411  1.0000
  H   H146      1.0  0.47252  0.15224  0.25016  1.0000
  C   C97       1.0  0.37549  0.04476  0.05167  1.0000
  H   H147      1.0  0.08805  0.05187  0.12543  1.0000
  H   H148      1.0  0.21534  0.99017  0.30899  1.0000
  H   H149      1.0  0.21271  0.99343  0.36486  1.0000
  H   H150      1.0  0.34696  0.10802  0.00915  1.0000
  H   H151      1.0  0.43154  0.17453  0.36767  1.0000
  H   H152      1.0  0.48503  0.20692  0.03166  1.0000
  H   H153      1.0  0.12295  0.05672  0.01948  1.0000
  H   H154      1.0  0.27111  0.00008  0.09013  1.0000
  H   H155      1.0  0.42022  0.06691  0.05612  1.0000
  H   H156      1.0  0.46605  0.18493  0.40304  1.0000
  H   H157      1.0  0.32948  0.04497  0.06895  1.0000
  C   C98       1.0  0.47942  0.05857  0.46678  1.0000
  S   S31       1.0  0.49602  0.15869  0.09224  1.0000
  H   H158      1.0  0.47831  0.20089  0.43649  1.0000
  H   H159      1.0  0.11017  0.03276  0.16376  1.0000
  C   C99       1.0  0.11089  0.09307  0.07635  1.0000
  N   N3        1.0  0.13603  0.07012  0.10858  1.0000
  H   H160      1.0  0.35443  0.05115  0.45373  1.0000
  H   H161      1.0  0.47849  0.05621  0.10548  1.0000
  H   H162      1.0  0.11131  0.04677  0.19233  1.0000
  C   C100      1.0  0.09958  0.05580  0.14552  1.0000
  C   C101      1.0  0.49311  0.20906  0.42539  1.0000
  H   H163      1.0  0.16097  0.05268  0.08348  1.0000
  H   H164      1.0  0.10326  0.04037  0.02985  1.0000
  H   H165      1.0  0.08411  0.11188  0.05419  1.0000
  H   H166      1.0  0.07977  0.11031  0.09589  1.0000
  C   C102      1.0  0.21209  0.98366  0.18645  1.0000
  C   C103      1.0  0.45492  0.07906  0.03492  1.0000
  H   H167      1.0  0.30331  0.09317  0.02023  1.0000
  H   H168      1.0  0.49544  0.20003  0.36611  1.0000
  H   H169      1.0  0.39781  0.21487  0.06752  1.0000
  H   H170      1.0  0.39704  0.08089  0.01261  1.0000
  H   H171      1.0  0.22359  0.99101  0.10725  1.0000
  H   H172      1.0  0.46107  0.08524  0.43220  1.0000
  C   C104      1.0  0.41093  0.07051  0.00651  1.0000
  H   H173      1.0  0.14288  0.03974  0.03553  1.0000
  H   H174      1.0  0.24833  0.98111  0.32726  1.0000
  H   H175      1.0  0.39872  0.06698  0.49495  1.0000
  H   H176      1.0  0.18612  0.99732  0.46313  1.0000
  H   H177      1.0  0.18369  0.98559  0.13332  1.0000
  H   H178      1.0  0.50377  0.02114  0.47147  1.0000
  H   H179      1.0  0.44952  0.16346  0.47600  1.0000
  H   H180      1.0  0.47634  0.21040  0.10661  1.0000
  H   H181      1.0  0.44628  0.05615  0.03152  1.0000
  H   H182      1.0  0.01314  0.99022  0.28474  1.0000
  H   H183      1.0  0.21624  0.00025  0.23892  1.0000
  C   C105      1.0  0.23915  0.98436  0.20786  1.0000
  H   H184      1.0  0.46594  0.00370  0.49181  1.0000
  H   H185      1.0  0.27191  0.98010  0.08591  1.0000
  H   H186      1.0  0.44631  0.08612  0.47151  1.0000
  C   C106      1.0  0.49437  0.14487  0.00101  1.0000
  N   N4        1.0  0.47852  0.21720  0.39723  1.0000
  H   H187      1.0  0.50381  0.03754  0.40876  1.0000
  H   H188      1.0  0.02801  0.97909  0.22897  1.0000
  H   H189      1.0  0.35196  0.99765  0.00250  1.0000
  H   H190      1.0  0.50132  0.13283  0.00627  1.0000
  H   H191      1.0  0.42036  0.03887  0.01574  1.0000
  Fe  Fe17      1.0  0.26023  0.04219  0.49632  1.0000
  H   H192      1.0  0.50262  0.07370  0.32497  1.0000
  H   H193      1.0  0.48063  0.22263  0.46515  1.0000
  C   C107      1.0  0.01634  0.98623  0.17117  1.0000
  H   H194      1.0  0.47529  0.09779  0.45854  1.0000
  H   H195      1.0  0.37234  0.09551  0.49303  1.0000
  N   N5        1.0  0.50227  0.04541  0.47271  1.0000
  C   C108      1.0  0.50514  0.08438  0.33629  1.0000
  H   H196      1.0  0.20529  0.00187  0.49727  1.0000
  C   C109      1.0  0.47231  0.22281  0.10724  1.0000
  C   C110      1.0  0.39016  0.22379  0.08372  1.0000
  H   H197      1.0  0.23949  0.97497  0.22585  1.0000
  H   H198      1.0  0.36362  0.16611  0.49576  1.0000
  N   N6        1.0  0.39130  0.05828  0.99914  1.0000
  C   C111      1.0  0.33083  0.01733  0.97795  1.0000
  H   H199      1.0  0.02489  0.07136  0.76179  1.0000
  S   S32       1.0  0.48974  0.98238  0.94798  1.0000
  S   S33       1.0  0.45272  0.00258  0.89292  1.0000
  C   C112      1.0  0.38565  0.08536  0.53861  1.0000
  H   H200      1.0  0.44763  0.05279  0.96980  1.0000
  S   S34       1.0  0.26320  0.06133  0.52686  1.0000
  Fe  Fe18      1.0  0.44241  0.98634  0.93223  1.0000
  H   H201      1.0  0.25258  0.00860  0.88084  1.0000
  C   C113      1.0  0.01618  0.08476  0.70183  1.0000
  Fe  Fe19      1.0  0.21435  0.05961  0.53725  1.0000
  S   S35       1.0  0.20663  0.06188  0.58942  1.0000
  H   H202      1.0  0.33132  0.01918  0.87733  1.0000
  C   C114      1.0  0.32599  0.01344  0.85602  1.0000
  H   H203      1.0  0.20891  0.11820  0.53555  1.0000
  S   S36       1.0  0.17826  0.08574  0.96259  1.0000
  Fe  Fe20      1.0  0.10172  0.10014  0.71658  1.0000
  S   S37       1.0  0.08533  0.12453  0.71780  1.0000
  S   S38       1.0  0.09738  0.09038  0.66923  1.0000
  Fe  Fe21      1.0  0.11527  0.09827  0.78677  1.0000
  S   S39       1.0  0.09940  0.12257  0.79249  1.0000
  S   S40       1.0  0.14023  0.08166  0.82124  1.0000
  Fe  Fe22      1.0  0.06097  0.11777  0.76190  1.0000
  H   H204      1.0  0.49353  0.16915  0.95865  1.0000
  Fe  Fe23      1.0  0.12462  0.12719  0.74775  1.0000
  S   S41       1.0  0.16074  0.14298  0.73477  1.0000
  S   S42       1.0  0.07532  0.09317  0.75912  1.0000
  S   S43       1.0  0.14250  0.10313  0.74365  1.0000
  C   C115      1.0  0.16341  0.16132  0.74764  1.0000
  C   C116      1.0  0.18757  0.16932  0.73707  1.0000
  C   C117      1.0  0.19098  0.18383  0.74701  1.0000
  C   C118      1.0  0.17028  0.19045  0.76783  1.0000
  C   C119      1.0  0.14620  0.18241  0.77860  1.0000
  C   C120      1.0  0.14268  0.16794  0.76847  1.0000
  H   H205      1.0  0.20387  0.16423  0.72124  1.0000
  H   H206      1.0  0.13011  0.18744  0.79476  1.0000
  H   H207      1.0  0.12396  0.16191  0.77676  1.0000
  C   C121      1.0  0.15041  0.08326  0.86053  1.0000
  C   C122      1.0  0.13624  0.09404  0.87946  1.0000
  C   C123      1.0  0.14494  0.09466  0.91066  1.0000
  C   C124      1.0  0.16781  0.08452  0.92327  1.0000
  C   C125      1.0  0.18194  0.07376  0.90432  1.0000
  C   C126      1.0  0.17316  0.07311  0.87323  1.0000
  H   H208      1.0  0.11815  0.10165  0.87029  1.0000
  H   H209      1.0  0.13376  0.10297  0.92518  1.0000
  H   H210      1.0  0.19950  0.06587  0.91370  1.0000
  H   H211      1.0  0.18403  0.06461  0.85894  1.0000
  C   C127      1.0  0.17534  0.06937  0.61091  1.0000
  C   C128      1.0  0.17814  0.07031  0.64317  1.0000
  C   C129      1.0  0.15448  0.07669  0.66132  1.0000
  C   C130      1.0  0.12744  0.08188  0.64746  1.0000
  C   C131      1.0  0.12422  0.08047  0.61534  1.0000
  C   C132      1.0  0.14822  0.07446  0.59701  1.0000
  H   H212      1.0  0.19885  0.06611  0.65415  1.0000
  H   H213      1.0  0.15700  0.07736  0.68612  1.0000
  H   H214      1.0  0.10323  0.08424  0.60447  1.0000
  H   H215      1.0  0.14568  0.07364  0.57225  1.0000
  C   C133      1.0  0.37922  0.00494  0.96381  1.0000
  S   S44       1.0  0.30368  0.04139  0.94325  1.0000
  C   C134      1.0  0.33283  0.02763  0.95255  1.0000
  C   C135      1.0  0.35849  0.02690  0.93356  1.0000
  C   C136      1.0  0.38182  0.01574  0.93951  1.0000
  H   H216      1.0  0.36032  0.03504  0.91426  1.0000
  C   C137      1.0  0.48525  0.98302  0.72264  1.0000
  C   C138      1.0  0.36393  0.01654  0.57205  1.0000
  C   C139      1.0  0.33746  0.02585  0.57541  1.0000
  C   C140      1.0  0.31650  0.02773  0.55143  1.0000
  C   C141      1.0  0.32204  0.02044  0.52373  1.0000
  H   H217      1.0  0.26473  0.02280  0.85328  1.0000
  C   C142      1.0  0.36926  0.00905  0.54455  1.0000
  H   H218      1.0  0.33306  0.03159  0.59671  1.0000
  H   H219      1.0  0.29605  0.03479  0.55446  1.0000
  C   C143      1.0  0.43795  0.04291  0.57288  1.0000
  H   H220      1.0  0.33750  0.09091  0.57610  1.0000
  H   H221      1.0  0.38196  0.01345  0.87667  1.0000
  H   H222      1.0  0.30588  0.00247  0.79815  1.0000
  C   C144      1.0  0.35777  0.98874  0.85764  1.0000
  C   C145      1.0  0.40902  0.04342  0.99423  1.0000
  S   S45       1.0  0.46510  0.20763  0.53384  1.0000
  S   S46       1.0  0.26251  0.07287  0.98572  1.0000
  C   C146      1.0  0.00828  0.06908  0.71519  1.0000
  C   C147      1.0  0.40589  0.20413  0.59196  1.0000
  H   H223      1.0  0.24565  0.11300  0.55144  1.0000
  C   C148      1.0  0.27162  0.01520  0.87361  1.0000
  H   H224      1.0  0.34530  0.09969  0.52330  1.0000
  H   H225      1.0  0.49683  0.05000  0.52162  1.0000
  H   H226      1.0  0.49895  0.19930  0.86444  1.0000
  H   H227      1.0  0.37979  0.11659  0.54586  1.0000
  H   H228      1.0  0.40566  0.19162  0.55069  1.0000
  C   C149      1.0  0.48683  0.98177  0.77945  1.0000
  H   H229      1.0  0.45509  0.12283  0.99099  1.0000
  H   H230      1.0  0.04557  0.08371  0.62848  1.0000
  H   H231      1.0  0.33299  0.21785  0.50448  1.0000
  H   H232      1.0  0.44645  0.20340  0.61879  1.0000
  N   N7        1.0  0.35996  0.20029  0.55873  1.0000
  H   H233      1.0  0.35036  0.99546  0.90605  1.0000
  C   C150      1.0  0.02160  0.21543  0.87631  1.0000
  C   C151      1.0  0.35289  0.00410  0.80863  1.0000
  H   H234      1.0  0.02203  0.11557  0.70517  1.0000
  H   H235      1.0  0.40888  0.04778  0.83957  1.0000
  H   H236      1.0  0.20967  0.18987  0.73869  1.0000
  S   S47       1.0  0.47602  0.00583  0.61065  1.0000
  H   H237      1.0  0.38839  0.98941  0.89649  1.0000
  N   N8        1.0  0.19287  0.12001  0.63250  1.0000
  C   C152      1.0  0.20737  0.12106  0.60059  1.0000
  C   C153      1.0  0.19516  0.13438  0.64913  1.0000
  C   C154      1.0  0.20998  0.10733  0.65099  1.0000
  C   C155      1.0  0.16078  0.11638  0.63095  1.0000
  C   C156      1.0  0.13933  0.12798  0.61272  1.0000
  C   C157      1.0  0.20859  0.10669  0.58160  1.0000
  C   C158      1.0  0.20131  0.10539  0.68595  1.0000
  C   C159      1.0  0.19415  0.14936  0.62895  1.0000
  C   C160      1.0  0.19149  0.16292  0.64930  1.0000
  C   C161      1.0  0.10851  0.12223  0.60988  1.0000
  C   C162      1.0  0.22269  0.10947  0.54948  1.0000
  C   C163      1.0  0.22191  0.09314  0.70253  1.0000
  H   H238      1.0  0.23078  0.12405  0.60273  1.0000
  H   H239      1.0  0.19612  0.13028  0.58572  1.0000
  H   H240      1.0  0.17743  0.13554  0.66755  1.0000
  H   H241      1.0  0.21669  0.13395  0.66172  1.0000
  H   H242      1.0  0.23439  0.10872  0.64946  1.0000
  H   H243      1.0  0.20693  0.09634  0.64112  1.0000
  H   H244      1.0  0.15948  0.10520  0.62127  1.0000
  H   H245      1.0  0.15078  0.11529  0.65469  1.0000
  H   H246      1.0  0.14774  0.13050  0.58885  1.0000
  H   H247      1.0  0.13606  0.13849  0.62540  1.0000
  H   H248      1.0  0.22242  0.09722  0.59324  1.0000
  H   H249      1.0  0.18593  0.10310  0.57809  1.0000
  H   H250      1.0  0.17833  0.10194  0.68845  1.0000
  H   H251      1.0  0.20252  0.11588  0.69835  1.0000
  H   H252      1.0  0.21510  0.14985  0.61495  1.0000
  H   H253      1.0  0.17529  0.15062  0.61266  1.0000
  H   H254      1.0  0.19055  0.17349  0.63441  1.0000
  H   H255      1.0  0.17082  0.16300  0.66390  1.0000
  H   H256      1.0  0.21112  0.16265  0.66465  1.0000
  H   H257      1.0  0.09337  0.13093  0.59746  1.0000
  H   H258      1.0  0.11003  0.11191  0.59651  1.0000
  H   H259      1.0  0.09870  0.11973  0.63326  1.0000
  H   H260      1.0  0.46265  0.04213  0.57036  1.0000
  H   H261      1.0  0.22421  0.09890  0.53689  1.0000
  H   H262      1.0  0.22107  0.08224  0.69146  1.0000
  H   H263      1.0  0.24527  0.09631  0.70202  1.0000
  H   H264      1.0  0.21452  0.09162  0.72712  1.0000
  H   H265      1.0  0.01281  0.09247  0.72119  1.0000
  H   H266      1.0  0.38023  0.04836  0.56232  1.0000
  H   H267      1.0  0.05207  0.06271  0.73519  1.0000
  H   H268      1.0  0.31391  0.18272  0.65305  1.0000
  S   S48       1.0  0.40692  0.98998  0.96960  1.0000
  H   H269      1.0  0.15997  0.20797  0.86607  1.0000
  C   C164      1.0  0.45566  0.98321  0.78114  1.0000
  C   C165      1.0  0.33583  0.22348  0.52647  1.0000
  H   H270      1.0  0.49313  0.17389  0.99805  1.0000
  C   C166      1.0  0.33615  0.20146  0.58401  1.0000
  C   C167      1.0  0.36952  0.09813  0.51779  1.0000
  C   C168      1.0  0.44464  0.13456  0.99079  1.0000
  C   C169      1.0  0.33839  0.08088  0.93846  1.0000
  C   C170      1.0  0.36476  0.98727  0.89287  1.0000
  H   H271      1.0  0.33799  0.98249  0.85398  1.0000
  H   H272      1.0  0.42538  0.18716  0.62568  1.0000
  S   S49       1.0  0.43624  0.98259  0.81722  1.0000
  H   H273      1.0  0.36276  0.05379  0.96152  1.0000
  H   H274      1.0  0.39183  0.06534  0.95008  1.0000
  H   H275      1.0  0.46829  0.21117  0.87971  1.0000
  C   C171      1.0  0.34436  0.16528  0.51216  1.0000
  H   H276      1.0  0.02063  0.06835  0.59185  1.0000
  H   H277      1.0  0.39353  0.03481  0.98901  1.0000
  H   H278      1.0  0.42239  0.04459  0.94482  1.0000
  H   H279      1.0  0.41421  0.21370  0.57786  1.0000
  C   C172      1.0  0.09897  0.22191  0.74474  1.0000
  H   H280      1.0  0.33311  0.00570  0.74772  1.0000
  C   C173      1.0  0.33242  0.99443  0.75986  1.0000
  H   H281      1.0  0.44130  0.98619  0.70317  1.0000
  C   C174      1.0  0.34913  0.17375  0.54135  1.0000
  H   H282      1.0  0.37106  0.12195  0.50588  1.0000
  S   S50       1.0  0.25901  0.22156  0.76781  1.0000
  H   H283      1.0  0.34812  0.04625  0.50983  1.0000
  H   H284      1.0  0.32979  0.17213  0.55716  1.0000
  H   H285      1.0  0.30363  0.99695  0.88613  1.0000
  H   H286      1.0  0.00630  0.13678  0.64819  1.0000
  C   C175      1.0  0.50152  0.98165  0.75030  1.0000
  H   H287      1.0  0.45479  0.15715  0.97971  1.0000
  H   H288      1.0  0.32248  0.09105  0.93987  1.0000
  H   H289      1.0  0.35535  0.08308  0.92007  1.0000
  H   H290      1.0  0.32571  0.07141  0.93201  1.0000
  N   N9        1.0  0.20108  0.13001  0.82669  1.0000
  C   C176      1.0  0.19364  0.11584  0.81202  1.0000
  C   C177      1.0  0.17250  0.13968  0.83241  1.0000
  C   C178      1.0  0.21950  0.13863  0.80328  1.0000
  C   C179      1.0  0.21861  0.12691  0.85638  1.0000
  C   C180      1.0  0.21334  0.11220  0.87599  1.0000
  C   C181      1.0  0.22090  0.10607  0.79916  1.0000
  C   C182      1.0  0.14953  0.13297  0.85510  1.0000
  C   C183      1.0  0.12157  0.14384  0.85813  1.0000
  C   C184      1.0  0.22807  0.11187  0.90773  1.0000
  C   C185      1.0  0.21423  0.08971  0.79660  1.0000
  H   H291      1.0  0.17818  0.11868  0.79222  1.0000
  H   H292      1.0  0.18091  0.10867  0.82835  1.0000
  H   H293      1.0  0.17725  0.15046  0.84227  1.0000
  H   H294      1.0  0.16109  0.14273  0.80990  1.0000
  H   H295      1.0  0.20847  0.13972  0.78022  1.0000
  H   H296      1.0  0.24155  0.13233  0.79932  1.0000
  H   H297      1.0  0.24309  0.12627  0.85141  1.0000
  H   H298      1.0  0.21443  0.13650  0.87180  1.0000
  H   H299      1.0  0.22300  0.10218  0.86404  1.0000
  H   H300      1.0  0.18941  0.11080  0.88000  1.0000
  H   H301      1.0  0.22692  0.11062  0.77555  1.0000
  H   H302      1.0  0.24071  0.10620  0.81407  1.0000
  H   H303      1.0  0.14248  0.12233  0.84684  1.0000
  H   H304      1.0  0.15893  0.13101  0.87870  1.0000
  H   H305      1.0  0.10491  0.13849  0.87348  1.0000
  H   H306      1.0  0.12715  0.15435  0.86848  1.0000
  H   H307      1.0  0.11133  0.14673  0.83508  1.0000
  H   H308      1.0  0.22508  0.10094  0.92051  1.0000
  H   H309      1.0  0.25238  0.11308  0.90507  1.0000
  H   H310      1.0  0.21757  0.12100  0.92181  1.0000
  H   H311      1.0  0.19439  0.08900  0.78198  1.0000
  H   H312      1.0  0.23362  0.08327  0.78590  1.0000
  H   H313      1.0  0.20994  0.08442  0.82000  1.0000
  N   N10       1.0  0.37320  0.07025  0.53788  1.0000
  H   H314      1.0  0.02070  0.05309  0.62141  1.0000
  S   S51       1.0  0.43598  0.97787  0.63181  1.0000
  C   C186      1.0  0.33191  0.07905  0.57759  1.0000
  C   C187      1.0  0.42424  0.05676  0.55430  1.0000
  H   H315      1.0  0.04059  0.08422  0.69683  1.0000
  C   C188      1.0  0.29841  0.07925  0.58448  1.0000
  H   H316      1.0  0.34238  0.15320  0.51859  1.0000
  H   H317      1.0  0.42990  0.03254  0.56406  1.0000
  H   H318      1.0  0.38624  0.08902  0.56286  1.0000
  H   H319      1.0  0.38786  0.06342  0.58457  1.0000
  H   H320      1.0  0.32864  0.19484  0.52414  1.0000
  H   H321      1.0  0.29221  0.99755  0.84657  1.0000
  H   H322      1.0  0.34359  0.07313  0.59774  1.0000
  H   H323      1.0  0.42939  0.05508  0.52952  1.0000
  H   H324      1.0  0.43556  0.06662  0.56118  1.0000
  H   H325      1.0  0.04378  0.13050  0.66069  1.0000
  Fe  Fe24      1.0  0.21355  0.06927  0.98625  1.0000
  H   H326      1.0  0.41521  0.98602  0.75456  1.0000
  C   C189      1.0  0.34839  0.01102  0.52044  1.0000
  C   C190      1.0  0.35325  0.07731  0.96991  1.0000
  H   H327      1.0  0.38739  0.04058  0.51380  1.0000
  H   H328      1.0  0.47431  0.17747  0.51489  1.0000
  S   S52       1.0  0.17360  0.20862  0.78130  1.0000
  C   C191      1.0  0.34048  0.07116  0.54701  1.0000
  H   H329      1.0  0.33264  0.05967  0.54986  1.0000
  C   C192      1.0  0.49172  0.21092  0.87095  1.0000
  H   H330      1.0  0.07651  0.22204  0.73439  1.0000
  S   S53       1.0  0.44723  0.98605  0.55769  1.0000
  H   H331      1.0  0.44005  0.01896  0.96743  1.0000
  Fe  Fe25      1.0  0.26942  0.04791  0.98029  1.0000
  S   S54       1.0  0.22041  0.04464  0.97779  1.0000
  S   S55       1.0  0.39017  0.01501  0.60222  1.0000
  C   C193      1.0  0.43282  0.19546  0.60768  1.0000
  H   H332      1.0  0.10581  0.21503  0.86682  1.0000
  C   C194      1.0  0.02818  0.06358  0.74255  1.0000
  H   H333      1.0  0.32648  0.07692  0.52809  1.0000
  H   H334      1.0  0.05544  0.05919  0.60587  1.0000
  H   H335      1.0  0.47950  0.21831  0.82448  1.0000
  H   H336      1.0  0.36695  0.19174  0.51301  1.0000
  H   H337      1.0  0.03134  0.21617  0.82742  1.0000
  H   H338      1.0  0.23261  0.15491  0.83638  1.0000
  H   H339      1.0  0.39050  0.20873  0.61015  1.0000
  C   C195      1.0  0.43313  0.04347  0.96793  1.0000
  H   H340      1.0  0.33521  0.07571  0.98735  1.0000
  H   H341      1.0  0.04556  0.06858  0.65778  1.0000
  C   C196      1.0  0.22585  0.15472  0.81178  1.0000
  H   H342      1.0  0.20554  0.16259  0.80813  1.0000
  S   S56       1.0  0.01248  0.12777  0.76685  1.0000
  H   H343      1.0  0.38690  0.02841  0.81127  1.0000
  H   H344      1.0  0.27682  0.02208  0.89325  1.0000
  C   C197      1.0  0.33877  0.18958  0.61169  1.0000
  Fe  Fe26      1.0  0.48217  0.98415  0.63980  1.0000
  C   C198      1.0  0.49411  0.22185  0.84267  1.0000
  H   H345      1.0  0.36136  0.03578  0.84071  1.0000
  Fe  Fe27      1.0  0.50061  0.99733  0.90660  1.0000
  H   H346      1.0  0.40461  0.03721  0.87599  1.0000
  H   H347      1.0  0.10597  0.21038  0.75433  1.0000
  H   H348      1.0  0.24511  0.16050  0.76627  1.0000
  C   C199      1.0  0.03292  0.07434  0.63807  1.0000
  C   C200      1.0  0.45336  0.02879  0.96909  1.0000
  H   H349      1.0  0.44732  0.18947  0.59034  1.0000
  H   H350      1.0  0.40147  0.00576  0.84447  1.0000
  H   H351      1.0  0.12066  0.21330  0.82766  1.0000
  H   H352      1.0  0.40172  0.01539  0.92517  1.0000
  C   C201      1.0  0.38241  0.02869  0.83667  1.0000
  C   C202      1.0  0.40796  0.03628  0.85053  1.0000
  H   H353      1.0  0.31836  0.02272  0.83896  1.0000
  N   N11       1.0  0.35351  0.00462  0.84359  1.0000
  H   H354      1.0  0.28548  0.08544  0.56537  1.0000
  C   C203      1.0  0.39014  0.05940  0.56063  1.0000
  C   C204      1.0  0.45406  0.98485  0.72431  1.0000
  C   C205      1.0  0.38270  0.11313  0.52154  1.0000
  C   C206      1.0  0.25064  0.16081  0.79122  1.0000
  C   C207      1.0  0.15128  0.21983  0.86067  1.0000
  H   H355      1.0  0.42965  0.02976  0.84610  1.0000
  C   C208      1.0  0.29868  0.00454  0.86531  1.0000
  H   H356      1.0  0.25316  0.17268  0.79644  1.0000
  C   C209      1.0  0.11956  0.22023  0.84828  1.0000
  H   H357      1.0  0.36979  0.16840  0.55218  1.0000
  C   C210      1.0  0.03221  0.06305  0.61274  1.0000
  H   H358      1.0  0.38878  0.18294  0.58332  1.0000
  H   H359      1.0  0.27222  0.15409  0.79569  1.0000
  H   H360      1.0  0.32658  0.98436  0.80543  1.0000
  H   H361      1.0  0.43203  0.04348  0.59798  1.0000
  H   H362      1.0  0.29291  0.08497  0.60635  1.0000
  H   H363      1.0  0.31375  0.98881  0.75029  1.0000
  H   H364      1.0  0.30791  0.20246  0.64203  1.0000
  H   H365      1.0  0.03596  0.10323  0.65709  1.0000
  H   H366      1.0  0.40937  0.08456  0.53055  1.0000
  H   H367      1.0  0.34149  0.17795  0.60389  1.0000
  C   C211      1.0  0.39009  0.19398  0.57061  1.0000
  H   H368      1.0  0.46610  0.02746  0.99101  1.0000
  Fe  Fe28      1.0  0.43105  0.99842  0.59943  1.0000
  H   H369      1.0  0.38944  0.00177  0.54181  1.0000
  C   C212      1.0  0.38067  0.01251  0.85127  1.0000
  C   C213      1.0  0.37550  0.06306  0.96910  1.0000
  H   H370      1.0  0.29152  0.06759  0.58744  1.0000
  C   C214      1.0  0.45675  0.18319  0.50073  1.0000
  C   C215      1.0  0.31113  0.19101  0.63293  1.0000
  H   H371      1.0  0.36485  0.08727  0.97544  1.0000
  S   S57       1.0  0.21230  0.03900  0.50915  1.0000
  H   H372      1.0  0.35035  0.01565  0.79754  1.0000
  H   H373      1.0  0.35830  0.19123  0.62609  1.0000
  H   H374      1.0  0.42515  0.13549  0.97513  1.0000
  H   H375      1.0  0.47040  0.02756  0.51829  1.0000
  H   H376      1.0  0.44326  0.22062  0.69697  1.0000
  H   H377      1.0  0.42394  0.07402  0.98553  1.0000
  H   H378      1.0  0.33551  0.21257  0.59475  1.0000
  H   H379      1.0  0.31109  0.01785  0.99274  1.0000
  C   C216      1.0  0.00863  0.11855  0.68407  1.0000
  H   H380      1.0  0.02237  0.05227  0.75141  1.0000
  H   H381      1.0  0.29086  0.18879  0.62018  1.0000
  C   C217      1.0  0.01163  0.10539  0.66190  1.0000
  C   C218      1.0  0.32766  0.99588  0.79486  1.0000
  H   H382      1.0  0.34613  0.22170  0.65388  1.0000
  C   C219      1.0  0.35395  0.00592  0.98344  1.0000
  H   H383      1.0  0.35364  0.98756  0.75507  1.0000
  C   C220      1.0  0.36328  0.21591  0.54438  1.0000
  C   C221      1.0  0.35106  0.19073  0.53310  1.0000
  C   C222      1.0  0.44813  0.19843  0.50461  1.0000
  H   H384      1.0  0.37470  0.99884  0.79996  1.0000
  H   H385      1.0  0.42470  0.21538  0.66308  1.0000
  H   H386      1.0  0.46952  0.02887  0.94926  1.0000
  H   H387      1.0  0.31362  0.20123  0.57381  1.0000
  C   C223      1.0  0.46686  0.14576  0.97955  1.0000
  H   H388      1.0  0.49895  0.20044  0.97211  1.0000
  H   H389      1.0  0.37649  0.98229  0.84557  1.0000
  H   H390      1.0  0.32362  0.16991  0.50022  1.0000
  H   H391      1.0  0.07911  0.21745  0.80218  1.0000
  C   C224      1.0  0.02020  0.13274  0.66849  1.0000
  H   H392      1.0  0.47368  0.14351  0.95525  1.0000
  H   H393      1.0  0.49964  0.98055  0.80056  1.0000
  Fe  Fe29      1.0  0.49283  0.99201  0.57099  1.0000
  C   C225      1.0  0.37637  0.06502  0.50512  1.0000
  H   H394      1.0  0.43066  0.01154  0.50677  1.0000
  Fe  Fe30      1.0  0.45977  0.98243  0.86365  1.0000
  H   H395      1.0  0.01914  0.14172  0.68542  1.0000
  H   H396      1.0  0.38277  0.21578  0.52813  1.0000
  H   H397      1.0  0.06251  0.20983  0.85146  1.0000
  H   H398      1.0  0.40683  0.11228  0.51515  1.0000
  C   C226      1.0  0.43933  0.98481  0.75346  1.0000
  H   H399      1.0  0.01138  0.06051  0.69748  1.0000
  C   C227      1.0  0.37072  0.04838  0.50111  1.0000
  H   H400      1.0  0.35280  0.00531  0.49912  1.0000
  H   H401      1.0  0.03258  0.21678  0.89876  1.0000
  H   H402      1.0  0.01471  0.20379  0.87618  1.0000
  H   H403      1.0  0.36820  0.22372  0.56255  1.0000
  C   C228      1.0  0.04307  0.21823  0.84908  1.0000
  H   H404      1.0  0.31512  0.22297  0.54077  1.0000
  H   H405      1.0  0.50575  0.19315  0.93406  1.0000
  S   S58       1.0  0.50480  0.98156  0.68673  1.0000
  C   C229      1.0  0.43732  0.22419  0.67262  1.0000
  N   N12       1.0  0.34157  0.28821  0.36763  1.0000
  H   H406      1.0  0.33830  0.25604  0.24542  1.0000
  H   H407      1.0  0.35594  0.31964  0.37790  1.0000
  H   H408      1.0  0.39502  0.47181  0.31005  1.0000
  H   H409      1.0  0.44726  0.26593  0.11511  1.0000
  S   S59       1.0  0.45624  0.27075  0.04916  1.0000
  Fe  Fe31      1.0  0.43447  0.28188  0.25496  1.0000
  S   S60       1.0  0.42226  0.30649  0.25129  1.0000
  S   S61       1.0  0.44484  0.31549  0.33699  1.0000
  C   C230      1.0  0.19642  0.45142  0.11522  1.0000
  S   S62       1.0  0.04221  0.31183  0.41071  1.0000
  N   N13       1.0  0.37284  0.38535  0.27081  1.0000
  C   C231      1.0  0.41739  0.24687  0.42852  1.0000
  C   C232      1.0  0.03951  0.33219  0.30586  1.0000
  C   C233      1.0  0.42186  0.24105  0.15564  1.0000
  C   C234      1.0  0.47364  0.29129  0.37179  1.0000
  C   C235      1.0  0.10057  0.45675  0.08817  1.0000
  S   S63       1.0  0.04377  0.30466  0.09963  1.0000
  H   H410      1.0  0.45404  0.24922  0.39668  1.0000
  H   H411      1.0  0.32679  0.27377  0.42876  1.0000
  H   H412      1.0  0.43575  0.37828  0.25513  1.0000
  S   S64       1.0  0.33612  0.45668  0.30030  1.0000
  H   H413      1.0  0.29503  0.28985  0.38220  1.0000
  H   H414      1.0  0.47846  0.44303  0.25666  1.0000
  S   S65       1.0  0.33969  0.44398  0.23034  1.0000
  S   S66       1.0  0.47037  0.27219  0.45998  1.0000
  Fe  Fe32      1.0  0.30838  0.44306  0.27125  1.0000
  S   S67       1.0  0.29245  0.42165  0.29444  1.0000
  H   H415      1.0  0.36338  0.38204  0.33657  1.0000
  C   C236      1.0  0.45445  0.30243  0.13177  1.0000
  H   H416      1.0  0.05905  0.32495  0.31454  1.0000
  H   H417      1.0  0.37836  0.33522  0.33624  1.0000
  Fe  Fe33      1.0  0.22289  0.31552  0.25679  1.0000
  S   S68       1.0  0.22551  0.33481  0.28800  1.0000
  S   S69       1.0  0.25457  0.29388  0.25881  1.0000
  Fe  Fe34      1.0  0.16948  0.33141  0.21983  1.0000
  S   S70       1.0  0.17025  0.35178  0.24805  1.0000
  S   S71       1.0  0.13403  0.33661  0.18234  1.0000
  Fe  Fe35      1.0  0.22005  0.34928  0.24363  1.0000
  S   S72       1.0  0.24894  0.36726  0.22332  1.0000
  Fe  Fe36      1.0  0.17476  0.33563  0.28992  1.0000
  S   S73       1.0  0.14337  0.34309  0.33001  1.0000
  S   S74       1.0  0.21934  0.32995  0.21244  1.0000
  S   S75       1.0  0.17229  0.31525  0.26195  1.0000
  C   C237      1.0  0.27719  0.40757  0.27392  1.0000
  C   C238      1.0  0.27951  0.40729  0.24156  1.0000
  C   C239      1.0  0.26994  0.39504  0.22632  1.0000
  C   C240      1.0  0.25792  0.38302  0.24324  1.0000
  C   C241      1.0  0.25500  0.38346  0.27553  1.0000
  C   C242      1.0  0.26463  0.39568  0.29078  1.0000
  H   H418      1.0  0.28909  0.41639  0.22837  1.0000
  H   H419      1.0  0.27206  0.39481  0.20130  1.0000
  H   H420      1.0  0.24570  0.37428  0.28878  1.0000
  H   H421      1.0  0.26257  0.39589  0.31581  1.0000
  C   C243      1.0  0.06901  0.31361  0.12232  1.0000
  C   C244      1.0  0.07042  0.32920  0.12025  1.0000
  C   C245      1.0  0.09077  0.33592  0.13851  1.0000
  C   C246      1.0  0.10994  0.32719  0.15914  1.0000
  C   C247      1.0  0.10859  0.31157  0.16128  1.0000
  C   C248      1.0  0.08829  0.30484  0.14286  1.0000
  H   H422      1.0  0.05588  0.33609  0.10447  1.0000
  H   H423      1.0  0.09161  0.34800  0.13664  1.0000
  H   H424      1.0  0.12320  0.30470  0.17697  1.0000
  H   H425      1.0  0.08748  0.29276  0.14451  1.0000
  C   C249      1.0  0.11439  0.33412  0.35054  1.0000
  C   C250      1.0  0.11326  0.31850  0.35245  1.0000
  C   C251      1.0  0.09095  0.31192  0.37080  1.0000
  C   C252      1.0  0.06934  0.32083  0.38729  1.0000
  C   C253      1.0  0.06988  0.33648  0.38449  1.0000
  C   C254      1.0  0.09240  0.34304  0.36649  1.0000
  H   H426      1.0  0.13003  0.31146  0.34047  1.0000
  H   H427      1.0  0.09065  0.29980  0.37255  1.0000
  H   H428      1.0  0.05295  0.34347  0.39623  1.0000
  H   H429      1.0  0.09283  0.35513  0.36480  1.0000
  H   H430      1.0  0.41362  0.42320  0.29717  1.0000
  H   H431      1.0  0.40229  0.38968  0.30809  1.0000
  H   H432      1.0  0.36250  0.26997  0.47127  1.0000
  H   H433      1.0  0.40024  0.24599  0.41069  1.0000
  H   H434      1.0  0.43962  0.26624  0.34687  1.0000
  H   H435      1.0  0.38288  0.43062  0.32062  1.0000
  C   C255      1.0  0.45967  0.29864  0.07561  1.0000
  H   H436      1.0  0.04883  0.34493  0.45500  1.0000
  H   H437      1.0  0.08660  0.34812  0.44292  1.0000
  H   H438      1.0  0.02892  0.36395  0.42602  1.0000
  C   C256      1.0  0.36301  0.27654  0.35298  1.0000
  C   C257      1.0  0.13009  0.37923  0.40358  1.0000
  H   H439      1.0  0.26903  0.26285  0.35201  1.0000
  H   H440      1.0  0.38692  0.45208  0.35233  1.0000
  H   H441      1.0  0.22724  0.44675  0.06098  1.0000
  H   H442      1.0  0.38278  0.39795  0.22785  1.0000
  C   C258      1.0  0.39557  0.42012  0.31366  1.0000
  H   H443      1.0  0.41000  0.39914  0.27218  1.0000
  C   C259      1.0  0.37438  0.41038  0.29834  1.0000
  H   H444      1.0  0.41171  0.26351  0.31877  1.0000
  H   H445      1.0  0.44417  0.24430  0.14817  1.0000
  C   C260      1.0  0.39138  0.37070  0.26664  1.0000
  H   H446      1.0  0.38708  0.28237  0.45173  1.0000
  Fe  Fe37      1.0  0.45896  0.30678  0.21488  1.0000
  C   C261      1.0  0.29365  0.28825  0.25667  1.0000
  C   C262      1.0  0.31612  0.29773  0.26239  1.0000
  C   C263      1.0  0.34672  0.29217  0.26167  1.0000
  C   C264      1.0  0.35507  0.27706  0.25544  1.0000
  C   C265      1.0  0.33245  0.26771  0.25006  1.0000
  C   C266      1.0  0.30222  0.27322  0.25068  1.0000
  H   H447      1.0  0.30979  0.30917  0.26819  1.0000
  H   H448      1.0  0.36364  0.29948  0.26678  1.0000
  H   H449      1.0  0.28524  0.26569  0.24662  1.0000
  C   C267      1.0  0.45552  0.28329  0.08042  1.0000
  C   C268      1.0  0.45063  0.27768  0.11105  1.0000
  C   C269      1.0  0.44982  0.28714  0.13641  1.0000
  C   C270      1.0  0.44831  0.24140  0.41634  1.0000
  H   H450      1.0  0.44531  0.28256  0.15950  1.0000
  H   H451      1.0  0.33197  0.37430  0.27703  1.0000
  Fe  Fe38      1.0  0.31162  0.46500  0.21445  1.0000
  C   C271      1.0  0.41917  0.37153  0.24489  1.0000
  H   H452      1.0  0.10267  0.46456  0.00010  1.0000
  H   H453      1.0  0.01616  0.33946  0.26419  1.0000
  C   C272      1.0  0.34956  0.29080  0.40071  1.0000
  H   H454      1.0  0.42469  0.34718  0.16013  1.0000
  H   H455      1.0  0.03727  0.34995  0.22063  1.0000
  C   C273      1.0  0.39129  0.39566  0.28748  1.0000
  H   H456      1.0  0.40358  0.27978  0.37953  1.0000
  H   H457      1.0  0.39679  0.36126  0.14432  1.0000
  C   C274      1.0  0.34504  0.38214  0.28922  1.0000
  H   H458      1.0  0.38516  0.25111  0.18368  1.0000
  H   H459      1.0  0.48769  0.25518  0.17356  1.0000
  H   H460      1.0  0.28530  0.33771  0.25126  1.0000
  H   H461      1.0  0.41981  0.34967  0.11875  1.0000
  H   H462      1.0  0.40276  0.28826  0.34030  1.0000
  C   C275      1.0  0.34997  0.37509  0.32262  1.0000
  S   S76       1.0  0.39289  0.26890  0.25491  1.0000
  H   H463      1.0  0.48741  0.28929  0.35141  1.0000
  H   H464      1.0  0.41331  0.37668  0.22159  1.0000
  C   C276      1.0  0.45183  0.30346  0.37137  1.0000
  C   C277      1.0  0.43437  0.35581  0.24027  1.0000
  H   H465      1.0  0.41902  0.34872  0.22897  1.0000
  S   S77       1.0  0.45471  0.31480  0.16338  1.0000
  H   H466      1.0  0.37735  0.36211  0.25839  1.0000
  C   C278      1.0  0.07045  0.34845  0.46269  1.0000
  C   C279      1.0  0.43553  0.30624  0.39909  1.0000
  H   H467      1.0  0.34067  0.22970  0.04563  1.0000
  C   C280      1.0  0.33969  0.30292  0.34828  1.0000
  H   H468      1.0  0.28860  0.47411  0.09851  1.0000
  H   H469      1.0  0.32982  0.39253  0.29071  1.0000
  H   H470      1.0  0.19573  0.45244  0.03655  1.0000
  H   H471      1.0  0.11986  0.37164  0.45007  1.0000
  H   H472      1.0  0.42164  0.25598  0.19382  1.0000
  C   C281      1.0  0.36207  0.32720  0.33024  1.0000
  H   H473      1.0  0.19649  0.44117  0.10163  1.0000
  C   C282      1.0  0.12844  0.46026  0.10527  1.0000
  C   C283      1.0  0.00938  0.38670  0.42068  1.0000
  H   H474      1.0  0.41020  0.25434  0.35708  1.0000
  H   H475      1.0  0.24490  0.45390  0.10964  1.0000
  H   H476      1.0  0.05289  0.40156  0.45220  1.0000
  H   H477      1.0  0.30862  0.38499  0.34288  1.0000
  C   C284      1.0  0.29647  0.28093  0.33645  1.0000
  H   H478      1.0  0.25666  0.27325  0.31701  1.0000
  H   H479      1.0  0.45448  0.35666  0.22509  1.0000
  C   C285      1.0  0.41560  0.26477  0.34381  1.0000
  S   S78       1.0  0.49185  0.31218  0.25139  1.0000
  H   H480      1.0  0.33958  0.33334  0.32838  1.0000
  H   H481      1.0  0.08803  0.36625  0.48639  1.0000
  H   H482      1.0  0.49623  0.27290  0.39910  1.0000
  H   H483      1.0  0.36311  0.26708  0.41443  1.0000
  H   H484      1.0  0.00878  0.31587  0.32287  1.0000
  H   H485      1.0  0.22552  0.47347  0.07923  1.0000
  N   N14       1.0  0.18414  0.46516  0.09618  1.0000
  C   C286      1.0  0.22819  0.45209  0.12842  1.0000
  H   H486      1.0  0.40002  0.36591  0.28944  1.0000
  C   C287      1.0  0.03049  0.32919  0.19951  1.0000
  C   C288      1.0  0.36351  0.39303  0.24000  1.0000
  C   C289      1.0  0.34876  0.38317  0.21706  1.0000
  C   C290      1.0  0.34156  0.39200  0.18636  1.0000
  H   H487      1.0  0.34706  0.40284  0.24377  1.0000
  H   H488      1.0  0.36398  0.41717  0.27847  1.0000
  H   H489      1.0  0.36363  0.37313  0.21146  1.0000
  H   H490      1.0  0.32758  0.37934  0.22692  1.0000
  H   H491      1.0  0.32974  0.38497  0.17094  1.0000
  H   H492      1.0  0.32685  0.40237  0.19042  1.0000
  H   H493      1.0  0.36238  0.39519  0.17440  1.0000
  H   H494      1.0  0.30186  0.35384  0.26413  1.0000
  C   C291      1.0  0.45916  0.30809  0.10105  1.0000
  H   H495      1.0  0.41156  0.24009  0.44977  1.0000
  C   C292      1.0  0.40893  0.45667  0.34821  1.0000
  H   H496      1.0  0.31151  0.27105  0.38054  1.0000
  H   H497      1.0  0.14788  0.47058  0.06383  1.0000
  H   H498      1.0  0.43318  0.22569  0.38562  1.0000
  C   C293      1.0  0.23849  0.43745  0.14658  1.0000
  H   H499      1.0  0.31950  0.33528  0.27327  1.0000
  C   C294      1.0  0.20522  0.46920  0.07001  1.0000
  H   H500      1.0  0.46256  0.31988  0.09686  1.0000
  S   S79       1.0  0.47088  0.28212  0.21833  1.0000
  H   H501      1.0  0.37170  0.29535  0.40183  1.0000
  H   H502      1.0  0.35663  0.40797  0.31569  1.0000
  H   H503      1.0  0.46334  0.30324  0.05224  1.0000
  S   S80       1.0  0.46919  0.28237  0.29190  1.0000
  H   H504      1.0  0.10465  0.44596  0.07647  1.0000
  H   H505      1.0  0.46445  0.24240  0.43495  1.0000
  H   H506      1.0  0.26114  0.43834  0.15588  1.0000
  H   H507      1.0  0.18154  0.44928  0.13562  1.0000
  H   H508      1.0  0.23957  0.42781  0.13127  1.0000
  H   H509      1.0  0.35071  0.28971  0.46551  1.0000
  Fe  Fe39      1.0  0.45693  0.30711  0.28851  1.0000
  C   C295      1.0  0.44046  0.29680  0.42638  1.0000
  H   H510      1.0  0.08174  0.45574  0.10500  1.0000
  C   C296      1.0  0.11049  0.38037  0.43291  1.0000
  H   H511      1.0  0.04475  0.32030  0.18791  1.0000
  H   H512      1.0  0.40425  0.26445  0.15913  1.0000
  H   H513      1.0  0.46662  0.23864  0.34901  1.0000
  C   C297      1.0  0.40723  0.25393  0.17408  1.0000
  H   H514      1.0  0.11238  0.39168  0.44173  1.0000
  H   H515      1.0  0.42253  0.44926  0.33247  1.0000
  H   H516      1.0  0.09407  0.46591  0.07047  1.0000
  C   C298      1.0  0.23622  0.46196  0.02249  1.0000
  H   H517      1.0  0.07702  0.36853  0.41112  1.0000
  S   S81       1.0  0.27817  0.46294  0.25358  1.0000
  C   C299      1.0  0.47880  0.28201  0.39907  1.0000
  H   H518      1.0  0.30550  0.36694  0.32652  1.0000
  H   H519      1.0  0.36150  0.36363  0.32194  1.0000
  H   H520      1.0  0.42798  0.29921  0.44748  1.0000
  S   S82       1.0  0.00958  0.31999  0.49549  1.0000
  H   H521      1.0  0.40220  0.24918  0.11257  1.0000
  H   H522      1.0  0.13367  0.45101  0.12305  1.0000
  C   C300      1.0  0.44269  0.22831  0.09062  1.0000
  H   H523      1.0  0.02798  0.34501  0.15897  1.0000
  H   H524      1.0  0.32409  0.36799  0.36301  1.0000
  C   C301      1.0  0.02640  0.37383  0.44074  1.0000
  H   H525      1.0  0.12184  0.38769  0.38519  1.0000
  C   C302      1.0  0.46224  0.28458  0.42654  1.0000
  H   H526      1.0  0.07014  0.38826  0.40986  1.0000
  H   H527      1.0  0.25050  0.28165  0.35387  1.0000
  C   C303      1.0  0.50240  0.46280  0.26013  1.0000
  H   H528      1.0  0.35918  0.26508  0.36279  1.0000
  H   H529      1.0  0.44153  0.35022  0.26292  1.0000
  H   H530      1.0  0.13044  0.36780  0.39452  1.0000
  H   H531      1.0  0.09680  0.39128  0.49031  1.0000
  C   C304      1.0  0.07753  0.37844  0.42560  1.0000
  H   H532      1.0  0.40558  0.41415  0.33474  1.0000
  C   C305      1.0  0.21520  0.45643  0.04810  1.0000
  H   H533      1.0  0.15336  0.38132  0.40907  1.0000
  C   C306      1.0  0.49073  0.23479  0.34969  1.0000
  C   C307      1.0  0.39679  0.27848  0.35532  1.0000
  N   N15       1.0  0.06128  0.33227  0.24896  1.0000
  C   C308      1.0  0.08341  0.34237  0.26069  1.0000
  C   C309      1.0  0.07736  0.31708  0.24350  1.0000
  C   C310      1.0  0.05037  0.33896  0.21779  1.0000
  C   C311      1.0  0.03460  0.33077  0.27055  1.0000
  H   H534      1.0  0.42071  0.45663  0.37065  1.0000
  C   C312      1.0  0.07209  0.35927  0.26136  1.0000
  S   S83       1.0  0.41593  0.45236  0.25843  1.0000
  C   C313      1.0  0.09059  0.30805  0.27240  1.0000
  C   C314      1.0  0.10721  0.29326  0.26322  1.0000
  C   C315      1.0  0.05189  0.39180  0.46933  1.0000
  C   C316      1.0  0.09053  0.36769  0.28297  1.0000
  C   C317      1.0  0.08225  0.33669  0.48751  1.0000
  H   H535      1.0  0.10404  0.34177  0.24584  1.0000
  H   H536      1.0  0.09142  0.33845  0.28418  1.0000
  H   H537      1.0  0.06221  0.30955  0.23320  1.0000
  H   H538      1.0  0.09585  0.31838  0.22620  1.0000
  H   H539      1.0  0.06964  0.34157  0.20234  1.0000
  H   H540      1.0  0.01128  0.37071  0.46041  1.0000
  H   H541      1.0  0.02911  0.39309  0.48012  1.0000
  H   H542      1.0  0.25599  0.46643  0.03262  1.0000
  H   H543      1.0  0.04329  0.34393  0.31079  1.0000
  H   H544      1.0  0.22857  0.46127  0.14468  1.0000
  H   H545      1.0  0.07391  0.36466  0.23760  1.0000
  H   H546      1.0  0.04837  0.36075  0.26898  1.0000
  Fe  Fe40      1.0  0.36566  0.45907  0.25778  1.0000
  H   H547      1.0  0.07627  0.41807  0.48768  1.0000
  H   H548      1.0  0.10657  0.31446  0.28438  1.0000
  H   H549      1.0  0.07252  0.30503  0.28883  1.0000
  H   H550      1.0  0.11763  0.28728  0.28410  1.0000
  H   H551      1.0  0.09156  0.28588  0.25328  1.0000
  H   H552      1.0  0.12510  0.29536  0.24579  1.0000
  C   C318      1.0  0.47638  0.45510  0.25861  1.0000
  C   C319      1.0  0.44781  0.46284  0.25964  1.0000
  C   C320      1.0  0.44861  0.22507  0.40568  1.0000
  H   H553      1.0  0.08799  0.36329  0.30737  1.0000
  H   H554      1.0  0.11451  0.36645  0.27616  1.0000
  H   H555      1.0  0.08282  0.37984  0.28161  1.0000
  C   C321      1.0  0.34988  0.27686  0.42385  1.0000
  H   H556      1.0  0.41732  0.25880  0.43447  1.0000
  H   H557      1.0  0.02264  0.38989  0.39980  1.0000
  N   N16       1.0  0.34268  0.32789  0.17809  1.0000
  C   C322      1.0  0.33200  0.32778  0.21152  1.0000
  C   C323      1.0  0.35384  0.31205  0.17053  1.0000
  C   C324      1.0  0.36912  0.33729  0.17525  1.0000
  C   C325      1.0  0.31898  0.33443  0.15556  1.0000
  C   C326      1.0  0.28595  0.33204  0.16433  1.0000
  C   C327      1.0  0.32504  0.34347  0.22506  1.0000
  C   C328      1.0  0.38495  0.33809  0.14291  1.0000
  C   C329      1.0  0.33078  0.30010  0.17271  1.0000
  C   C330      1.0  0.34608  0.28433  0.16911  1.0000
  C   C331      1.0  0.26525  0.33698  0.13726  1.0000
  C   C332      1.0  0.30688  0.34244  0.25532  1.0000
  C   C333      1.0  0.40790  0.34980  0.14158  1.0000
  H   H558      1.0  0.34906  0.32149  0.22679  1.0000
  H   H559      1.0  0.31174  0.32160  0.21485  1.0000
  H   H560      1.0  0.36274  0.31174  0.14631  1.0000
  H   H561      1.0  0.37295  0.30795  0.18583  1.0000
  H   H562      1.0  0.38636  0.33313  0.19269  1.0000
  H   H563      1.0  0.36215  0.34915  0.18045  1.0000
  H   H564      1.0  0.31972  0.34685  0.15218  1.0000
  H   H565      1.0  0.32367  0.33000  0.13212  1.0000
  H   H566      1.0  0.27842  0.33888  0.18417  1.0000
  H   H567      1.0  0.28261  0.32018  0.17114  1.0000
  H   H568      1.0  0.34620  0.34821  0.23046  1.0000
  H   H569      1.0  0.31261  0.35146  0.20838  1.0000
  H   H570      1.0  0.36875  0.34115  0.12405  1.0000
  H   H571      1.0  0.39719  0.32714  0.13805  1.0000
  H   H572      1.0  0.31864  0.29989  0.19527  1.0000
  H   H573      1.0  0.31449  0.30230  0.15363  1.0000
  H   H574      1.0  0.36260  0.28146  0.18782  1.0000
  H   H575      1.0  0.32915  0.27596  0.17095  1.0000
  H   H576      1.0  0.35759  0.28360  0.14614  1.0000
  H   H577      1.0  0.26675  0.34909  0.13059  1.0000
  H   H578      1.0  0.27101  0.33016  0.11687  1.0000
  H   H579      1.0  0.24178  0.33540  0.14431  1.0000
  C   C334      1.0  0.32017  0.37366  0.33970  1.0000
  H   H580      1.0  0.22312  0.43532  0.16652  1.0000
  H   H581      1.0  0.15798  0.45118  0.06988  1.0000
  C   C335      1.0  0.49975  0.22779  0.38231  1.0000
  C   C336      1.0  0.31090  0.28241  0.36849  1.0000
  C   C337      1.0  0.15503  0.46184  0.08221  1.0000
  C   C338      1.0  0.36335  0.27999  0.45493  1.0000
  H   H582      1.0  0.33354  0.29969  0.41022  1.0000
  H   H583      1.0  0.38504  0.30925  0.35747  1.0000
  H   H584      1.0  0.41911  0.31580  0.39954  1.0000
  H   H585      1.0  0.31726  0.30912  0.35110  1.0000
  H   H586      1.0  0.36893  0.32263  0.30746  1.0000
  N   N17       1.0  0.05631  0.37715  0.45300  1.0000
  H   H587      1.0  0.29238  0.29209  0.32400  1.0000
  H   H588      1.0  0.31087  0.27348  0.32158  1.0000
  C   C339      1.0  0.26635  0.27425  0.34027  1.0000
  H   H589      1.0  0.35861  0.27616  0.32770  1.0000
  H   H590      1.0  0.02512  0.31982  0.26763  1.0000
  H   H591      1.0  0.34183  0.30073  0.32316  1.0000
  C   C340      1.0  0.36209  0.31450  0.35549  1.0000
  S   S84       1.0  0.30159  0.46713  0.16261  1.0000
  C   C341      1.0  0.49891  0.22972  0.09120  1.0000
  C   C342      1.0  0.06653  0.36436  0.47574  1.0000
  H   H592      1.0  0.00882  0.39721  0.02117  1.0000
  C   C343      1.0  0.40494  0.47258  0.33322  1.0000
  H   H593      1.0  0.08382  0.32537  0.47778  1.0000
  H   H594      1.0  0.44313  0.24056  0.08432  1.0000
  H   H595      1.0  0.05046  0.36390  0.49562  1.0000
  H   H596      1.0  0.35448  0.24508  0.02233  1.0000
  C   C344      1.0  0.38105  0.23814  0.06298  1.0000
  H   H597      1.0  0.12272  0.47082  0.11727  1.0000
  H   H598      1.0  0.37337  0.22654  0.02091  1.0000
  C   C345      1.0  0.40307  0.23842  0.12696  1.0000
  C   C346      1.0  0.01287  0.33855  0.17420  1.0000
  H   H599      1.0  0.50621  0.27993  0.16098  1.0000
  H   H600      1.0  0.36810  0.24668  0.07674  1.0000
  C   C347      1.0  0.01218  0.32794  0.32497  1.0000
  H   H601      1.0  0.01558  0.32978  0.34990  1.0000
  H   H602      1.0  0.01427  0.32366  0.21502  1.0000
  H   H603      1.0  0.49632  0.24218  0.09184  1.0000
  H   H604      1.0  0.49534  0.22629  0.33192  1.0000
  H   H605      1.0  0.40100  0.24315  0.05279  1.0000
  C   C348      1.0  0.36116  0.23459  0.03640  1.0000
  H   H606      1.0  0.42432  0.23097  0.17184  1.0000
  H   H607      1.0  0.37975  0.23712  0.13537  1.0000
  H   H608      1.0  0.38694  0.47110  0.13784  1.0000
  Fe  Fe41      1.0  0.50365  0.28738  0.25454  1.0000
  H   H609      1.0  0.50310  0.25752  0.35559  1.0000
  H   H610      1.0  0.50089  0.22658  0.06661  1.0000
  C   C349      1.0  0.41007  0.47040  0.18095  1.0000
  H   H611      1.0  0.22433  0.47091  0.00733  1.0000
  H   H612      1.0  0.39282  0.46451  0.19441  1.0000
  H   H613      1.0  0.24400  0.45251  0.00785  1.0000
  H   H614      1.0  0.42758  0.46183  0.17319  1.0000
  H   H615      1.0  0.50307  0.23717  0.39736  1.0000
  H   H616      1.0  0.50297  0.25221  0.31594  1.0000
  S   S85       1.0  0.00908  0.32907  0.02427  1.0000
  N   N18       1.0  0.41380  0.22534  0.10761  1.0000
  H   H617      1.0  0.47220  0.22561  0.13188  1.0000
  Fe  Fe42      1.0  0.45852  0.26039  0.00073  1.0000
  C   C350      1.0  0.07305  0.39397  0.49650  1.0000
  H   H618      1.0  0.10482  0.33905  0.49497  1.0000
  H   H619      1.0  0.02361  0.29148  0.55645  1.0000
  C   C351      1.0  0.22762  0.29722  0.87159  1.0000
  H   H620      1.0  0.37871  0.27967  0.73750  1.0000
  C   C352      1.0  0.03793  0.46156  0.74639  1.0000
  H   H621      1.0  0.03710  0.24495  0.69623  1.0000
  H   H622      1.0  0.06801  0.34655  0.90800  1.0000
  H   H623      1.0  0.37032  0.28943  0.70087  1.0000
  H   H624      1.0  0.15676  0.30298  0.63591  1.0000
  C   C353      1.0  0.06797  0.26624  0.84151  1.0000
  C   C354      1.0  0.05085  0.30840  0.96326  1.0000
  C   C355      1.0  0.25535  0.31530  0.90168  1.0000
  H   H625      1.0  0.16609  0.27357  0.86605  1.0000
  C   C356      1.0  0.04276  0.36551  0.88632  1.0000
  C   C357      1.0  0.16946  0.28450  0.85352  1.0000
  H   H626      1.0  0.01238  0.31218  0.80585  1.0000
  H   H627      1.0  0.05350  0.30901  0.98872  1.0000
  N   N19       1.0  0.02602  0.33821  0.89658  1.0000
  H   H628      1.0  0.05464  0.29577  0.53158  1.0000
  H   H629      1.0  0.10257  0.30085  0.66067  1.0000
  S   S86       1.0  0.44693  0.27485  0.55544  1.0000
  Fe  Fe43      1.0  0.41281  0.25781  0.56313  1.0000
  S   S87       1.0  0.36674  0.26513  0.58332  1.0000
  C   C358      1.0  0.46258  0.24640  0.80034  1.0000
  S   S88       1.0  0.44440  0.24075  0.58782  1.0000
  H   H630      1.0  0.06688  0.33657  0.50800  1.0000
  H   H631      1.0  0.17110  0.28806  0.61181  1.0000
  S   S89       1.0  0.20740  0.24401  0.79820  1.0000
  C   C359      1.0  0.04540  0.29864  0.65640  1.0000
  Fe  Fe44      1.0  0.25827  0.23791  0.72575  1.0000
  S   S90       1.0  0.25870  0.25840  0.75405  1.0000
  H   H632      1.0  0.45932  0.25598  0.78280  1.0000
  Fe  Fe45      1.0  0.25773  0.24213  0.79575  1.0000
  S   S91       1.0  0.28369  0.24094  0.84140  1.0000
  Fe  Fe46      1.0  0.20796  0.25864  0.75434  1.0000
  S   S92       1.0  0.17802  0.28089  0.75097  1.0000
  N   N20       1.0  0.48419  0.25000  0.82472  1.0000
  S   S93       1.0  0.49352  0.24746  0.53297  1.0000
  H   H633      1.0  0.31966  0.24508  0.50483  1.0000
  S   S94       1.0  0.47044  0.26774  0.95077  1.0000
  Fe  Fe47      1.0  0.43048  0.25587  0.93628  1.0000
  S   S95       1.0  0.40266  0.26492  0.89387  1.0000
  H   H634      1.0  0.03516  0.44000  0.79515  1.0000
  C   C360      1.0  0.36889  0.27862  0.71430  1.0000
  C   C361      1.0  0.06939  0.41016  0.50674  1.0000
  C   C362      1.0  0.47352  0.26503  0.83720  1.0000
  H   H635      1.0  0.37508  0.23488  0.61255  1.0000
  C   C363      1.0  0.12567  0.28612  0.62845  1.0000
  C   C364      1.0  0.25347  0.26658  0.89983  1.0000
  H   H636      1.0  0.03716  0.35379  0.93076  1.0000
  H   H637      1.0  0.33311  0.26561  0.73341  1.0000
  H   H638      1.0  0.40706  0.25158  0.77072  1.0000
  S   S96       1.0  0.04021  0.30722  0.74275  1.0000
  C   C365      1.0  0.10442  0.47025  0.97742  1.0000
  C   C366      1.0  0.41013  0.24104  0.78557  1.0000
  H   H639      1.0  0.24570  0.31132  0.92428  1.0000
  H   H640      1.0  0.05454  0.33591  0.85600  1.0000
  H   H641      1.0  0.05297  0.27698  0.54860  1.0000
  H   H642      1.0  0.03361  0.28261  0.61150  1.0000
  H   H643      1.0  0.41917  0.23166  0.77128  1.0000
  C   C367      1.0  0.13903  0.28694  0.74818  1.0000
  C   C368      1.0  0.13101  0.30247  0.74603  1.0000
  C   C369      1.0  0.10093  0.30821  0.74440  1.0000
  C   C370      1.0  0.07780  0.29863  0.74511  1.0000
  C   C371      1.0  0.08559  0.28297  0.74712  1.0000
  C   C372      1.0  0.11609  0.27716  0.74856  1.0000
  H   H644      1.0  0.14829  0.31020  0.74564  1.0000
  H   H645      1.0  0.09557  0.32026  0.74273  1.0000
  H   H646      1.0  0.06826  0.27534  0.74737  1.0000
  H   H647      1.0  0.12198  0.26517  0.74993  1.0000
  C   C373      1.0  0.31797  0.24711  0.85424  1.0000
  C   C374      1.0  0.32889  0.24165  0.88350  1.0000
  C   C375      1.0  0.35503  0.24670  0.89562  1.0000
  C   C376      1.0  0.37041  0.25755  0.87887  1.0000
  C   C377      1.0  0.35950  0.26303  0.84956  1.0000
  C   C378      1.0  0.33364  0.25776  0.83717  1.0000
  C   C379      1.0  0.03869  0.32372  0.91306  1.0000
  H   H648      1.0  0.36298  0.24237  0.91818  1.0000
  H   H649      1.0  0.37109  0.27146  0.83642  1.0000
  H   H650      1.0  0.32559  0.26210  0.81470  1.0000
  C   C380      1.0  0.15097  0.29558  0.61740  1.0000
  C   C381      1.0  0.34745  0.25561  0.61379  1.0000
  C   C382      1.0  0.32253  0.26310  0.62823  1.0000
  C   C383      1.0  0.30615  0.25573  0.65189  1.0000
  C   C384      1.0  0.31439  0.24072  0.66113  1.0000
  H   H651      1.0  0.07007  0.25251  0.70993  1.0000
  C   C385      1.0  0.35595  0.24070  0.62341  1.0000
  H   H652      1.0  0.31566  0.27462  0.62088  1.0000
  H   H653      1.0  0.28678  0.26155  0.66246  1.0000
  H   H654      1.0  0.01558  0.44580  0.67857  1.0000
  C   C386      1.0  0.25857  0.30258  0.87921  1.0000
  H   H655      1.0  0.27766  0.31917  0.90604  1.0000
  H   H656      1.0  0.27398  0.29346  0.88967  1.0000
  H   H657      1.0  0.05011  0.36356  0.86206  1.0000
  H   H658      1.0  0.46383  0.23874  0.86443  1.0000
  C   C387      1.0  0.04090  0.32401  0.94886  1.0000
  H   H659      1.0  0.32474  0.28574  0.73204  1.0000
  S   S97       1.0  0.45680  0.23365  0.93197  1.0000
  Fe  Fe48      1.0  0.47930  0.25710  0.57880  1.0000
  H   H660      1.0  0.06791  0.27201  0.60549  1.0000
  H   H661      1.0  0.07110  0.24332  0.67339  1.0000
  C   C388      1.0  0.03028  0.33649  0.86215  1.0000
  H   H662      1.0  0.07320  0.42482  0.68515  1.0000
  C   C389      1.0  0.10687  0.23660  0.84023  1.0000
  H   H663      1.0  0.08895  0.47326  0.72222  1.0000
  H   H664      1.0  0.45809  0.22523  0.65853  1.0000
  N   N21       1.0  0.06896  0.28836  0.64100  1.0000
  Fe  Fe49      1.0  0.45613  0.23253  0.54048  1.0000
  S   S98       1.0  0.01748  0.44176  0.86462  1.0000
  C   C390      1.0  0.03555  0.31368  0.63854  1.0000
  H   H665      1.0  0.05050  0.26339  0.85885  1.0000
  H   H666      1.0  0.06201  0.38703  0.88438  1.0000
  H   H667      1.0  0.46837  0.30047  0.71712  1.0000
  H   H668      1.0  0.04213  0.32436  0.80528  1.0000
  H   H669      1.0  0.06147  0.32034  0.90383  1.0000
  H   H670      1.0  0.02012  0.37131  0.88625  1.0000
  H   H671      1.0  0.03273  0.27221  0.68825  1.0000
  C   C391      1.0  0.33585  0.27625  0.71945  1.0000
  H   H672      1.0  0.03764  0.42023  0.67146  1.0000
  C   C392      1.0  0.28626  0.29258  0.79051  1.0000
  H   H673      1.0  0.06928  0.44111  0.74910  1.0000
  C   C393      1.0  0.01908  0.32294  0.81402  1.0000
  C   C394      1.0  0.03644  0.44203  0.69108  1.0000
  H   H674      1.0  0.04984  0.25685  0.80126  1.0000
  H   H675      1.0  0.14443  0.30259  0.59614  1.0000
  C   C395      1.0  0.06379  0.45144  0.76194  1.0000
  C   C396      1.0  0.05215  0.23464  0.84777  1.0000
  H   H676      1.0  0.27534  0.28007  0.84490  1.0000
  C   C397      1.0  0.48544  0.23830  0.85134  1.0000
  N   N22       1.0  0.41708  0.26695  0.68635  1.0000
  C   C398      1.0  0.43313  0.27621  0.70795  1.0000
  C   C399      1.0  0.38549  0.26518  0.69801  1.0000
  C   C400      1.0  0.43383  0.25152  0.68663  1.0000
  C   C401      1.0  0.41711  0.27353  0.65330  1.0000
  C   C402      1.0  0.40263  0.28980  0.64801  1.0000
  C   C403      1.0  0.46647  0.27808  0.69991  1.0000
  H   H677      1.0  0.02589  0.32617  0.68025  1.0000
  C   C404      1.0  0.40983  0.29638  0.61555  1.0000
  H   H678      1.0  0.27120  0.24996  0.93481  1.0000
  H   H679      1.0  0.08536  0.27763  0.68440  1.0000
  H   H680      1.0  0.43217  0.27109  0.73208  1.0000
  H   H681      1.0  0.42187  0.28767  0.70952  1.0000
  H   H682      1.0  0.37137  0.26216  0.67864  1.0000
  H   H683      1.0  0.38521  0.25562  0.71572  1.0000
  H   H684      1.0  0.43886  0.24734  0.71097  1.0000
  H   H685      1.0  0.45583  0.25204  0.67437  1.0000
  H   H686      1.0  0.44016  0.27294  0.64331  1.0000
  H   H687      1.0  0.40493  0.26659  0.63800  1.0000
  H   H688      1.0  0.41055  0.29753  0.66464  1.0000
  H   H689      1.0  0.37796  0.28979  0.64996  1.0000
  H   H690      1.0  0.03041  0.43714  0.71430  1.0000
  Fe  Fe50      1.0  0.49614  0.24498  0.94788  1.0000
  H   H691      1.0  0.41332  0.24229  0.64669  1.0000
  H   H692      1.0  0.47767  0.29517  0.85042  1.0000
  C   C405      1.0  0.07502  0.27456  0.66258  1.0000
  H   H693      1.0  0.40094  0.28965  0.59752  1.0000
  H   H694      1.0  0.39928  0.30806  0.61257  1.0000
  H   H695      1.0  0.12077  0.27870  0.60970  1.0000
  C   C406      1.0  0.19959  0.28361  0.83521  1.0000
  H   H696      1.0  0.12179  0.23276  0.77924  1.0000
  H   H697      1.0  0.20702  0.27009  0.89205  1.0000
  H   H698      1.0  0.05777  0.23742  0.87176  1.0000
  S   S99       1.0  0.05979  0.47372  0.89558  1.0000
  H   H699      1.0  0.05743  0.33177  0.95551  1.0000
  C   C407      1.0  0.05608  0.45538  0.69319  1.0000
  H   H700      1.0  0.47193  0.23672  0.78695  1.0000
  H   H701      1.0  0.12200  0.28903  0.84550  1.0000
  C   C408      1.0  0.01548  0.39190  0.64221  1.0000
  H   H702      1.0  0.03479  0.26351  0.65130  1.0000
  H   H703      1.0  0.04581  0.41336  0.51346  1.0000
  H   H704      1.0  0.25402  0.26939  0.82224  1.0000
  H   H705      1.0  0.14510  0.29862  0.81772  1.0000
  H   H706      1.0  0.08920  0.29210  0.57476  1.0000
  H   H707      1.0  0.02451  0.29303  0.66048  1.0000
  H   H708      1.0  0.07669  0.28600  0.81174  1.0000
  C   C409      1.0  0.05254  0.42943  0.67305  1.0000
  H   H709      1.0  0.50216  0.24081  0.86853  1.0000
  H   H710      1.0  0.39650  0.23700  0.68328  1.0000
  H   H711      1.0  0.08364  0.41124  0.52714  1.0000
  H   H712      1.0  0.08716  0.37144  0.89836  1.0000
  H   H713      1.0  0.43191  0.23247  0.82746  1.0000
  H   H714      1.0  0.06533  0.46120  0.95962  1.0000
  C   C410      1.0  0.07078  0.25509  0.81494  1.0000
  H   H715      1.0  0.46793  0.27354  0.81792  1.0000
  C   C411      1.0  0.05817  0.28356  0.61028  1.0000
  H   H716      1.0  0.14186  0.27865  0.81568  1.0000
  H   H717      1.0  0.00838  0.33450  0.64548  1.0000
  Fe  Fe51      1.0  0.45825  0.26388  0.50999  1.0000
  H   H718      1.0  0.46941  0.28262  0.67567  1.0000
  H   H719      1.0  0.02009  0.34652  0.84867  1.0000
  H   H720      1.0  0.05884  0.45994  0.66889  1.0000
  H   H721      1.0  0.29436  0.28125  0.78292  1.0000
  S   S100      1.0  0.42154  0.24821  0.51609  1.0000
  C   C412      1.0  0.33964  0.23999  0.51749  1.0000
  C   C413      1.0  0.08329  0.46832  0.95455  1.0000
  H   H722      1.0  0.32461  0.27585  0.69681  1.0000
  H   H723      1.0  0.49933  0.26425  0.88033  1.0000
  H   H724      1.0  0.05916  0.30562  0.58374  1.0000
  H   H725      1.0  0.09152  0.26633  0.65179  1.0000
  H   H726      1.0  0.43435  0.29665  0.61209  1.0000
  H   H727      1.0  0.05478  0.32015  0.63168  1.0000
  H   H728      1.0  0.13395  0.27886  0.64880  1.0000
  S   S101      1.0  0.20770  0.23942  0.72255  1.0000
  C   C414      1.0  0.04766  0.26577  0.67200  1.0000
  C   C415      1.0  0.04802  0.28911  0.55272  1.0000
  C   C416      1.0  0.22724  0.26930  0.87686  1.0000
  H   H729      1.0  0.05719  0.37901  0.92316  1.0000
  C   C417      1.0  0.05723  0.25071  0.68891  1.0000
  H   H730      1.0  0.04686  0.46657  0.54642  1.0000
  H   H731      1.0  0.09506  0.30608  0.62143  1.0000
  H   H732      1.0  0.23100  0.25168  0.93277  1.0000
  C   C418      1.0  0.33948  0.23329  0.64683  1.0000
  H   H733      1.0  0.24083  0.32499  0.89172  1.0000
  H   H734      1.0  0.03384  0.30041  0.95940  1.0000
  C   C419      1.0  0.14306  0.28792  0.83168  1.0000
  C   C420      1.0  0.48153  0.28689  0.87041  1.0000
  H   H735      1.0  0.23973  0.28945  0.78612  1.0000
  C   C421      1.0  0.41794  0.23909  0.67134  1.0000
  H   H736      1.0  0.05310  0.30123  0.67977  1.0000
  H   H737      1.0  0.48000  0.26714  0.70289  1.0000
  H   H738      1.0  0.42049  0.25224  0.82611  1.0000
  H   H739      1.0  0.08893  0.25887  0.79931  1.0000
  C   C422      1.0  0.06505  0.29352  0.58073  1.0000
  H   H740      1.0  0.24733  0.30385  0.81150  1.0000
  S   S102      1.0  0.41668  0.25052  0.98591  1.0000
  C   C423      1.0  0.43094  0.24299  0.81244  1.0000
  H   H741      1.0  0.22619  0.25892  0.86372  1.0000
  C   C424      1.0  0.09746  0.29616  0.63805  1.0000
  H   H742      1.0  0.02297  0.31150  0.61755  1.0000
  H   H743      1.0  0.01891  0.32774  0.95906  1.0000
  H   H744      1.0  0.34206  0.24638  0.53855  1.0000
  H   H745      1.0  0.28588  0.30064  0.76995  1.0000
  H   H746      1.0  0.16857  0.29341  0.87054  1.0000
  H   H747      1.0  0.10614  0.24237  0.86249  1.0000
  H   H748      1.0  0.27542  0.26619  0.88773  1.0000
  H   H749      1.0  0.47626  0.28527  0.74606  1.0000
  C   C425      1.0  0.47936  0.28894  0.72127  1.0000
  H   H750      1.0  0.03095  0.24165  0.84229  1.0000
  H   H751      1.0  0.19856  0.29360  0.81852  1.0000
  H   H752      1.0  0.45233  0.26414  0.85059  1.0000
  H   H753      1.0  0.21569  0.30683  0.85809  1.0000
  H   H754      1.0  0.21460  0.29615  0.89376  1.0000
  H   H755      1.0  0.20003  0.27372  0.82052  1.0000
  C   C426      1.0  0.06363  0.37634  0.89891  1.0000
  H   H756      1.0  0.03137  0.31210  0.85773  1.0000
  C   C427      1.0  0.05522  0.44646  0.79511  1.0000
  H   H757      1.0  0.46003  0.28551  0.88299  1.0000
  H   H758      1.0  0.01722  0.38181  0.56138  1.0000
  H   H759      1.0  0.25328  0.24210  0.90325  1.0000
  H   H760      1.0  0.07893  0.45091  0.70036  1.0000
  C   C428      1.0  0.04390  0.35066  0.90676  1.0000
  H   H761      1.0  0.05850  0.28993  0.84827  1.0000
  C   C429      1.0  0.25486  0.29234  0.80462  1.0000
  N   N23       1.0  0.22757  0.28289  0.85443  1.0000
  H   H762      1.0  0.02481  0.31431  0.90869  1.0000
  H   H763      1.0  0.30198  0.29613  0.80772  1.0000
  H   H764      1.0  0.26963  0.30695  0.85776  1.0000
  C   C430      1.0  0.25200  0.25167  0.91877  1.0000
  H   H765      1.0  0.07385  0.43916  0.80591  1.0000
  C   C431      1.0  0.25389  0.28058  0.83245  1.0000
  H   H766      1.0  0.49712  0.29136  0.88661  1.0000
  H   H767      1.0  0.12381  0.24221  0.82560  1.0000
  H   H768      1.0  0.25220  0.27557  0.91671  1.0000
  S   S103      1.0  0.29353  0.23044  0.68916  1.0000
  C   C432      1.0  0.49501  0.27179  0.85933  1.0000
  H   H769      1.0  0.03751  0.28317  0.81748  1.0000
  H   H770      1.0  0.08947  0.26622  0.85370  1.0000
  H   H771      1.0  0.05832  0.43362  0.64913  1.0000
  H   H772      1.0  0.02940  0.38955  0.66322  1.0000
  C   C433      1.0  0.07580  0.22971  0.79630  1.0000
  H   H773      1.0  0.07259  0.30408  0.95313  1.0000
  N   N24       1.0  0.07672  0.23865  0.82499  1.0000
  Fe  Fe52      1.0  0.44621  0.22908  0.98241  1.0000
  H   H774      1.0  0.11521  0.22488  0.72613  1.0000
  H   H775      1.0  0.09298  0.24450  0.75905  1.0000
  H   H776      1.0  0.06749  0.38650  0.51691  1.0000
  Fe  Fe53      1.0  0.02098  0.45903  0.90013  1.0000
  H   H777      1.0  0.05318  0.23155  0.78586  1.0000
  C   C434      1.0  0.01466  0.32369  0.65858  1.0000
  C   C435      1.0  0.01779  0.32241  0.84945  1.0000
  C   C436      1.0  0.05966  0.28230  0.82878  1.0000
  H   H778      1.0  0.03227  0.47094  0.76205  1.0000
  H   H779      1.0  0.05044  0.45639  0.80944  1.0000
  H   H780      1.0  0.31699  0.23345  0.89700  1.0000
  H   H781      1.0  0.02538  0.38503  0.62328  1.0000
  H   H782      1.0  0.08046  0.47287  0.50209  1.0000
  H   H783      1.0  0.08417  0.45754  0.76311  1.0000
  H   H784      1.0  0.38790  0.23838  0.79505  1.0000
  H   H785      1.0  0.01771  0.45516  0.74718  1.0000
  H   H786      1.0  0.01577  0.40402  0.63497  1.0000
  H   H787      1.0  0.16638  0.22476  0.84293  1.0000
  H   H788      1.0  0.50365  0.28930  0.71630  1.0000
  N   N25       1.0  0.04405  0.46769  0.71378  1.0000
  C   C437      1.0  0.09880  0.23320  0.77018  1.0000
  H   H789      1.0  0.35952  0.24100  0.50210  1.0000
  S   S104      1.0  0.50255  0.26128  0.62435  1.0000
  H   H790      1.0  0.50426  0.26079  0.76389  1.0000
  C   C438      1.0  0.06437  0.47392  0.54945  1.0000
  H   H791      1.0  0.01648  0.41064  0.96989  1.0000
  H   H792      1.0  0.15160  0.22610  0.88220  1.0000
  S   S105      1.0  0.48740  0.23846  0.99856  1.0000
  C   C439      1.0  0.00656  0.40000  0.97117  1.0000
  Fe  Fe54      1.0  0.20891  0.22466  0.76675  1.0000
  H   H793      1.0  0.37589  0.47337  0.67162  1.0000
  H   H794      1.0  0.25279  0.51779  0.34214  1.0000
  H   H795      1.0  0.18104  0.49788  0.08503  1.0000
  C   C440      1.0  0.25677  0.50960  0.39009  1.0000
  S   S106      1.0  0.04358  0.57042  0.10933  1.0000
  H   H796      1.0  0.41043  0.51821  0.33811  1.0000
  H   H797      1.0  0.35245  0.52523  0.41885  1.0000
  H   H798      1.0  0.30570  0.47582  0.35752  1.0000
  S   S107      1.0  0.18240  0.51827  0.45544  1.0000
  C   C441      1.0  0.01592  0.50704  0.49166  1.0000
  H   H799      1.0  0.11329  0.60082  0.01519  1.0000
  S   S108      1.0  0.16323  0.56216  0.46301  1.0000
  H   H800      1.0  0.09913  0.72401  0.41976  1.0000
  S   S109      1.0  0.26694  0.49994  0.45165  1.0000
  S   S110      1.0  0.15954  0.51870  0.03542  1.0000
  C   C442      1.0  0.24515  0.50476  0.14556  1.0000
  Fe  Fe55      1.0  0.20792  0.52132  0.04401  1.0000
  S   S111      1.0  0.22341  0.52134  0.09405  1.0000
  C   C443      1.0  0.03319  0.50049  0.46388  1.0000
  H   H801      1.0  0.24339  0.51910  0.39903  1.0000
  H   H802      1.0  0.23319  0.51338  0.15877  1.0000
  C   C444      1.0  0.06119  0.56689  0.46144  1.0000
  C   C445      1.0  0.07711  0.57934  0.45336  1.0000
  C   C446      1.0  0.10854  0.57789  0.45396  1.0000
  C   C447      1.0  0.12400  0.56397  0.46225  1.0000
  C   C448      1.0  0.44553  0.47845  0.26200  1.0000
  H   H803      1.0  0.16693  0.47506  0.13848  1.0000
  H   H804      1.0  0.06526  0.59009  0.44692  1.0000
  H   H805      1.0  0.05007  0.52206  0.49776  1.0000
  H   H806      1.0  0.25005  0.58440  0.47715  1.0000
  C   C449      1.0  0.06214  0.61543  0.10563  1.0000
  C   C450      1.0  0.06513  0.56638  0.07573  1.0000
  C   C451      1.0  0.05595  0.57174  0.04599  1.0000
  C   C452      1.0  0.07401  0.56826  0.01987  1.0000
  C   C453      1.0  0.10127  0.55949  0.02335  1.0000
  C   C454      1.0  0.11035  0.55415  0.05303  1.0000
  C   C455      1.0  0.09233  0.55757  0.07909  1.0000
  S   S112      1.0  0.01360  0.60014  0.39255  1.0000
  C   C456      1.0  0.28730  0.48621  0.39872  1.0000
  H   H807      1.0  0.13147  0.54755  0.05607  1.0000
  H   H808      1.0  0.09960  0.55343  0.10201  1.0000
  C   C457      1.0  0.16521  0.49308  0.10207  1.0000
  H   H809      1.0  0.44096  0.53156  0.16458  1.0000
  Fe  Fe56      1.0  0.22751  0.51228  0.47632  1.0000
  H   H810      1.0  0.25898  0.49538  0.07096  1.0000
  C   C458      1.0  0.25950  0.49462  0.09609  1.0000
  S   S113      1.0  0.33984  0.48021  0.23902  1.0000
  H   H811      1.0  0.39187  0.48104  0.37774  1.0000
  C   C459      1.0  0.36091  0.50842  0.36449  1.0000
  H   H812      1.0  0.26272  0.49204  0.18640  1.0000
  H   H813      1.0  0.07577  0.60701  0.04928  1.0000
  H   H814      1.0  0.46330  0.51957  0.35785  1.0000
  H   H815      1.0  0.37392  0.48928  0.09940  1.0000
  C   C460      1.0  0.04115  0.71545  0.42055  1.0000
  C   C461      1.0  0.40617  0.51696  0.15595  1.0000
  H   H816      1.0  0.01777  0.49518  0.44883  1.0000
  H   H817      1.0  0.12617  0.50756  0.42522  1.0000
  H   H818      1.0  0.38195  0.50119  0.40979  1.0000
  C   C462      1.0  0.26223  0.50885  0.35785  1.0000
  H   H819      1.0  0.12088  0.58754  0.44798  1.0000
  H   H820      1.0  0.10046  0.50250  0.39692  1.0000
  H   H821      1.0  0.47705  0.50563  0.38711  1.0000
  H   H822      1.0  0.32527  0.50399  0.03479  1.0000
  H   H823      1.0  0.42058  0.47796  0.19634  1.0000
  H   H824      1.0  0.05663  0.63663  0.08009  1.0000
  C   C463      1.0  0.07470  0.61954  0.04814  1.0000
  H   H825      1.0  0.42748  0.47662  0.32999  1.0000
  H   H826      1.0  0.33832  0.51005  0.44259  1.0000
  H   H827      1.0  0.42150  0.50689  0.16212  1.0000
  C   C464      1.0  0.03080  0.60737  0.21453  1.0000
  C   C465      1.0  0.27630  0.48260  0.11176  1.0000
  C   C466      1.0  0.35224  0.51795  0.26426  1.0000
  C   C467      1.0  0.04875  0.53604  0.31637  1.0000
  H   H828      1.0  0.47505  0.50059  0.34734  1.0000
  H   H829      1.0  0.04511  0.54852  0.27138  1.0000
  H   H830      1.0  0.01027  0.54789  0.29291  1.0000
  C   C468      1.0  0.43210  0.50291  0.37196  1.0000
  H   H831      1.0  0.05809  0.58759  0.20066  1.0000
  H   H832      1.0  0.41405  0.48471  0.13943  1.0000
  C   C469      1.0  0.34116  0.51467  0.41835  1.0000
  C   C470      1.0  0.05421  0.62467  0.07563  1.0000
  H   H833      1.0  0.11546  0.58381  0.38923  1.0000
  C   C471      1.0  0.27994  0.49671  0.34583  1.0000
  H   H834      1.0  0.34727  0.52978  0.25538  1.0000
  H   H835      1.0  0.02625  0.53147  0.27411  1.0000
  H   H836      1.0  0.34373  0.52323  0.31160  1.0000
  C   C472      1.0  0.37035  0.50125  0.31098  1.0000
  H   H837      1.0  0.32412  0.48661  0.05777  1.0000
  H   H838      1.0  0.09768  0.62249  0.05314  1.0000
  H   H839      1.0  0.34997  0.49507  0.30969  1.0000
  H   H840      1.0  0.08281  0.64674  0.02637  1.0000
  H   H841      1.0  0.33755  0.50802  0.35643  1.0000
  H   H842      1.0  0.37008  0.51253  0.24942  1.0000
  C   C473      1.0  0.10798  0.55155  0.46988  1.0000
  C   C474      1.0  0.07676  0.55307  0.46971  1.0000
  H   H843      1.0  0.04872  0.62886  0.21826  1.0000
  C   C475      1.0  0.36229  0.51764  0.29797  1.0000
  Fe  Fe57      1.0  0.30813  0.47667  0.27977  1.0000
  C   C476      1.0  0.41281  0.50580  0.34254  1.0000
  H   H844      1.0  0.33833  0.48617  0.11580  1.0000
  N   N26       1.0  0.38256  0.49959  0.34355  1.0000
  H   H845      1.0  0.20175  0.48103  0.12577  1.0000
  C   C477      1.0  0.47155  0.48613  0.26414  1.0000
  Fe  Fe58      1.0  0.18187  0.53924  0.48185  1.0000
  H   H846      1.0  0.42381  0.48458  0.26222  1.0000
  H   H847      1.0  0.14886  0.51552  0.11465  1.0000
  H   H848      1.0  0.09000  0.59763  0.36934  1.0000
  H   H849      1.0  0.03724  0.55784  0.33495  1.0000
  H   H850      1.0  0.19488  0.47869  0.05497  1.0000
  S   S114      1.0  0.28810  0.49692  0.30533  1.0000
  H   H851      1.0  0.11449  0.58502  0.34723  1.0000
  H   H852      1.0  0.46959  0.49817  0.26636  1.0000
  C   C478      1.0  0.42547  0.52966  0.14567  1.0000
  H   H853      1.0  0.04773  0.61984  0.12485  1.0000
  H   H854      1.0  0.04373  0.64650  0.03362  1.0000
  H   H855      1.0  0.03499  0.57850  0.04318  1.0000
  H   H856      1.0  0.17794  0.50678  0.13930  1.0000
  H   H857      1.0  0.06930  0.52920  0.30920  1.0000
  N   N27       1.0  0.36104  0.50306  0.13817  1.0000
  H   H858      1.0  0.01793  0.69616  0.40910  1.0000
  C   C479      1.0  0.33274  0.51164  0.14915  1.0000
  H   H859      1.0  0.06291  0.70973  0.41361  1.0000
  C   C480      1.0  0.38485  0.51360  0.12968  1.0000
  H   H860      1.0  0.39400  0.52020  0.17742  1.0000
  H   H861      1.0  0.08585  0.61624  0.11161  1.0000
  C   C481      1.0  0.33859  0.50528  0.08267  1.0000
  C   C482      1.0  0.33424  0.52001  0.17949  1.0000
  C   C483      1.0  0.30302  0.52589  0.19031  1.0000
  H   H862      1.0  0.10667  0.53133  0.35167  1.0000
  C   C484      1.0  0.35961  0.50314  0.39939  1.0000
  H   H863      1.0  0.35160  0.48463  0.17040  1.0000
  H   H864      1.0  0.14431  0.49150  0.08991  1.0000
  H   H865      1.0  0.05299  0.60215  0.17042  1.0000
  H   H866      1.0  0.32454  0.52044  0.13138  1.0000
  H   H867      1.0  0.31485  0.50384  0.15228  1.0000
  H   H868      1.0  0.05819  0.60344  0.10329  1.0000
  S   S115      1.0  0.22485  0.50495  0.00885  1.0000
  H   H869      1.0  0.39965  0.50911  0.11068  1.0000
  H   H870      1.0  0.37437  0.52453  0.11980  1.0000
  C   C485      1.0  0.02026  0.70320  0.42925  1.0000
  H   H871      1.0  0.29739  0.47749  0.41452  1.0000
  C   C486      1.0  0.05663  0.59996  0.19570  1.0000
  H   H872      1.0  0.34876  0.49242  0.40204  1.0000
  H   H873      1.0  0.35121  0.51524  0.07703  1.0000
  H   H874      1.0  0.31530  0.50919  0.08912  1.0000
  H   H875      1.0  0.34404  0.51263  0.19872  1.0000
  H   H876      1.0  0.34741  0.52990  0.17537  1.0000
  H   H877      1.0  0.29156  0.53324  0.17177  1.0000
  H   H878      1.0  0.28933  0.51638  0.19665  1.0000
  H   H879      1.0  0.30467  0.53253  0.21118  1.0000
  C   C487      1.0  0.33690  0.49662  0.05319  1.0000
  H   H880      1.0  0.03448  0.60829  0.01974  1.0000
  C   C488      1.0  0.03157  0.54134  0.28692  1.0000
  C   C489      1.0  0.50015  0.47836  0.26316  1.0000
  H   H881      1.0  0.43899  0.52668  0.12468  1.0000
  H   H882      1.0  0.36507  0.52056  0.36292  1.0000
  H   H883      1.0  0.41131  0.54028  0.14049  1.0000
  S   S116      1.0  0.02192  0.56787  0.46141  1.0000
  H   H884      1.0  0.04384  0.50941  0.44984  1.0000
  H   H885      1.0  0.38174  0.52444  0.29841  1.0000
  C   C490      1.0  0.26963  0.49837  0.41076  1.0000
  C   C491      1.0  0.02281  0.53513  0.39128  1.0000
  H   H886      1.0  0.36157  0.47897  0.35342  1.0000
  C   C492      1.0  0.15767  0.50470  0.12639  1.0000
  H   H887      1.0  0.31861  0.51727  0.40831  1.0000
  H   H888      1.0  0.07364  0.55520  0.31872  1.0000
  H   H889      1.0  0.33161  0.51204  0.26266  1.0000
  H   H890      1.0  0.14047  0.50082  0.14306  1.0000
  H   H891      1.0  0.00886  0.57558  0.25525  1.0000
  C   C493      1.0  0.23923  0.57552  0.49114  1.0000
  C   C494      1.0  0.24391  0.50578  0.11292  1.0000
  C   C495      1.0  0.26179  0.49267  0.16127  1.0000
  C   C496      1.0  0.35347  0.49516  0.10950  1.0000
  H   H892      1.0  0.03052  0.62340  0.07069  1.0000
  H   H893      1.0  0.13539  0.50986  0.38447  1.0000
  H   H894      1.0  0.42631  0.50152  0.32242  1.0000
  N   N28       1.0  0.06972  0.54643  0.36667  1.0000
  C   C497      1.0  0.08800  0.53141  0.36909  1.0000
  C   C498      1.0  0.05729  0.54962  0.33428  1.0000
  C   C499      1.0  0.09059  0.55836  0.37240  1.0000
  C   C500      1.0  0.04491  0.54750  0.39070  1.0000
  H   H895      1.0  0.35963  0.49297  0.04448  1.0000
  C   C501      1.0  0.10174  0.52668  0.40140  1.0000
  C   C502      1.0  0.07665  0.57487  0.36953  1.0000
  C   C503      1.0  0.03581  0.61983  0.00887  1.0000
  H   H896      1.0  0.22683  0.56906  0.47510  1.0000
  S   S117      1.0  0.20862  0.54160  0.01059  1.0000
  C   C504      1.0  0.11681  0.51068  0.40184  1.0000
  C   C505      1.0  0.10071  0.58597  0.36882  1.0000
  H   H897      1.0  0.07811  0.60420  0.20199  1.0000
  H   H898      1.0  0.07472  0.52214  0.36295  1.0000
  H   H899      1.0  0.06462  0.54336  0.47502  1.0000
  H   H900      1.0  0.38651  0.49594  0.29421  1.0000
  H   H901      1.0  0.11025  0.55728  0.35623  1.0000
  H   H902      1.0  0.09978  0.55689  0.39627  1.0000
  H   H903      1.0  0.05435  0.54770  0.41419  1.0000
  H   H904      1.0  0.03110  0.55843  0.38759  1.0000
  H   H905      1.0  0.03445  0.52370  0.39162  1.0000
  H   H906      1.0  0.08874  0.51472  0.03891  1.0000
  H   H907      1.0  0.11907  0.53416  0.40725  1.0000
  H   H908      1.0  0.08446  0.52692  0.42009  1.0000
  H   H909      1.0  0.06193  0.57709  0.38997  1.0000
  H   H910      1.0  0.06321  0.57733  0.34827  1.0000
  H   H911      1.0  0.03561  0.65246  0.17933  1.0000
  C   C506      1.0  0.17986  0.47818  0.11716  1.0000
  C   C507      1.0  0.29214  0.48526  0.36641  1.0000
  H   H912      1.0  0.42245  0.50982  0.39086  1.0000
  C   C508      1.0  0.37085  0.49105  0.16274  1.0000
  H   H913      1.0  0.37801  0.49600  0.18411  1.0000
  H   H914      1.0  0.04613  0.67323  0.00919  1.0000
  H   H915      1.0  0.10167  0.72285  0.46061  1.0000
  H   H916      1.0  0.03472  0.52865  0.33060  1.0000
  H   H917      1.0  0.03523  0.60407  0.23934  1.0000
  H   H918      1.0  0.00818  0.53686  0.37072  1.0000
  C   C509      1.0  0.01177  0.65553  0.18521  1.0000
  H   H919      1.0  0.43424  0.49089  0.38004  1.0000
  N   N29       1.0  0.06520  0.62583  0.01618  1.0000
  C   C510      1.0  0.46376  0.50748  0.36557  1.0000
  H   H920      1.0  0.02927  0.69578  0.44903  1.0000
  C   C511      1.0  0.27786  0.48167  0.14435  1.0000
  C   C512      1.0  0.38434  0.48307  0.35341  1.0000
  S   S118      1.0  0.12591  0.49334  0.49471  1.0000
  C   C513      1.0  0.06197  0.64279  0.01718  1.0000
  C   C514      1.0  0.02809  0.62473  0.20902  1.0000
  C   C515      1.0  0.39616  0.47930  0.15278  1.0000
  H   H921      1.0  0.05243  0.71781  0.46807  1.0000
  H   H922      1.0  0.02904  0.62698  0.18334  1.0000
  H   H923      1.0  0.01708  0.62676  0.01963  1.0000
  H   H924      1.0  0.03155  0.72205  0.40001  1.0000
  H   H925      1.0  0.11963  0.54068  0.47548  1.0000
  H   H926      1.0  0.05390  0.51018  0.02332  1.0000
  H   H927      1.0  0.05089  0.49180  0.47188  1.0000
  H   H928      1.0  0.08856  0.49964  0.01281  1.0000
  H   H929      1.0  0.02016  0.67812  0.19768  1.0000
  H   H930      1.0  0.01613  0.53456  0.44165  1.0000
  H   H931      1.0  0.02335  0.65244  0.23377  1.0000
  C   C516      1.0  0.07800  0.51095  0.01801  1.0000
  C   C517      1.0  0.00629  0.67263  0.18130  1.0000
  H   H932      1.0  0.02079  0.63021  0.26804  1.0000
  H   H933      1.0  0.01001  0.60272  0.20772  1.0000
  H   H934      1.0  0.01230  0.67640  0.15715  1.0000
  Fe  Fe59      1.0  0.16170  0.53737  0.99902  1.0000
  S   S119      1.0  0.15395  0.48178  0.99996  1.0000
  Fe  Fe60      1.0  0.30709  0.57204  0.70271  1.0000
  S   S120      1.0  0.32387  0.55214  0.73320  1.0000
  S   S121      1.0  0.30033  0.56966  0.65086  1.0000
  Fe  Fe61      1.0  0.31103  0.59348  0.75558  1.0000
  S   S122      1.0  0.32923  0.57480  0.78915  1.0000
  S   S123      1.0  0.30141  0.61596  0.77776  1.0000
  Fe  Fe62      1.0  0.35827  0.56699  0.74892  1.0000
  S   S124      1.0  0.40619  0.55602  0.74859  1.0000
  Fe  Fe63      1.0  0.29358  0.56181  0.77054  1.0000
  S   S125      1.0  0.25880  0.54911  0.79787  1.0000
  S   S126      1.0  0.34280  0.58660  0.71670  1.0000
  S   S127      1.0  0.27411  0.58078  0.73860  1.0000
  C   C518      1.0  0.14390  0.53643  0.88761  1.0000
  S   S128      1.0  0.16678  0.69958  0.73297  1.0000
  Fe  Fe64      1.0  0.21659  0.69469  0.73001  1.0000
  S   S129      1.0  0.23650  0.67374  0.70729  1.0000
  H   H935      1.0  0.28473  0.70587  0.80596  1.0000
  H   H936      1.0  0.00741  0.70350  0.70912  1.0000
  Fe  Fe65      1.0  0.20709  0.52303  0.54065  1.0000
  S   S130      1.0  0.21423  0.52602  0.59220  1.0000
  S   S131      1.0  0.16023  0.52938  0.52450  1.0000
  S   S132      1.0  0.14613  0.70006  0.82141  1.0000
  H   H937      1.0  0.05009  0.53021  0.88645  1.0000
  Fe  Fe66      1.0  0.22219  0.52501  0.97430  1.0000
  S   S133      1.0  0.26165  0.53037  0.94286  1.0000
  C   C519      1.0  0.48607  0.57562  0.64474  1.0000
  S   S134      1.0  0.17514  0.52206  0.96045  1.0000
  C   C520      1.0  0.43921  0.56456  0.75701  1.0000
  C   C521      1.0  0.46664  0.55571  0.75753  1.0000
  H   H938      1.0  0.15462  0.52473  0.88871  1.0000
  C   C522      1.0  0.46575  0.58608  0.76934  1.0000
  C   C523      1.0  0.43890  0.57981  0.76294  1.0000
  H   H939      1.0  0.46703  0.54385  0.75351  1.0000
  H   H940      1.0  0.41796  0.58675  0.76285  1.0000
  C   C524      1.0  0.28229  0.63169  0.75808  1.0000
  C   C525      1.0  0.27725  0.63201  0.72613  1.0000
  C   C526      1.0  0.26303  0.64496  0.71098  1.0000
  C   C527      1.0  0.25324  0.65758  0.72769  1.0000
  C   C528      1.0  0.25783  0.65718  0.75975  1.0000
  C   C529      1.0  0.27259  0.64433  0.77480  1.0000
  H   H941      1.0  0.28472  0.62236  0.71302  1.0000
  H   H942      1.0  0.25958  0.64520  0.68617  1.0000
  H   H943      1.0  0.25027  0.66679  0.77288  1.0000
  H   H944      1.0  0.27646  0.64416  0.79952  1.0000
  C   C530      1.0  0.25992  0.54414  0.83827  1.0000
  C   C531      1.0  0.23413  0.53932  0.85340  1.0000
  C   C532      1.0  0.23416  0.53518  0.88544  1.0000
  C   C533      1.0  0.26012  0.53570  0.90262  1.0000
  C   C534      1.0  0.28582  0.54061  0.88751  1.0000
  C   C535      1.0  0.28571  0.54487  0.85553  1.0000
  H   H945      1.0  0.21410  0.53868  0.84019  1.0000
  H   H946      1.0  0.21430  0.53136  0.89675  1.0000
  H   H947      1.0  0.30601  0.54103  0.90059  1.0000
  H   H948      1.0  0.30572  0.54852  0.84417  1.0000
  C   C536      1.0  0.27562  0.55781  0.63490  1.0000
  C   C537      1.0  0.27762  0.55534  0.60295  1.0000
  C   C538      1.0  0.25890  0.54570  0.58946  1.0000
  C   C539      1.0  0.23798  0.53843  0.60786  1.0000
  C   C540      1.0  0.23579  0.54101  0.63976  1.0000
  C   C541      1.0  0.25441  0.55071  0.65321  1.0000
  H   H949      1.0  0.29392  0.56082  0.58860  1.0000
  H   H950      1.0  0.26096  0.54372  0.56493  1.0000
  H   H951      1.0  0.21966  0.53545  0.65419  1.0000
  H   H952      1.0  0.25246  0.55266  0.67776  1.0000
  H   H953      1.0  0.01684  0.53738  0.96541  1.0000
  H   H954      1.0  0.46522  0.59786  0.77418  1.0000
  C   C542      1.0  0.18747  0.58932  0.57496  1.0000
  H   H955      1.0  0.02032  0.71946  0.75058  1.0000
  C   C543      1.0  0.05546  0.52124  0.90495  1.0000
  H   H956      1.0  0.34327  0.50971  0.59580  1.0000
  H   H957      1.0  0.06873  0.54871  0.95549  1.0000
  H   H958      1.0  0.04375  0.51593  0.96742  1.0000
  H   H959      1.0  0.06519  0.70615  0.89915  1.0000
  H   H960      1.0  0.12696  0.50066  0.55968  1.0000
  C   C544      1.0  0.12783  0.59256  0.54997  1.0000
  C   C545      1.0  0.10918  0.48467  0.91868  1.0000
  H   H961      1.0  0.22173  0.56405  0.54912  1.0000
  H   H962      1.0  0.11139  0.49009  0.89579  1.0000
  Fe  Fe67      1.0  0.16417  0.50791  0.49980  1.0000
  H   H963      1.0  0.11425  0.51723  0.92548  1.0000
  C   C546      1.0  0.08228  0.52219  0.99060  1.0000
  C   C547      1.0  0.07292  0.48820  0.68428  1.0000
  C   C548      1.0  0.01301  0.56121  0.95574  1.0000
  C   C549      1.0  0.02587  0.70379  0.69170  1.0000
  H   H964      1.0  0.37324  0.65079  0.71311  1.0000
  C   C550      1.0  0.09117  0.48923  0.58213  1.0000
  H   H965      1.0  0.35593  0.48994  0.62720  1.0000
  C   C551      1.0  0.14743  0.56520  0.60383  1.0000
  H   H966      1.0  0.39148  0.52254  0.67362  1.0000
  C   C552      1.0  0.01518  0.47482  0.70045  1.0000
  H   H967      1.0  0.06647  0.70781  0.80053  1.0000
  H   H968      1.0  0.27702  0.51401  0.57816  1.0000
  C   C553      1.0  0.09623  0.49937  0.68862  1.0000
  S   S135      1.0  0.22402  0.70100  0.77867  1.0000
  C   C554      1.0  0.10061  0.70365  0.86451  1.0000
  H   H969      1.0  0.23142  0.60847  0.58896  1.0000
  C   C555      1.0  0.05027  0.71372  0.70207  1.0000
  H   H970      1.0  0.20111  0.59044  0.50261  1.0000
  H   H971      1.0  0.19079  0.59902  0.55832  1.0000
  C   C556      1.0  0.06702  0.47901  0.71511  1.0000
  C   C557      1.0  0.13001  0.48675  0.94163  1.0000
  H   H972      1.0  0.12569  0.56632  0.59185  1.0000
  H   H973      1.0  0.14599  0.54109  0.61469  1.0000
  H   H974      1.0  0.30826  0.51055  0.55210  1.0000
  H   H975      1.0  0.49333  0.55683  0.69746  1.0000
  H   H976      1.0  0.05341  0.50559  0.52243  1.0000
  C   C558      1.0  0.36897  0.49488  0.64511  1.0000
  H   H977      1.0  0.16932  0.59361  0.59073  1.0000
  H   H978      1.0  0.02102  0.54389  0.51077  1.0000
  H   H979      1.0  0.16791  0.55054  0.64103  1.0000
  H   H980      1.0  0.20714  0.60596  0.62261  1.0000
  H   H981      1.0  0.41433  0.71245  0.69475  1.0000
  C   C559      1.0  0.20336  0.57057  0.53610  1.0000
  Fe  Fe68      1.0  0.01403  0.71679  0.56440  1.0000
  H   H982      1.0  0.08155  0.48070  0.66588  1.0000
  N   N30       1.0  0.32979  0.51664  0.65866  1.0000
  C   C560      1.0  0.34974  0.52886  0.64856  1.0000
  C   C561      1.0  0.30875  0.51396  0.63288  1.0000
  C   C562      1.0  0.31129  0.52221  0.68611  1.0000
  C   C563      1.0  0.34747  0.50225  0.66936  1.0000
  H   H983      1.0  0.05866  0.55091  0.91617  1.0000
  C   C564      1.0  0.37392  0.53207  0.67202  1.0000
  C   C565      1.0  0.28449  0.51313  0.69650  1.0000
  C   C566      1.0  0.32067  0.51536  0.59883  1.0000
  H   H984      1.0  0.29974  0.49635  0.58147  1.0000
  C   C567      1.0  0.04683  0.52662  0.56087  1.0000
  S   S136      1.0  0.04374  0.47622  0.60972  1.0000
  C   C568      1.0  0.26865  0.51976  0.72503  1.0000
  H   H985      1.0  0.33577  0.53956  0.64286  1.0000
  H   H986      1.0  0.36214  0.52634  0.62676  1.0000
  H   H987      1.0  0.29971  0.50277  0.63691  1.0000
  H   H988      1.0  0.28898  0.52231  0.63323  1.0000
  H   H989      1.0  0.30215  0.53407  0.68124  1.0000
  H   H990      1.0  0.32535  0.52233  0.70701  1.0000
  H   H991      1.0  0.36045  0.50405  0.69043  1.0000
  H   H992      1.0  0.38346  0.50306  0.63375  1.0000
  H   H993      1.0  0.09430  0.49375  0.60451  1.0000
  S   S137      1.0  0.22516  0.71751  0.70812  1.0000
  H   H994      1.0  0.36465  0.53373  0.69562  1.0000
  C   C569      1.0  0.05617  0.54352  0.93744  1.0000
  H   H995      1.0  0.29192  0.50122  0.70279  1.0000
  H   H996      1.0  0.26765  0.51340  0.67793  1.0000
  H   H997      1.0  0.32170  0.52745  0.59161  1.0000
  C   C570      1.0  0.03699  0.51462  0.51308  1.0000
  C   C571      1.0  0.12770  0.47955  0.97105  1.0000
  C   C572      1.0  0.30013  0.50865  0.57638  1.0000
  H   H998      1.0  0.20542  0.69606  0.85621  1.0000
  H   H999      1.0  0.11311  0.53499  0.94234  1.0000
  C   C573      1.0  0.49349  0.56201  0.76377  1.0000
  H   H1000     1.0  0.24943  0.51324  0.73198  1.0000
  H   H1001     1.0  0.28409  0.51931  0.74497  1.0000
  H   H1002     1.0  0.26009  0.53165  0.71983  1.0000
  N   N31       1.0  0.33500  0.69546  0.72590  1.0000
  C   C574      1.0  0.30741  0.69655  0.70616  1.0000
  C   C575      1.0  0.32597  0.69937  0.75862  1.0000
  H   H1003     1.0  0.09453  0.66386  0.75189  1.0000
  C   C576      1.0  0.35237  0.68017  0.72572  1.0000
  C   C577      1.0  0.33419  0.66634  0.72179  1.0000
  C   C578      1.0  0.31341  0.69589  0.67061  1.0000
  C   C579      1.0  0.35476  0.70726  0.71295  1.0000
  C   C580      1.0  0.30568  0.68866  0.77660  1.0000
  H   H1004     1.0  0.15681  0.58412  0.51415  1.0000
  N   N32       1.0  0.06322  0.70980  0.73396  1.0000
  C   C581      1.0  0.10242  0.52871  0.92462  1.0000
  H   H1005     1.0  0.01598  0.70083  0.81690  1.0000
  H   H1006     1.0  0.29239  0.68774  0.71340  1.0000
  H   H1007     1.0  0.34589  0.69946  0.77345  1.0000
  H   H1008     1.0  0.12123  0.66779  0.78049  1.0000
  H   H1009     1.0  0.03353  0.50165  0.92403  1.0000
  H   H1010     1.0  0.33224  0.49356  0.67700  1.0000
  H   H1011     1.0  0.36936  0.67984  0.70656  1.0000
  H   H1012     1.0  0.36557  0.67806  0.74738  1.0000
  H   H1013     1.0  0.32614  0.66627  0.69760  1.0000
  H   H1014     1.0  0.31436  0.66633  0.73727  1.0000
  H   H1015     1.0  0.28175  0.68677  0.82064  1.0000
  H   H1016     1.0  0.33218  0.68748  0.66539  1.0000
  H   H1017     1.0  0.39388  0.69921  0.74149  1.0000
  H   H1018     1.0  0.14826  0.49365  0.93634  1.0000
  H   H1019     1.0  0.08365  0.62482  0.96930  1.0000
  H   H1020     1.0  0.31780  0.67742  0.78092  1.0000
  Fe  Fe69      1.0  0.17539  0.72276  0.71463  1.0000
  H   H1021     1.0  0.13929  0.56989  0.53444  1.0000
  H   H1022     1.0  0.13739  0.60364  0.54783  1.0000
  H   H1023     1.0  0.48317  0.60907  0.71903  1.0000
  C   C582      1.0  0.06730  0.51743  0.96095  1.0000
  C   C583      1.0  0.08571  0.47552  0.92507  1.0000
  H   H1024     1.0  0.03046  0.65131  0.98099  1.0000
  H   H1025     1.0  0.15373  0.54291  0.90553  1.0000
  H   H1026     1.0  0.06195  0.54693  0.53606  1.0000
  H   H1027     1.0  0.02669  0.71650  0.83745  1.0000
  H   H1028     1.0  0.06175  0.68589  0.72826  1.0000
  H   H1029     1.0  0.19498  0.56227  0.52071  1.0000
  H   H1030     1.0  0.08837  0.50754  0.70615  1.0000
  H   H1031     1.0  0.10668  0.52260  0.98698  1.0000
  H   H1032     1.0  0.08425  0.52974  0.52782  1.0000
  H   H1033     1.0  0.10149  0.53055  0.87306  1.0000
  C   C584      1.0  0.01254  0.70974  0.66059  1.0000
  H   H1034     1.0  0.00927  0.54342  0.92528  1.0000
  H   H1035     1.0  0.48584  0.58662  0.63149  1.0000
  H   H1036     1.0  0.48747  0.56704  0.62681  1.0000
  H   H1037     1.0  0.36366  0.70433  0.68957  1.0000
  H   H1038     1.0  0.42259  0.72161  0.72950  1.0000
  C   C585      1.0  0.38892  0.54627  0.66182  1.0000
  C   C586      1.0  0.05434  0.65197  0.98638  1.0000
  S   S138      1.0  0.06146  0.71030  0.58146  1.0000
  Fe  Fe70      1.0  0.17467  0.70788  0.78021  1.0000
  H   H1039     1.0  0.03091  0.62924  0.96029  1.0000
  C   C587      1.0  0.11014  0.67209  0.75856  1.0000
  N   N33       1.0  0.06961  0.52778  0.93222  1.0000
  H   H1040     1.0  0.31938  0.70707  0.66105  1.0000
  H   H1041     1.0  0.08287  0.54549  0.58958  1.0000
  C   C588      1.0  0.04674  0.71477  0.79140  1.0000
  H   H1042     1.0  0.40370  0.48640  0.67783  1.0000
  C   C589      1.0  0.03837  0.71076  0.75811  1.0000
  H   H1043     1.0  0.22388  0.70418  0.88720  1.0000
  H   H1044     1.0  0.40641  0.54814  0.67873  1.0000
  H   H1045     1.0  0.37227  0.55623  0.66130  1.0000
  H   H1046     1.0  0.10560  0.52851  0.58029  1.0000
  H   H1047     1.0  0.31679  0.69506  0.82290  1.0000
  H   H1048     1.0  0.28498  0.68750  0.76376  1.0000
  C   C590      1.0  0.07156  0.53594  0.54615  1.0000
  H   H1049     1.0  0.49315  0.60420  0.66306  1.0000
  C   C591      1.0  0.11014  0.53645  0.89256  1.0000
  H   H1050     1.0  0.39947  0.54519  0.63846  1.0000
  C   C592      1.0  0.07814  0.69401  0.73329  1.0000
  H   H1051     1.0  0.10568  0.71852  0.72248  1.0000
  C   C593      1.0  0.09333  0.68740  0.76349  1.0000
  H   H1052     1.0  0.23885  0.70541  0.84788  1.0000
  H   H1053     1.0  0.31463  0.71099  0.75845  1.0000
  H   H1054     1.0  0.29016  0.69302  0.62791  1.0000
  H   H1055     1.0  0.06102  0.48706  0.73350  1.0000
  C   C594      1.0  0.40437  0.71899  0.71413  1.0000
  C   C595      1.0  0.15095  0.58017  0.53821  1.0000
  H   H1056     1.0  0.10077  0.54834  0.89086  1.0000
  N   N34       1.0  0.23176  0.59107  0.87506  1.0000
  C   C596      1.0  0.22329  0.58518  0.84460  1.0000
  C   C597      1.0  0.22932  0.57879  0.90019  1.0000
  C   C598      1.0  0.21104  0.60483  0.88147  1.0000
  C   C599      1.0  0.26331  0.59565  0.87377  1.0000
  C   C600      1.0  0.28801  0.58317  0.86604  1.0000
  C   C601      1.0  0.22913  0.59535  0.81513  1.0000
  C   C602      1.0  0.21130  0.61032  0.91505  1.0000
  C   C603      1.0  0.19752  0.57355  0.90615  1.0000
  C   C604      1.0  0.19580  0.56427  0.93688  1.0000
  C   C605      1.0  0.31851  0.58952  0.86311  1.0000
  C   C606      1.0  0.21306  0.59031  0.78708  1.0000
  C   C607      1.0  0.18996  0.62443  0.91834  1.0000
  H   H1057     1.0  0.19917  0.58319  0.84506  1.0000
  H   H1058     1.0  0.23504  0.57392  0.84109  1.0000
  H   H1059     1.0  0.24349  0.56848  0.89428  1.0000
  H   H1060     1.0  0.23855  0.58209  0.92239  1.0000
  H   H1061     1.0  0.18758  0.60305  0.87583  1.0000
  H   H1062     1.0  0.21658  0.61453  0.86575  1.0000
  H   H1063     1.0  0.26536  0.60534  0.85665  1.0000
  H   H1064     1.0  0.26936  0.59977  0.89650  1.0000
  H   H1065     1.0  0.28366  0.57809  0.84384  1.0000
  H   H1066     1.0  0.28962  0.57416  0.88483  1.0000
  H   H1067     1.0  0.22127  0.60727  0.81817  1.0000
  H   H1068     1.0  0.25341  0.59479  0.80948  1.0000
  H   H1069     1.0  0.23392  0.61311  0.92126  1.0000
  H   H1070     1.0  0.20406  0.60167  0.93235  1.0000
  H   H1071     1.0  0.18017  0.58307  0.90719  1.0000
  H   H1072     1.0  0.19171  0.56641  0.88718  1.0000
  H   H1073     1.0  0.17301  0.56054  0.94047  1.0000
  H   H1074     1.0  0.21189  0.55415  0.93678  1.0000
  H   H1075     1.0  0.20075  0.57105  0.95672  1.0000
  H   H1076     1.0  0.33597  0.58030  0.85857  1.0000
  H   H1077     1.0  0.31875  0.59810  0.84345  1.0000
  H   H1078     1.0  0.32408  0.59467  0.88492  1.0000
  H   H1079     1.0  0.21839  0.59747  0.76616  1.0000
  H   H1080     1.0  0.22033  0.57841  0.78268  1.0000
  H   H1081     1.0  0.18851  0.59146  0.79096  1.0000
  H   H1082     1.0  0.16673  0.62209  0.91322  1.0000
  H   H1083     1.0  0.19050  0.62812  0.94251  1.0000
  H   H1084     1.0  0.19670  0.63374  0.90226  1.0000
  C   C608      1.0  0.06811  0.47986  0.57831  1.0000
  C   C609      1.0  0.28597  0.69199  0.65338  1.0000
  H   H1085     1.0  0.02946  0.70828  0.64171  1.0000
  H   H1086     1.0  0.08306  0.60254  0.53992  1.0000
  H   H1087     1.0  0.07161  0.51277  0.89415  1.0000
  H   H1088     1.0  0.23126  0.58963  0.52944  1.0000
  C   C610      1.0  0.45499  0.57535  0.66115  1.0000
  C   C611      1.0  0.29675  0.69449  0.80846  1.0000
  H   H1089     1.0  0.12764  0.67305  0.74017  1.0000
  C   C612      1.0  0.08206  0.71753  0.61130  1.0000
  H   H1090     1.0  0.19381  0.55926  0.59295  1.0000
  C   C613      1.0  0.42980  0.57832  0.63771  1.0000
  H   H1091     1.0  0.11105  0.54612  0.55941  1.0000
  C   C614      1.0  0.09943  0.59381  0.53069  1.0000
  H   H1092     1.0  0.14352  0.70706  0.65589  1.0000
  C   C615      1.0  0.49325  0.57727  0.76942  1.0000
  C   C616      1.0  0.08336  0.47753  0.52438  1.0000
  H   H1093     1.0  0.02832  0.50275  0.86624  1.0000
  C   C617      1.0  0.10652  0.70856  0.62409  1.0000
  H   H1094     1.0  0.05797  0.51591  0.57104  1.0000
  H   H1095     1.0  0.12138  0.59039  0.57460  1.0000
  H   H1096     1.0  0.09683  0.71843  0.76229  1.0000
  H   H1097     1.0  0.07633  0.68561  0.78200  1.0000
  H   H1098     1.0  0.45218  0.56428  0.67327  1.0000
  H   H1099     1.0  0.45170  0.58418  0.67831  1.0000
  H   H1100     1.0  0.09517  0.69340  0.71408  1.0000
  H   H1101     1.0  0.10445  0.69162  0.86903  1.0000
  C   C618      1.0  0.11796  0.71089  0.84174  1.0000
  C   C619      1.0  0.14728  0.55162  0.62701  1.0000
  C   C620      1.0  0.17325  0.56297  0.57991  1.0000
  H   H1102     1.0  0.06838  0.71332  0.68401  1.0000
  C   C621      1.0  0.12459  0.71405  0.64659  1.0000
  C   C622      1.0  0.09407  0.53918  0.57051  1.0000
  H   H1103     1.0  0.01391  0.51097  0.60557  1.0000
  H   H1104     1.0  0.43096  0.58949  0.62529  1.0000
  H   H1105     1.0  0.43103  0.56943  0.62057  1.0000
  H   H1106     1.0  0.40792  0.57831  0.65016  1.0000
  H   H1107     1.0  0.08906  0.58293  0.53163  1.0000
  H   H1108     1.0  0.28112  0.68021  0.65967  1.0000
  H   H1109     1.0  0.10966  0.69482  0.77154  1.0000
  N   N35       1.0  0.17850  0.57617  0.55776  1.0000
  H   H1110     1.0  0.12773  0.55305  0.64302  1.0000
  H   H1111     1.0  0.01038  0.51883  0.92601  1.0000
  H   H1112     1.0  0.23484  0.58086  0.58228  1.0000
  H   H1113     1.0  0.07727  0.50595  0.95603  1.0000
  H   H1114     1.0  0.24516  0.59772  0.62311  1.0000
  C   C623      1.0  0.22530  0.60049  0.60823  1.0000
  H   H1115     1.0  0.33987  0.64195  0.72458  1.0000
  S   S139      1.0  0.20927  0.50044  0.51934  1.0000
  C   C624      1.0  0.21796  0.58273  0.51520  1.0000
  C   C625      1.0  0.21563  0.58608  0.59544  1.0000
  S   S140      1.0  0.01744  0.72077  0.98147  1.0000
  C   C626      1.0  0.08664  0.72053  0.73905  1.0000
  H   H1116     1.0  0.10015  0.50568  0.66619  1.0000
  C   C627      1.0  0.35320  0.65156  0.72859  1.0000
  H   H1117     1.0  0.10458  0.59713  0.50609  1.0000
  H   H1118     1.0  0.14887  0.54175  0.86441  1.0000
  H   H1119     1.0  0.02751  0.69999  0.76011  1.0000
  H   H1120     1.0  0.14947  0.57526  0.61734  1.0000
  C   C628      1.0  0.10973  0.49312  0.55684  1.0000
  C   C629      1.0  0.38205  0.70999  0.73282  1.0000
  H   H1121     1.0  0.03525  0.69210  0.68824  1.0000
  H   H1122     1.0  0.13964  0.60661  0.96493  1.0000
  C   C630      1.0  0.11951  0.60020  0.96586  1.0000
  H   H1123     1.0  0.21094  0.57836  0.61570  1.0000
  C   C631      1.0  0.10562  0.48740  0.52779  1.0000
  H   H1124     1.0  0.16892  0.55302  0.56669  1.0000
  H   H1125     1.0  0.36024  0.65061  0.75325  1.0000
  Fe  Fe71      1.0  0.23000  0.72423  0.75738  1.0000
  H   H1126     1.0  0.03776  0.53273  0.58110  1.0000
  H   H1127     1.0  0.11776  0.49336  0.69617  1.0000
  H   H1128     1.0  0.06692  0.57236  0.99692  1.0000
  H   H1129     1.0  0.05235  0.49476  0.67577  1.0000
  N   N36       1.0  0.02238  0.52317  0.53946  1.0000
  H   H1130     1.0  0.50454  0.62300  0.69935  1.0000
  H   H1131     1.0  0.11176  0.69732  0.61627  1.0000
  H   H1132     1.0  0.26616  0.69970  0.65913  1.0000
  H   H1133     1.0  0.49864  0.71620  0.84522  1.0000
  C   C632      1.0  0.19887  0.72041  0.85586  1.0000
  C   C633      1.0  0.07833  0.71185  0.88163  1.0000
  C   C634      1.0  0.02254  0.54529  0.94597  1.0000
  C   C635      1.0  0.05907  0.66859  0.98918  1.0000
  H   H1134     1.0  0.05129  0.67512  0.96773  1.0000
  H   H1135     1.0  0.37460  0.71667  0.75302  1.0000
  C   C636      1.0  0.02837  0.61864  0.97411  1.0000
  H   H1136     1.0  0.40398  0.47669  0.64222  1.0000
  H   H1137     1.0  0.02011  0.56977  0.93808  1.0000
  C   C637      1.0  0.21805  0.70564  0.86223  1.0000
  H   H1138     1.0  0.04330  0.60968  0.96365  1.0000
  H   H1139     1.0  0.01803  0.47807  0.67533  1.0000
  H   H1140     1.0  0.29367  0.70732  0.70981  1.0000
  H   H1141     1.0  0.08308  0.67011  0.99219  1.0000
  H   H1142     1.0  0.01604  0.49756  0.71828  1.0000
  Fe  Fe72      1.0  0.17635  0.50356  0.99804  1.0000
  S   S141      1.0  0.12368  0.55539  0.99036  1.0000
  H   H1143     1.0  0.01060  0.50111  0.55659  1.0000
  H   H1144     1.0  0.19226  0.72095  0.83115  1.0000
  H   H1145     1.0  0.06825  0.64810  0.96646  1.0000
  C   C638      1.0  0.01242  0.50945  0.88119  1.0000
  C   C639      1.0  0.38932  0.48206  0.66024  1.0000
  H   H1146     1.0  0.17843  0.71998  0.87054  1.0000
  H   H1147     1.0  0.49192  0.58253  0.70649  1.0000
  H   H1148     1.0  0.02281  0.56311  0.97850  1.0000
  H   H1149     1.0  0.34151  0.71830  0.70924  1.0000
  C   C640      1.0  0.50499  0.61100  0.70765  1.0000
  H   H1150     1.0  0.25690  0.56785  0.50275  1.0000
  C   C641      1.0  0.02722  0.51264  0.91153  1.0000
  H   H1151     1.0  0.10677  0.60263  0.94407  1.0000
  C   C642      1.0  0.02084  0.71281  0.81428  1.0000
  H   H1152     1.0  0.12690  0.58800  0.96757  1.0000
  H   H1153     1.0  0.08038  0.59750  0.99450  1.0000
  C   C643      1.0  0.09996  0.60422  0.99412  1.0000
  C   C644      1.0  0.08991  0.62128  0.99350  1.0000
  S   S142      1.0  0.22884  0.53437  0.49937  1.0000
  H   H1154     1.0  0.07246  0.53335  0.99752  1.0000
  H   H1155     1.0  0.11009  0.62724  0.99797  1.0000
  H   H1156     1.0  0.26267  0.97097  0.15392  1.0000
  H   H1157     1.0  0.03907  0.94445  0.28165  1.0000
  S   S143      1.0  0.12760  0.95469  0.22687  1.0000
  H   H1158     1.0  0.43699  0.82412  0.28340  1.0000
  Fe  Fe73      1.0  0.21842  0.84685  0.24675  1.0000
  S   S144      1.0  0.21742  0.86864  0.21734  1.0000
  S   S145      1.0  0.18282  0.82932  0.24939  1.0000
  Fe  Fe74      1.0  0.27991  0.85238  0.27598  1.0000
  S   S146      1.0  0.28162  0.87443  0.24891  1.0000
  S   S147      1.0  0.31844  0.84166  0.30680  1.0000
  Fe  Fe75      1.0  0.23280  0.87871  0.26040  1.0000
  S   S148      1.0  0.21618  0.90070  0.28189  1.0000
  Fe  Fe76      1.0  0.26663  0.86257  0.20785  1.0000
  S   S149      1.0  0.28916  0.86921  0.16151  1.0000
  S   S150      1.0  0.23178  0.85729  0.29055  1.0000
  S   S151      1.0  0.26695  0.84011  0.23421  1.0000
  H   H1159     1.0  0.17000  0.74114  0.43640  1.0000
  Fe  Fe77      1.0  0.43747  0.85964  0.44305  1.0000
  S   S152      1.0  0.45892  0.83621  0.45309  1.0000
  S   S153      1.0  0.40070  0.86795  0.40802  1.0000
  H   H1160     1.0  0.04709  0.87321  0.35132  1.0000
  S   S154      1.0  0.48155  0.86953  0.43413  1.0000
  Fe  Fe78      1.0  0.43394  0.84486  0.05880  1.0000
  S   S155      1.0  0.47906  0.83167  0.05661  1.0000
  S   S156      1.0  0.39532  0.83469  0.08541  1.0000
  Fe  Fe79      1.0  0.45710  0.87163  0.02180  1.0000
  H   H1161     1.0  0.15525  0.72707  0.46249  1.0000
  H   H1162     1.0  0.48302  0.82652  0.29622  1.0000
  H   H1163     1.0  0.10489  0.78315  0.18589  1.0000
  H   H1164     1.0  0.12014  0.74995  0.45586  1.0000
  Fe  Fe80      1.0  0.50283  0.84658  0.44660  1.0000
  S   S157      1.0  0.45307  0.86568  0.07284  1.0000
  C   C645      1.0  0.24390  0.93431  0.20905  1.0000
  S   S158      1.0  0.04127  0.82222  0.24249  1.0000
  C   C646      1.0  0.48161  0.80444  0.38192  1.0000
  C   C647      1.0  0.14336  0.82756  0.24699  1.0000
  C   C648      1.0  0.12320  0.83927  0.23544  1.0000
  C   C649      1.0  0.09227  0.83743  0.23459  1.0000
  C   C650      1.0  0.08076  0.82378  0.24484  1.0000
  C   C651      1.0  0.10093  0.81196  0.25592  1.0000
  C   C652      1.0  0.13189  0.81386  0.25697  1.0000
  H   H1165     1.0  0.13149  0.84966  0.22656  1.0000
  H   H1166     1.0  0.07711  0.84662  0.22556  1.0000
  H   H1167     1.0  0.09269  0.80137  0.26389  1.0000
  H   H1168     1.0  0.14709  0.80464  0.26580  1.0000
  C   C653      1.0  0.31841  0.85936  0.14036  1.0000
  C   C654      1.0  0.32188  0.84365  0.14061  1.0000
  C   C655      1.0  0.34542  0.83632  0.12356  1.0000
  C   C656      1.0  0.36588  0.84457  0.10616  1.0000
  C   C657      1.0  0.36235  0.86030  0.10578  1.0000
  C   C658      1.0  0.33859  0.86763  0.12255  1.0000
  H   H1169     1.0  0.30630  0.83713  0.15378  1.0000
  H   H1170     1.0  0.34781  0.82416  0.12386  1.0000
  H   H1171     1.0  0.37772  0.86680  0.09229  1.0000
  H   H1172     1.0  0.33592  0.87978  0.12181  1.0000
  C   C659      1.0  0.34010  0.84922  0.33572  1.0000
  C   C660      1.0  0.35849  0.83933  0.35519  1.0000
  C   C661      1.0  0.37690  0.84476  0.37760  1.0000
  C   C662      1.0  0.37738  0.86025  0.38077  1.0000
  C   C663      1.0  0.35888  0.87014  0.36143  1.0000
  C   C664      1.0  0.34038  0.86470  0.33911  1.0000
  H   H1173     1.0  0.35805  0.82734  0.35332  1.0000
  H   H1174     1.0  0.39055  0.83698  0.39256  1.0000
  H   H1175     1.0  0.35880  0.88214  0.36376  1.0000
  H   H1176     1.0  0.32640  0.87251  0.32449  1.0000
  C   C665      1.0  0.15337  0.94007  0.24172  1.0000
  C   C666      1.0  0.15997  0.92723  0.22452  1.0000
  C   C667      1.0  0.17967  0.91519  0.23612  1.0000
  C   C668      1.0  0.19252  0.91579  0.26529  1.0000
  C   C669      1.0  0.18611  0.92869  0.28231  1.0000
  C   C670      1.0  0.16683  0.94083  0.27050  1.0000
  H   H1177     1.0  0.14976  0.92658  0.20216  1.0000
  H   H1178     1.0  0.18480  0.90543  0.22259  1.0000
  H   H1179     1.0  0.19604  0.92928  0.30485  1.0000
  H   H1180     1.0  0.16192  0.95064  0.28398  1.0000
  H   H1181     1.0  0.03496  0.76839  0.36840  1.0000
  H   H1182     1.0  0.03659  0.80845  0.18433  1.0000
  H   H1183     1.0  0.23252  0.93726  0.23128  1.0000
  H   H1184     1.0  0.02706  0.94452  0.22654  1.0000
  H   H1185     1.0  0.49655  0.78877  0.41988  1.0000
  H   H1186     1.0  0.06646  0.74132  0.39271  1.0000
  C   C671      1.0  0.06098  0.74797  0.47042  1.0000
  H   H1187     1.0  0.02176  0.73033  0.45490  1.0000
  C   C672      1.0  0.04146  0.80423  0.16077  1.0000
  H   H1188     1.0  0.23098  0.92619  0.19747  1.0000
  H   H1189     1.0  0.49148  0.92014  0.09341  1.0000
  H   H1190     1.0  0.49411  0.85035  0.36278  1.0000
  N   N37       1.0  0.38484  0.86068  0.21723  1.0000
  C   C673      1.0  0.37374  0.84616  0.23041  1.0000
  C   C674      1.0  0.40502  0.86640  0.24062  1.0000
  C   C675      1.0  0.35835  0.87184  0.21057  1.0000
  C   C676      1.0  0.40218  0.85846  0.18721  1.0000
  C   C677      1.0  0.42716  0.84535  0.18773  1.0000
  C   C678      1.0  0.35355  0.83833  0.20874  1.0000
  C   C679      1.0  0.36537  0.88831  0.20243  1.0000
  C   C680      1.0  0.39002  0.87058  0.27213  1.0000
  C   C681      1.0  0.41052  0.87923  0.29097  1.0000
  C   C682      1.0  0.44477  0.84523  0.15700  1.0000
  C   C683      1.0  0.34560  0.82311  0.22282  1.0000
  C   C684      1.0  0.33689  0.89831  0.19473  1.0000
  H   H1191     1.0  0.36021  0.84813  0.25195  1.0000
  H   H1192     1.0  0.39277  0.83805  0.23769  1.0000
  H   H1193     1.0  0.42363  0.85778  0.24653  1.0000
  H   H1194     1.0  0.41610  0.87625  0.23042  1.0000
  H   H1195     1.0  0.34211  0.87183  0.23027  1.0000
  H   H1196     1.0  0.34579  0.86834  0.19072  1.0000
  H   H1197     1.0  0.38696  0.85670  0.16789  1.0000
  H   H1198     1.0  0.41292  0.86885  0.17977  1.0000
  H   H1199     1.0  0.41754  0.83433  0.19111  1.0000
  H   H1200     1.0  0.44325  0.84632  0.20652  1.0000
  H   H1201     1.0  0.33227  0.84538  0.20487  1.0000
  H   H1202     1.0  0.36470  0.83632  0.18606  1.0000
  H   H1203     1.0  0.38056  0.88895  0.18191  1.0000
  H   H1204     1.0  0.37587  0.89317  0.22224  1.0000
  H   H1205     1.0  0.36876  0.87771  0.26927  1.0000
  H   H1206     1.0  0.38525  0.86023  0.28614  1.0000
  H   H1207     1.0  0.43246  0.87272  0.29396  1.0000
  H   H1208     1.0  0.41385  0.89032  0.27908  1.0000
  H   H1209     1.0  0.45623  0.85572  0.15300  1.0000
  H   H1210     1.0  0.46196  0.83553  0.15743  1.0000
  H   H1211     1.0  0.42970  0.84414  0.13727  1.0000
  H   H1212     1.0  0.33488  0.82435  0.24610  1.0000
  H   H1213     1.0  0.32959  0.81836  0.20750  1.0000
  H   H1214     1.0  0.36586  0.81512  0.22474  1.0000
  H   H1215     1.0  0.32083  0.89816  0.21464  1.0000
  H   H1216     1.0  0.34238  0.91008  0.18957  1.0000
  H   H1217     1.0  0.32612  0.89441  0.17398  1.0000
  H   H1218     1.0  0.04057  0.82800  0.14476  1.0000
  H   H1219     1.0  0.40838  0.80190  0.28989  1.0000
  S   S159      1.0  0.43994  0.89507  0.00447  1.0000
  H   H1220     1.0  0.08974  0.81878  0.13908  1.0000
  H   H1221     1.0  0.03809  0.94875  0.10809  1.0000
  H   H1222     1.0  0.18661  0.89475  0.38588  1.0000
  Fe  Fe81      1.0  0.48085  0.84012  0.00602  1.0000
  H   H1223     1.0  0.13485  0.96650  0.11601  1.0000
  H   H1224     1.0  0.26048  0.95594  0.20018  1.0000
  H   H1225     1.0  0.07207  0.77009  0.23965  1.0000
  H   H1226     1.0  0.06879  0.76596  0.16967  1.0000
  N   N38       1.0  0.13352  0.87069  0.31027  1.0000
  C   C685      1.0  0.10698  0.87108  0.33231  1.0000
  C   C686      1.0  0.15571  0.88143  0.31965  1.0000
  C   C687      1.0  0.12214  0.87600  0.27840  1.0000
  C   C688      1.0  0.14837  0.85498  0.30807  1.0000
  C   C689      1.0  0.16002  0.84700  0.33875  1.0000
  C   C690      1.0  0.08211  0.86077  0.32507  1.0000
  C   C691      1.0  0.14632  0.87823  0.25273  1.0000
  C   C692      1.0  0.15866  0.88387  0.35483  1.0000
  C   C693      1.0  0.18530  0.89284  0.36071  1.0000
  C   C694      1.0  0.17150  0.83068  0.33388  1.0000
  C   C695      1.0  0.05747  0.86152  0.35000  1.0000
  C   C696      1.0  0.13224  0.88484  0.22243  1.0000
  H   H1227     1.0  0.09646  0.88282  0.33296  1.0000
  H   H1228     1.0  0.11391  0.86792  0.35650  1.0000
  H   H1229     1.0  0.17835  0.87795  0.31027  1.0000
  H   H1230     1.0  0.14998  0.89297  0.30898  1.0000
  H   H1231     1.0  0.10817  0.88688  0.27979  1.0000
  H   H1232     1.0  0.10749  0.86786  0.26935  1.0000
  H   H1233     1.0  0.13325  0.84762  0.29723  1.0000
  H   H1234     1.0  0.16797  0.85502  0.29206  1.0000
  H   H1235     1.0  0.14231  0.84680  0.35694  1.0000
  H   H1236     1.0  0.17911  0.85267  0.34715  1.0000
  H   H1237     1.0  0.07142  0.86428  0.30255  1.0000
  H   H1238     1.0  0.09112  0.84884  0.32435  1.0000
  H   H1239     1.0  0.15865  0.86735  0.24775  1.0000
  H   H1240     1.0  0.16275  0.88593  0.25956  1.0000
  H   H1241     1.0  0.13829  0.89040  0.36343  1.0000
  H   H1242     1.0  0.16153  0.87316  0.36897  1.0000
  H   H1243     1.0  0.20646  0.88660  0.35328  1.0000
  H   H1244     1.0  0.18296  0.90395  0.34766  1.0000
  H   H1245     1.0  0.17896  0.82507  0.35635  1.0000
  H   H1246     1.0  0.15367  0.82438  0.32454  1.0000
  H   H1247     1.0  0.19086  0.83023  0.31744  1.0000
  C   C697      1.0  0.04460  0.72558  0.44829  1.0000
  S   S160      1.0  0.01047  0.78012  0.25480  1.0000
  C   C698      1.0  0.06675  0.77247  0.08773  1.0000
  H   H1248     1.0  0.12130  0.89628  0.22575  1.0000
  H   H1249     1.0  0.14988  0.88574  0.20418  1.0000
  H   H1250     1.0  0.11556  0.87750  0.21428  1.0000
  C   C699      1.0  0.47160  0.82138  0.37583  1.0000
  H   H1251     1.0  0.05350  0.96687  0.20851  1.0000
  C   C700      1.0  0.01445  0.94695  0.11403  1.0000
  H   H1252     1.0  0.50125  0.90081  0.04636  1.0000
  S   S161      1.0  0.43633  0.86533  0.49380  1.0000
  H   H1253     1.0  0.05935  0.75396  0.22209  1.0000
  H   H1254     1.0  0.38434  0.81794  0.27604  1.0000
  H   H1255     1.0  0.03954  0.77605  0.19167  1.0000
  H   H1256     1.0  0.13512  0.79847  0.14684  1.0000
  C   C701      1.0  0.06389  0.77310  0.18967  1.0000
  H   H1257     1.0  0.50331  0.88701  0.07695  1.0000
  H   H1258     1.0  0.48982  0.82754  0.38460  1.0000
  H   H1259     1.0  0.12048  0.74795  0.41423  1.0000
  H   H1260     1.0  0.40967  0.83495  0.30583  1.0000
  H   H1261     1.0  0.44474  0.80586  0.33155  1.0000
  N   N39       1.0  0.46381  0.82639  0.34268  1.0000
  H   H1262     1.0  0.14179  0.82533  0.13289  1.0000
  H   H1263     1.0  0.09730  0.75867  0.21578  1.0000
  C   C702      1.0  0.46987  0.85323  0.36174  1.0000
  H   H1264     1.0  0.47880  0.91071  0.40036  1.0000
  C   C703      1.0  0.12161  0.74180  0.43730  1.0000
  H   H1265     1.0  0.03144  0.74692  0.40980  1.0000
  C   C704      1.0  0.08080  0.79026  0.12841  1.0000
  H   H1266     1.0  0.16840  0.81783  0.16172  1.0000
  C   C705      1.0  0.03228  0.81746  0.13700  1.0000
  C   C706      1.0  0.08094  0.78741  0.18629  1.0000
  H   H1267     1.0  0.43016  0.84520  0.34626  1.0000
  Fe  Fe82      1.0  0.48208  0.87324  0.48514  1.0000
  H   H1268     1.0  0.43747  0.91681  0.09200  1.0000
  H   H1269     1.0  0.45382  0.91646  0.05356  1.0000
  C   C707      1.0  0.13120  0.97329  0.13680  1.0000
  H   H1270     1.0  0.45207  0.82422  0.39138  1.0000
  C   C708      1.0  0.45332  0.91033  0.07668  1.0000
  H   H1271     1.0  0.42032  0.81839  0.35294  1.0000
  C   C709      1.0  0.14431  0.82089  0.15736  1.0000
  H   H1272     1.0  0.04200  0.81544  0.11361  1.0000
  H   H1273     1.0  0.03740  0.75285  0.47165  1.0000
  C   C710      1.0  0.45426  0.84308  0.34019  1.0000
  H   H1274     1.0  0.46064  0.85176  0.38568  1.0000
  H   H1275     1.0  0.38213  0.81150  0.31598  1.0000
  H   H1276     1.0  0.07430  0.75783  0.46758  1.0000
  H   H1277     1.0  0.08545  0.81797  0.18020  1.0000
  H   H1278     1.0  0.03988  0.85417  0.34409  1.0000
  H   H1279     1.0  0.40029  0.88120  0.31421  1.0000
  H   H1280     1.0  0.08836  0.79837  0.10998  1.0000
  H   H1281     1.0  0.10019  0.78172  0.13173  1.0000
  H   H1282     1.0  0.05972  0.78255  0.37583  1.0000
  C   C711      1.0  0.05509  0.78251  0.11366  1.0000
  C   C712      1.0  0.09276  0.81108  0.16016  1.0000
  H   H1283     1.0  0.26637  0.92873  0.21447  1.0000
  H   H1284     1.0  0.20110  0.95624  0.20002  1.0000
  C   C713      1.0  0.05593  0.74691  0.41318  1.0000
  H   H1285     1.0  0.04525  0.77027  0.42533  1.0000
  C   C714      1.0  0.12688  0.80704  0.16338  1.0000
  H   H1286     1.0  0.08254  0.76316  0.09712  1.0000
  C   C715      1.0  0.05745  0.77026  0.37690  1.0000
  H   H1287     1.0  0.47573  0.87673  0.36764  1.0000
  H   H1288     1.0  0.04204  0.95713  0.16148  1.0000
  C   C716      1.0  0.04351  0.95439  0.26620  1.0000
  H   H1289     1.0  0.02596  0.79531  0.15883  1.0000
  H   H1290     1.0  0.03829  0.79105  0.10328  1.0000
  C   C717      1.0  0.48436  0.90869  0.09088  1.0000
  H   H1291     1.0  0.08425  0.76593  0.41754  1.0000
  H   H1292     1.0  0.20643  0.94808  0.16345  1.0000
  C   C718      1.0  0.21577  0.95613  0.17881  1.0000
  N   N40       1.0  0.07367  0.79799  0.15842  1.0000
  H   H1293     1.0  0.44051  0.87348  0.35156  1.0000
  H   H1294     1.0  0.45657  0.84756  0.31571  1.0000
  C   C719      1.0  0.48902  0.80089  0.41616  1.0000
  C   C720      1.0  0.46473  0.86984  0.35136  1.0000
  C   C721      1.0  0.06158  0.76384  0.41032  1.0000
  C   C722      1.0  0.24689  0.94845  0.18795  1.0000
  H   H1295     1.0  0.06656  0.85752  0.37307  1.0000
  H   H1296     1.0  0.06735  0.95322  0.25875  1.0000
  S   S162      1.0  0.43444  0.85162  0.00758  1.0000
  C   C723      1.0  0.02310  0.95531  0.23808  1.0000
  C   C724      1.0  0.02955  0.96881  0.21531  1.0000
  H   H1297     1.0  0.07718  0.79355  0.20808  1.0000
  H   H1298     1.0  0.07808  0.77912  0.06920  1.0000
  H   H1299     1.0  0.47453  0.87193  0.32784  1.0000
  H   H1300     1.0  0.07461  0.76487  0.36125  1.0000
  C   C725      1.0  0.07382  0.76341  0.21861  1.0000
  H   H1301     1.0  0.13204  0.80259  0.18746  1.0000
  C   C726      1.0  0.42133  0.82359  0.30351  1.0000
  H   H1302     1.0  0.03930  0.96460  0.27972  1.0000
  H   H1303     1.0  0.04304  0.77549  0.13073  1.0000
  H   H1304     1.0  0.44502  0.89913  0.07406  1.0000
  H   H1305     1.0  0.25947  0.94496  0.16670  1.0000
  H   H1306     1.0  0.24208  0.96433  0.12397  1.0000
  H   H1307     1.0  0.13640  0.82984  0.17320  1.0000
  H   H1308     1.0  0.49368  0.81015  0.31931  1.0000
  H   H1309     1.0  0.04775  0.76746  0.07723  1.0000
  N   N41       1.0  0.06507  0.73809  0.44301  1.0000
  C   C727      1.0  0.39770  0.81305  0.29598  1.0000
  H   H1310     1.0  0.50198  0.80119  0.36810  1.0000
  C   C728      1.0  0.43762  0.81798  0.33400  1.0000
  H   H1311     1.0  0.15795  0.95815  0.16701  1.0000
  C   C729      1.0  0.09659  0.73095  0.44045  1.0000
  H   H1312     1.0  0.01335  0.93559  0.12564  1.0000
  C   C730      1.0  0.15242  0.73315  0.43940  1.0000
  H   H1313     1.0  0.46902  0.80340  0.43113  1.0000
  H   H1314     1.0  0.01247  0.94760  0.17840  1.0000
  H   H1315     1.0  0.48242  0.90323  0.11457  1.0000
  C   C731      1.0  0.48922  0.82256  0.32030  1.0000
  H   H1316     1.0  0.46375  0.79727  0.37618  1.0000
  H   H1317     1.0  0.19018  0.96668  0.12238  1.0000
  C   C732      1.0  0.01754  0.95841  0.16629  1.0000
  H   H1318     1.0  0.11042  0.97014  0.14885  1.0000
  Fe  Fe83      1.0  0.49847  0.85316  0.06813  1.0000
  C   C733      1.0  0.15734  0.97018  0.15905  1.0000
  H   H1319     1.0  0.50198  0.89890  0.37544  1.0000
  N   N42       1.0  0.21470  0.97170  0.16287  1.0000
  C   C734      1.0  0.50179  0.90850  0.39078  1.0000
  N   N43       1.0  0.00991  0.97131  0.18697  1.0000
  C   C735      1.0  0.24136  0.97317  0.14134  1.0000
  S   S163      1.0  0.50373  0.86079  0.01758  1.0000
  C   C736      1.0  0.18720  0.97380  0.14288  1.0000
  H   H1320     1.0  0.15549  0.72495  0.42088  1.0000
  H   H1321     1.0  0.50628  0.92813  0.04398  1.0000
  H   H1322     1.0  0.49704  0.94113  0.55268  1.0000
  H   H1323     1.0  0.08822  0.75938  0.74713  1.0000
  C   C737      1.0  0.45888  0.89296  0.72363  1.0000
  Fe  Fe84      1.0  0.45589  0.96589  0.59074  1.0000
  H   H1324     1.0  0.20573  0.77202  0.87124  1.0000
  H   H1325     1.0  0.48170  0.88427  0.92864  1.0000
  H   H1326     1.0  0.45632  0.78516  0.91256  1.0000
  Fe  Fe85      1.0  0.46093  0.84240  0.50334  1.0000
  H   H1327     1.0  0.46110  0.90681  0.91325  1.0000
  H   H1328     1.0  0.24183  0.76548  0.82469  1.0000
  S   S164      1.0  0.44526  0.96647  0.90217  1.0000
  H   H1329     1.0  0.46906  0.76126  0.86410  1.0000
  C   C738      1.0  0.46479  0.86516  0.84785  1.0000
  H   H1330     1.0  0.43683  0.83694  0.71256  1.0000
  H   H1331     1.0  0.18585  0.73247  0.91655  1.0000
  Fe  Fe86      1.0  0.47387  0.79638  0.72394  1.0000
  S   S165      1.0  0.47300  0.77143  0.72100  1.0000
  C   C739      1.0  0.09067  0.73467  0.85342  1.0000
  Fe  Fe87      1.0  0.45991  0.79446  0.79475  1.0000
  S   S166      1.0  0.45834  0.76916  0.79546  1.0000
  S   S167      1.0  0.44586  0.80858  0.83688  1.0000
  H   H1332     1.0  0.14864  0.76256  0.77987  1.0000
  Fe  Fe88      1.0  0.43144  0.77319  0.75161  1.0000
  S   S168      1.0  0.39220  0.76049  0.73505  1.0000
  H   H1333     1.0  0.42520  0.90291  0.92930  1.0000
  S   S169      1.0  0.43099  0.79852  0.75197  1.0000
  C   C740      1.0  0.45468  0.90710  0.53087  1.0000
  H   H1334     1.0  0.15414  0.74303  0.86989  1.0000
  S   S170      1.0  0.44627  0.82618  0.54293  1.0000
  H   H1335     1.0  0.46474  0.95167  0.75548  1.0000
  H   H1336     1.0  0.47432  0.85316  0.80575  1.0000
  C   C741      1.0  0.21870  0.76089  0.86984  1.0000
  H   H1337     1.0  0.15601  0.77154  0.83242  1.0000
  S   S171      1.0  0.26548  0.73728  0.77998  1.0000
  C   C742      1.0  0.09417  0.73770  0.64349  1.0000
  H   H1338     1.0  0.05494  0.73097  0.50883  1.0000
  H   H1339     1.0  0.44510  0.76611  0.91534  1.0000
  H   H1340     1.0  0.03980  0.72546  0.70062  1.0000
  H   H1341     1.0  0.38783  0.84889  0.53858  1.0000
  H   H1342     1.0  0.43469  0.86056  0.93720  1.0000
  H   H1343     1.0  0.37807  0.84988  0.59555  1.0000
  C   C743      1.0  0.48430  0.90801  0.52103  1.0000
  H   H1344     1.0  0.47330  0.85507  0.61743  1.0000
  H   H1345     1.0  0.37489  0.96293  0.89431  1.0000
  H   H1346     1.0  0.16040  0.76134  0.88006  1.0000
  C   C744      1.0  0.43666  0.94766  0.69993  1.0000
  H   H1347     1.0  0.07849  0.76083  0.52468  1.0000
  H   H1348     1.0  0.46318  0.88416  0.57655  1.0000
  C   C745      1.0  0.26395  0.77585  0.86033  1.0000
  H   H1349     1.0  0.35447  0.87239  0.95258  1.0000
  H   H1350     1.0  0.04013  0.75613  0.52899  1.0000
  H   H1351     1.0  0.07631  0.74117  0.71005  1.0000
  C   C746      1.0  0.44442  0.86446  0.87729  1.0000
  H   H1352     1.0  0.42071  0.88100  0.65294  1.0000
  C   C747      1.0  0.49126  0.90320  0.97405  1.0000
  H   H1353     1.0  0.45947  0.87578  0.83377  1.0000
  H   H1354     1.0  0.37216  0.90548  0.62338  1.0000
  C   C748      1.0  0.44070  0.91822  0.54939  1.0000
  C   C749      1.0  0.35672  0.75451  0.74825  1.0000
  C   C750      1.0  0.48518  0.93166  0.54680  1.0000
  H   H1355     1.0  0.43984  0.89036  0.70933  1.0000
  C   C751      1.0  0.30046  0.74386  0.76689  1.0000
  C   C752      1.0  0.31886  0.74990  0.78837  1.0000
  C   C753      1.0  0.34673  0.75517  0.77920  1.0000
  C   C754      1.0  0.42380  0.83866  0.69081  1.0000
  C   C755      1.0  0.37897  0.87012  0.95542  1.0000
  H   H1356     1.0  0.31157  0.75049  0.81237  1.0000
  H   H1357     1.0  0.36052  0.75969  0.79609  1.0000
  C   C756      1.0  0.46162  0.81334  0.87253  1.0000
  C   C757      1.0  0.44284  0.82024  0.89516  1.0000
  C   C758      1.0  0.45422  0.82429  0.92366  1.0000
  C   C759      1.0  0.48467  0.82145  0.93004  1.0000
  H   H1358     1.0  0.44269  0.89776  0.52452  1.0000
  H   H1359     1.0  0.36669  0.95896  0.66807  1.0000
  H   H1360     1.0  0.41921  0.82236  0.89072  1.0000
  H   H1361     1.0  0.43936  0.82940  0.94086  1.0000
  H   H1362     1.0  0.38815  0.87811  0.63290  1.0000
  C   C760      1.0  0.49401  0.82432  0.62361  1.0000
  C   C761      1.0  0.47812  0.81485  0.64386  1.0000
  C   C762      1.0  0.45346  0.80848  0.63234  1.0000
  C   C763      1.0  0.44445  0.81186  0.60130  1.0000
  C   C764      1.0  0.45993  0.82159  0.58125  1.0000
  H   H1363     1.0  0.09278  0.73588  0.50344  1.0000
  H   H1364     1.0  0.43677  0.92231  0.86978  1.0000
  H   H1365     1.0  0.44098  0.80116  0.64748  1.0000
  H   H1366     1.0  0.42504  0.80704  0.59288  1.0000
  C   C765      1.0  0.06898  0.74032  0.50277  1.0000
  C   C766      1.0  0.07336  0.72744  0.87632  1.0000
  C   C767      1.0  0.41569  0.89456  0.61090  1.0000
  C   C768      1.0  0.46772  0.93295  0.96172  1.0000
  H   H1367     1.0  0.43911  0.89754  0.61169  1.0000
  H   H1368     1.0  0.43556  0.87911  0.94888  1.0000
  H   H1369     1.0  0.45848  0.94442  0.95718  1.0000
  C   C769      1.0  0.45094  0.92267  0.97870  1.0000
  S   S172      1.0  0.43882  0.94305  0.58426  1.0000
  C   C770      1.0  0.49937  0.92039  0.52878  1.0000
  S   S173      1.0  0.18068  0.73144  0.76226  1.0000
  C   C771      1.0  0.48507  0.82764  0.59252  1.0000
  H   H1370     1.0  0.46926  0.94715  0.65227  1.0000
  H   H1371     1.0  0.47424  0.86550  0.56531  1.0000
  C   C772      1.0  0.24718  0.76294  0.84954  1.0000
  H   H1372     1.0  0.40892  0.89409  0.58641  1.0000
  C   C773      1.0  0.06384  0.75147  0.52839  1.0000
  C   C774      1.0  0.21649  0.73406  0.86226  1.0000
  H   H1373     1.0  0.24976  0.78665  0.85803  1.0000
  H   H1374     1.0  0.40022  0.84216  0.69695  1.0000
  H   H1375     1.0  0.37581  0.95783  0.70878  1.0000
  H   H1376     1.0  0.09398  0.74488  0.77767  1.0000
  H   H1377     1.0  0.42766  0.94776  0.72415  1.0000
  H   H1378     1.0  0.39998  0.91819  0.61237  1.0000
  H   H1379     1.0  0.17273  0.74475  0.82049  1.0000
  H   H1380     1.0  0.44517  0.95890  0.69482  1.0000
  H   H1381     1.0  0.39687  0.85233  0.64216  1.0000
  H   H1382     1.0  0.41511  0.89142  0.87592  1.0000
  H   H1383     1.0  0.13052  0.73686  0.92090  1.0000
  S   S174      1.0  0.04628  0.73840  0.89786  1.0000
  C   C775      1.0  0.43778  0.89149  0.88583  1.0000
  H   H1384     1.0  0.28434  0.77692  0.84566  1.0000
  C   C776      1.0  0.45602  0.93040  0.55788  1.0000
  H   H1385     1.0  0.34536  0.74813  0.70271  1.0000
  H   H1386     1.0  0.43324  0.91772  0.69083  1.0000
  H   H1387     1.0  0.44803  0.85295  0.88857  1.0000
  H   H1388     1.0  0.38759  0.86806  0.90671  1.0000
  N   N44       1.0  0.44793  0.87623  0.90049  1.0000
  H   H1389     1.0  0.38393  0.85789  0.96110  1.0000
  C   C777      1.0  0.47625  0.77064  0.87718  1.0000
  C   C778      1.0  0.46043  0.85215  0.82722  1.0000
  H   H1390     1.0  0.42108  0.86525  0.86890  1.0000
  C   C779      1.0  0.49623  0.92836  0.95052  1.0000
  H   H1391     1.0  0.15709  0.78194  0.77814  1.0000
  Fe  Fe89      1.0  0.49361  0.96374  0.91488  1.0000
  H   H1392     1.0  0.40176  0.90831  0.64988  1.0000
  H   H1393     1.0  0.18559  0.76751  0.76806  1.0000
  C   C780      1.0  0.39511  0.87484  0.92540  1.0000
  H   H1394     1.0  0.26278  0.75262  0.85118  1.0000
  H   H1395     1.0  0.38772  0.88684  0.91989  1.0000
  H   H1396     1.0  0.42471  0.82774  0.67952  1.0000
  C   C781      1.0  0.43703  0.85066  0.66932  1.0000
  C   C782      1.0  0.33819  0.74856  0.72678  1.0000
  H   H1397     1.0  0.42074  0.87237  0.56721  1.0000
  H   H1398     1.0  0.47965  0.78020  0.86043  1.0000
  H   H1399     1.0  0.43814  0.92153  0.73001  1.0000
  C   C783      1.0  0.41237  0.87945  0.62936  1.0000
  H   H1400     1.0  0.08692  0.74672  0.84910  1.0000
  C   C784      1.0  0.47518  0.87337  0.58435  1.0000
  C   C785      1.0  0.47323  0.90676  0.70963  1.0000
  H   H1401     1.0  0.48973  0.73325  0.82169  1.0000
  H   H1402     1.0  0.27083  0.77367  0.88491  1.0000
  H   H1403     1.0  0.46119  0.84722  0.66636  1.0000
  C   C786      1.0  0.38508  0.95927  0.68483  1.0000
  H   H1404     1.0  0.38584  0.87657  0.97507  1.0000
  H   H1405     1.0  0.39911  0.93593  0.68296  1.0000
  H   H1406     1.0  0.49541  0.85241  0.90509  1.0000
  H   H1407     1.0  0.29646  0.73889  0.71897  1.0000
  C   C787      1.0  0.42130  0.85219  0.63728  1.0000
  C   C788      1.0  0.41668  0.86294  0.58413  1.0000
  S   S175      1.0  0.14229  0.73655  0.68258  1.0000
  C   C789      1.0  0.16628  0.77020  0.78388  1.0000
  S   S176      1.0  0.50039  0.82606  0.96583  1.0000
  C   C790      1.0  0.42412  0.91947  0.89140  1.0000
  H   H1408     1.0  0.11916  0.74533  0.74438  1.0000
  H   H1409     1.0  0.06913  0.74561  0.55129  1.0000
  H   H1410     1.0  0.41781  0.91747  0.55699  1.0000
  S   S177      1.0  0.48936  0.81196  0.68344  1.0000
  H   H1411     1.0  0.48874  0.86436  0.85393  1.0000
  H   H1412     1.0  0.48386  0.85715  0.94387  1.0000
  H   H1413     1.0  0.49525  0.95029  0.70835  1.0000
  C   C791      1.0  0.17548  0.74418  0.91432  1.0000
  H   H1414     1.0  0.42871  0.92627  0.98691  1.0000
  H   H1415     1.0  0.05693  0.73911  0.61192  1.0000
  N   N45       1.0  0.42804  0.86557  0.61601  1.0000
  H   H1416     1.0  0.43669  0.85216  0.82050  1.0000
  H   H1417     1.0  0.42953  0.85292  0.57476  1.0000
  H   H1418     1.0  0.46874  0.87264  0.63477  1.0000
  C   C792      1.0  0.46153  0.86650  0.61477  1.0000
  H   H1419     1.0  0.36880  0.86996  0.59092  1.0000
  H   H1420     1.0  0.39401  0.97048  0.68201  1.0000
  C   C793      1.0  0.45024  0.92065  0.70733  1.0000
  C   C794      1.0  0.47912  0.94111  0.75230  1.0000
  C   C795      1.0  0.48004  0.87639  0.90986  1.0000
  N   N46       1.0  0.46193  0.93550  0.69706  1.0000
  H   H1421     1.0  0.23551  0.73362  0.84531  1.0000
  C   C796      1.0  0.47206  0.93553  0.66331  1.0000
  C   C797      1.0  0.40941  0.94669  0.67866  1.0000
  H   H1422     1.0  0.20882  0.74984  0.81004  1.0000
  C   C798      1.0  0.37429  0.85853  0.54852  1.0000
  H   H1423     1.0  0.08958  0.74911  0.65056  1.0000
  C   C799      1.0  0.38311  0.86033  0.58212  1.0000
  H   H1424     1.0  0.22696  0.73212  0.88550  1.0000
  C   C800      1.0  0.17600  0.76862  0.81778  1.0000
  H   H1425     1.0  0.40040  0.91845  0.88580  1.0000
  C   C801      1.0  0.09558  0.74733  0.75220  1.0000
  H   H1426     1.0  0.18974  0.75154  0.92627  1.0000
  H   H1427     1.0  0.35039  0.85632  0.54772  1.0000
  N   N47       1.0  0.19906  0.74926  0.85960  1.0000
  C   C802      1.0  0.39617  0.90736  0.62513  1.0000
  C   C803      1.0  0.42949  0.87253  0.92910  1.0000
  C   C804      1.0  0.07561  0.73206  0.62159  1.0000
  C   C805      1.0  0.31036  0.74328  0.73595  1.0000
  C   C806      1.0  0.18975  0.75243  0.82630  1.0000
  H   H1428     1.0  0.45755  0.92888  0.64966  1.0000
  H   H1429     1.0  0.45249  0.89431  0.86571  1.0000
  H   H1430     1.0  0.43487  0.86130  0.68147  1.0000
  H   H1431     1.0  0.42504  0.92883  0.90724  1.0000
  H   H1432     1.0  0.22657  0.75794  0.89389  1.0000
  C   C807      1.0  0.17121  0.74967  0.87981  1.0000
  H   H1433     1.0  0.41599  0.94770  0.65372  1.0000
  H   H1434     1.0  0.42753  0.84150  0.62561  1.0000
  H   H1435     1.0  0.19238  0.77702  0.82077  1.0000
  H   H1436     1.0  0.33681  0.96902  0.90541  1.0000
  C   C808      1.0  0.49213  0.81081  0.87865  1.0000
  H   H1437     1.0  0.37753  0.86894  0.53398  1.0000
  H   H1438     1.0  0.12589  0.73212  0.81861  1.0000
  H   H1439     1.0  0.05251  0.73978  0.74373  1.0000
  H   H1440     1.0  0.43042  0.77937  0.88519  1.0000
  C   C809      1.0  0.36053  0.97148  0.90675  1.0000
  H   H1441     1.0  0.45083  0.89488  0.74776  1.0000
  H   H1442     1.0  0.46745  0.84124  0.83960  1.0000
  C   C810      1.0  0.43788  0.90489  0.90736  1.0000
  C   C811      1.0  0.45053  0.77559  0.89905  1.0000
  H   H1443     1.0  0.46740  0.93152  0.76228  1.0000
  H   H1444     1.0  0.36697  0.97071  0.93160  1.0000
  C   C812      1.0  0.46257  0.90776  0.98478  1.0000
  H   H1445     1.0  0.49484  0.74855  0.67367  1.0000
  H   H1446     1.0  0.49382  0.88092  0.89037  1.0000
  H   H1447     1.0  0.49739  0.83504  0.57739  1.0000
  H   H1448     1.0  0.49423  0.73805  0.87792  1.0000
  C   C813      1.0  0.11887  0.72877  0.65598  1.0000
  Fe  Fe90      1.0  0.01066  0.73025  0.93217  1.0000
  C   C814      1.0  0.49541  0.86114  0.92242  1.0000
  H   H1449     1.0  0.13417  0.75601  0.93097  1.0000
  H   H1450     1.0  0.14883  0.74050  0.95623  1.0000
  C   C815      1.0  0.14540  0.74443  0.93157  1.0000
  H   H1451     1.0  0.39330  0.72980  0.70452  1.0000
  H   H1452     1.0  0.48144  0.90391  0.68607  1.0000
  Fe  Fe91      1.0  0.49995  0.76929  0.76481  1.0000
  C   C816      1.0  0.07576  0.73751  0.73511  1.0000
  C   C817      1.0  0.48691  0.93945  0.71733  1.0000
  S   S178      1.0  0.50288  0.97076  0.60077  1.0000
  H   H1453     1.0  0.47561  0.88305  0.72437  1.0000
  H   H1454     1.0  0.50006  0.89166  0.97817  1.0000
  S   S179      1.0  0.50290  0.79425  0.76678  1.0000
  C   C818      1.0  0.11275  0.72644  0.83609  1.0000
  H   H1455     1.0  0.05192  0.72668  0.79157  1.0000
  C   C819      1.0  0.50526  0.93013  0.65662  1.0000
  H   H1456     1.0  0.49681  0.91815  0.61524  1.0000
  H   H1457     1.0  0.49229  0.90860  0.72449  1.0000
  C   C820      1.0  0.50350  0.81470  0.90726  1.0000
  H   H1458     1.0  0.50043  0.75610  0.91181  1.0000
  H   H1459     1.0  0.50090  0.94452  0.79562  1.0000
  C   C821      1.0  0.50513  0.76574  0.89551  1.0000
  S   S180      1.0  0.50360  0.89377  0.49978  1.0000
  H   H1460     1.0  0.50481  0.93752  0.60784  1.0000
  Fe  Fe92      1.0  0.85713  0.99103  0.26188  1.0000
  H   H1461     1.0  0.56394  0.01818  0.08000  1.0000
  C   C822      1.0  0.54641  0.98773  0.01239  1.0000
  Fe  Fe93      1.0  0.80277  0.00862  0.23100  1.0000
  C   C823      1.0  0.51071  0.04544  0.07391  1.0000
  S   S181      1.0  0.77933  0.02932  0.20621  1.0000
  Fe  Fe94      1.0  0.79578  0.99235  0.29426  1.0000
  S   S182      1.0  0.76865  0.99167  0.33910  1.0000
  H   H1462     1.0  0.53860  0.15658  0.37275  1.0000
  S   S183      1.0  0.82509  0.01017  0.27711  1.0000
  C   C824      1.0  0.71353  0.98393  0.10964  1.0000
  S   S184      1.0  0.67473  0.04215  0.03604  1.0000
  C   C825      1.0  0.99275  0.99459  0.27334  1.0000
  Fe  Fe95      1.0  0.72457  0.04102  0.02891  1.0000
  S   S185      1.0  0.76043  0.02907  0.06018  1.0000
  H   H1463     1.0  0.51377  0.20226  0.41808  1.0000
  H   H1464     1.0  0.68864  0.98489  0.10986  1.0000
  S   S186      1.0  0.66841  0.03725  0.46304  1.0000
  S   S187      1.0  0.69015  0.07186  0.46418  1.0000
  Fe  Fe96      1.0  0.64704  0.06090  0.46441  1.0000
  S   S188      1.0  0.60983  0.06708  0.43025  1.0000
  Fe  Fe97      1.0  0.71159  0.04807  0.46547  1.0000
  S   S189      1.0  0.75213  0.04424  0.43333  1.0000
  H   H1465     1.0  0.54674  0.10534  0.05303  1.0000
  C   C826      1.0  0.77427  0.02941  0.16553  1.0000
  C   C827      1.0  0.75204  0.03937  0.15129  1.0000
  C   C828      1.0  0.74718  0.03938  0.11905  1.0000
  C   C829      1.0  0.76516  0.02971  0.10071  1.0000
  C   C830      1.0  0.78776  0.02000  0.11488  1.0000
  C   C831      1.0  0.79204  0.01969  0.14718  1.0000
  H   H1466     1.0  0.73834  0.04702  0.16522  1.0000
  H   H1467     1.0  0.72987  0.04698  0.10832  1.0000
  H   H1468     1.0  0.80190  0.01257  0.10079  1.0000
  H   H1469     1.0  0.80939  0.01207  0.15776  1.0000
  C   C832      1.0  0.76480  0.00627  0.36531  1.0000
  C   C833      1.0  0.78297  0.01823  0.36313  1.0000
  C   C834      1.0  0.77894  0.02975  0.38428  1.0000
  C   C835      1.0  0.75635  0.02954  0.40730  1.0000
  C   C836      1.0  0.73792  0.01769  0.40912  1.0000
  C   C837      1.0  0.74233  0.00604  0.38837  1.0000
  H   H1470     1.0  0.80012  0.01856  0.34526  1.0000
  H   H1471     1.0  0.79321  0.03892  0.38272  1.0000
  H   H1472     1.0  0.72053  0.01740  0.42679  1.0000
  H   H1473     1.0  0.72812  0.99684  0.39014  1.0000
  C   C838      1.0  0.70274  0.01563  0.20095  1.0000
  H   H1474     1.0  0.60749  0.08816  0.47953  1.0000
  C   C839      1.0  0.96546  0.98871  0.28183  1.0000
  C   C840      1.0  0.93867  0.99431  0.26738  1.0000
  C   C841      1.0  0.62581  0.09352  0.34804  1.0000
  H   H1475     1.0  0.62291  0.06168  0.05563  1.0000
  C   C842      1.0  0.54391  0.01604  0.01703  1.0000
  H   H1476     1.0  0.86430  0.00161  0.42429  1.0000
  H   H1477     1.0  0.94460  0.01283  0.32965  1.0000
  N   N48       1.0  0.54489  0.02908  0.03766  1.0000
  H   H1478     1.0  0.55963  0.12306  0.38343  1.0000
  H   H1479     1.0  0.70643  0.02572  0.18565  1.0000
  N   N49       1.0  0.72467  0.98434  0.14244  1.0000
  C   C843      1.0  0.54355  0.10702  0.45131  1.0000
  C   C844      1.0  0.53956  0.09842  0.42585  1.0000
  C   C845      1.0  0.55994  0.08612  0.41976  1.0000
  C   C846      1.0  0.58452  0.08240  0.43900  1.0000
  C   C847      1.0  0.58853  0.09094  0.46460  1.0000
  H   H1480     1.0  0.57127  0.10989  0.49047  1.0000
  H   H1481     1.0  0.56733  0.14459  0.22093  1.0000
  H   H1482     1.0  0.55665  0.07950  0.40007  1.0000
  C   C848      1.0  0.55874  0.08308  0.07266  1.0000
  C   C849      1.0  0.58037  0.07081  0.07334  1.0000
  C   C850      1.0  0.60632  0.07115  0.05474  1.0000
  C   C851      1.0  0.61111  0.08395  0.03580  1.0000
  C   C852      1.0  0.58956  0.09631  0.03531  1.0000
  C   C853      1.0  0.56333  0.09586  0.05358  1.0000
  C   C854      1.0  0.84553  0.02243  0.44141  1.0000
  C   C855      1.0  0.86919  0.01358  0.42218  1.0000
  C   C856      1.0  0.53991  0.00058  0.03414  1.0000
  H   H1483     1.0  0.54398  0.20667  0.46425  1.0000
  C   C857      1.0  0.55308  0.13676  0.23393  1.0000
  H   H1484     1.0  0.95560  0.99328  0.18035  1.0000
  C   C858      1.0  0.52756  0.09340  0.31783  1.0000
  C   C859      1.0  0.51565  0.03102  0.05533  1.0000
  H   H1485     1.0  0.67852  0.01402  0.20209  1.0000
  H   H1486     1.0  0.57624  0.14904  0.38254  1.0000
  C   C860      1.0  0.69469  0.00222  0.30748  1.0000
  H   H1487     1.0  0.60881  0.02893  0.02971  1.0000
  C   C861      1.0  0.55544  0.13939  0.03050  1.0000
  C   C862      1.0  0.57385  0.14208  0.05883  1.0000
  Fe  Fe98      1.0  0.67437  0.06379  0.00653  1.0000
  C   C863      1.0  0.71301  0.99931  0.15467  1.0000
  H   H1488     1.0  0.98079  0.00067  0.38681  1.0000
  H   H1489     1.0  0.57722  0.06110  0.08870  1.0000
  H   H1490     1.0  0.68831  0.00102  0.15198  1.0000
  H   H1491     1.0  0.54300  0.03501  0.45314  1.0000
  H   H1492     1.0  0.83614  0.99614  0.38082  1.0000
  H   H1493     1.0  0.92559  0.02391  0.38051  1.0000
  H   H1494     1.0  0.57059  0.98642  0.00638  1.0000
  H   H1495     1.0  0.58875  0.12815  0.26388  1.0000
  H   H1496     1.0  0.56117  0.16055  0.00700  1.0000
  C   C864      1.0  0.54175  0.15441  0.01514  1.0000
  H   H1497     1.0  0.64595  0.01429  0.06306  1.0000
  H   H1498     1.0  0.55417  0.05250  0.03242  1.0000
  H   H1499     1.0  0.52506  0.01804  0.00054  1.0000
  H   H1500     1.0  0.76679  0.99359  0.13256  1.0000
  H   H1501     1.0  0.51651  0.00027  0.04276  1.0000
  C   C865      1.0  0.54597  0.04438  0.39299  1.0000
  H   H1502     1.0  0.57141  0.04114  0.00391  1.0000
  H   H1503     1.0  0.59225  0.14920  0.05215  1.0000
  H   H1504     1.0  0.55950  0.14761  0.07689  1.0000
  H   H1505     1.0  0.58372  0.13111  0.06902  1.0000
  H   H1506     1.0  0.70130  0.99989  0.33211  1.0000
  C   C866      1.0  0.71324  0.99380  0.05314  1.0000
  S   S190      1.0  0.52605  0.08179  0.09548  1.0000
  C   C867      1.0  0.88456  0.01771  0.33341  1.0000
  H   H1507     1.0  0.71417  0.00760  0.09188  1.0000
  H   H1508     1.0  0.96717  0.02068  0.21779  1.0000
  H   H1509     1.0  0.99434  0.00329  0.34742  1.0000
  C   C868      1.0  0.99360  0.00607  0.25004  1.0000
  H   H1510     1.0  0.84927  0.03458  0.44035  1.0000
  C   C869      1.0  0.52194  0.20972  0.47529  1.0000
  C   C870      1.0  0.96676  0.01177  0.23578  1.0000
  C   C871      1.0  0.93942  0.00594  0.24438  1.0000
  H   H1511     1.0  0.61748  0.01006  0.09137  1.0000
  H   H1512     1.0  0.56232  0.01519  0.49056  1.0000
  H   H1513     1.0  0.63368  0.08955  0.37163  1.0000
  C   C872      1.0  0.56805  0.10325  0.47071  1.0000
  H   H1514     1.0  0.76588  0.98298  0.16813  1.0000
  H   H1515     1.0  0.71548  0.99200  0.20486  1.0000
  H   H1516     1.0  0.53803  0.13200  0.03863  1.0000
  C   C873      1.0  0.62410  0.01847  0.07318  1.0000
  H   H1517     1.0  0.58061  0.09677  0.36349  1.0000
  H   H1518     1.0  0.72042  0.00292  0.03686  1.0000
  H   H1519     1.0  0.60205  0.11729  0.30950  1.0000
  H   H1520     1.0  0.56193  0.05282  0.39736  1.0000
  C   C874      1.0  0.52749  0.04532  0.44896  1.0000
  H   H1521     1.0  0.57314  0.03677  0.07258  1.0000
  H   H1522     1.0  0.55494  0.99828  0.05420  1.0000
  H   H1523     1.0  0.52958  0.04653  0.08957  1.0000
  H   H1524     1.0  0.81377  0.98114  0.11230  1.0000
  C   C875      1.0  0.94613  0.00627  0.35226  1.0000
  C   C876      1.0  0.92165  0.01214  0.37560  1.0000
  H   H1525     1.0  0.59324  0.10625  0.02077  1.0000
  H   H1526     1.0  0.57611  0.13762  0.33130  1.0000
  C   C877      1.0  0.88396  0.99467  0.36674  1.0000
  H   H1527     1.0  0.87037  0.03639  0.28197  1.0000
  H   H1528     1.0  0.90564  0.98506  0.17373  1.0000
  C   C878      1.0  0.55223  0.14702  0.38447  1.0000
  H   H1529     1.0  0.71037  0.01760  0.22463  1.0000
  H   H1530     1.0  0.51085  0.18781  0.06830  1.0000
  H   H1531     1.0  0.91450  0.03618  0.33563  1.0000
  N   N50       1.0  0.88982  0.01109  0.36596  1.0000
  H   H1532     1.0  0.91025  0.03180  0.28019  1.0000
  H   H1533     1.0  0.94414  0.99427  0.34795  1.0000
  C   C879      1.0  0.92218  0.97761  0.18743  1.0000
  H   H1534     1.0  0.87496  0.03160  0.38814  1.0000
  H   H1535     1.0  0.52060  0.10111  0.41112  1.0000
  H   H1536     1.0  0.58629  0.10034  0.30305  1.0000
  C   C880      1.0  0.55428  0.13269  0.33483  1.0000
  C   C881      1.0  0.55039  0.04300  0.01769  1.0000
  H   H1537     1.0  0.56554  0.14379  0.27823  1.0000
  H   H1538     1.0  0.91901  0.01036  0.23305  1.0000
  C   C882      1.0  0.59682  0.10361  0.35108  1.0000
  H   H1539     1.0  0.53731  0.14124  0.32436  1.0000
  H   H1540     1.0  0.84581  0.02059  0.37935  1.0000
  H   H1541     1.0  0.89551  0.05060  0.28826  1.0000
  S   S191      1.0  0.90518  0.98618  0.27867  1.0000
  H   H1542     1.0  0.87530  0.04199  0.33860  1.0000
  H   H1543     1.0  0.55750  0.03295  0.39699  1.0000
  C   C883      1.0  0.54623  0.12180  0.28493  1.0000
  H   H1544     1.0  0.96515  0.97971  0.29963  1.0000
  H   H1545     1.0  0.84658  0.01815  0.46609  1.0000
  C   C884      1.0  0.86915  0.01974  0.38782  1.0000
  H   H1546     1.0  0.84268  0.99576  0.33957  1.0000
  H   H1547     1.0  0.64344  0.09981  0.33620  1.0000
  S   S192      1.0  0.83734  0.99099  0.21403  1.0000
  C   C885      1.0  0.54663  0.13225  0.37020  1.0000
  H   H1548     1.0  0.60176  0.11303  0.36538  1.0000
  H   H1549     1.0  0.60025  0.00971  0.03684  1.0000
  S   S193      1.0  0.77131  0.99202  0.24951  1.0000
  C   C886      1.0  0.89198  0.03849  0.29224  1.0000
  H   H1550     1.0  0.67364  0.99694  0.30390  1.0000
  C   C887      1.0  0.72042  0.00169  0.18901  1.0000
  H   H1551     1.0  0.51356  0.02129  0.07227  1.0000
  C   C888      1.0  0.97738  0.00752  0.36467  1.0000
  H   H1552     1.0  0.00088  0.98959  0.15184  1.0000
  H   H1553     1.0  0.91813  0.97956  0.21242  1.0000
  H   H1554     1.0  0.71233  0.99698  0.29215  1.0000
  C   C889      1.0  0.89215  0.03423  0.32710  1.0000
  H   H1555     1.0  0.72240  0.00879  0.14103  1.0000
  H   H1556     1.0  0.54773  0.11149  0.27146  1.0000
  H   H1557     1.0  0.74841  0.99616  0.08484  1.0000
  H   H1558     1.0  0.74447  0.00336  0.19073  1.0000
  C   C890      1.0  0.58516  0.10979  0.31894  1.0000
  H   H1559     1.0  0.54145  0.05484  0.45137  1.0000
  H   H1560     1.0  0.57088  0.13352  0.01391  1.0000
  H   H1561     1.0  0.82281  0.02108  0.43283  1.0000
  H   H1562     1.0  0.92603  0.00563  0.39805  1.0000
  N   N51       1.0  0.71741  0.04367  0.29869  1.0000
  C   C891      1.0  0.70965  0.04776  0.26524  1.0000
  C   C892      1.0  0.71944  0.02676  0.30359  1.0000
  C   C893      1.0  0.69369  0.05102  0.31945  1.0000
  C   C894      1.0  0.74714  0.04906  0.30665  1.0000
  C   C895      1.0  0.77309  0.04558  0.28321  1.0000
  C   C896      1.0  0.70821  0.06478  0.25549  1.0000
  C   C897      1.0  0.69637  0.04654  0.35470  1.0000
  C   C898      1.0  0.68998  0.01917  0.30004  1.0000
  H   H1563     1.0  0.53002  0.14228  0.23524  1.0000
  C   C899      1.0  0.80254  0.05025  0.29513  1.0000
  C   C900      1.0  0.70641  0.06731  0.22019  1.0000
  C   C901      1.0  0.67218  0.05518  0.37359  1.0000
  H   H1564     1.0  0.68734  0.04414  0.25995  1.0000
  H   H1565     1.0  0.72545  0.04147  0.24935  1.0000
  H   H1566     1.0  0.73586  0.02143  0.28702  1.0000
  H   H1567     1.0  0.72834  0.02328  0.32695  1.0000
  H   H1568     1.0  0.67100  0.04886  0.31188  1.0000
  H   H1569     1.0  0.69414  0.06347  0.31723  1.0000
  H   H1570     1.0  0.74517  0.06140  0.30973  1.0000
  H   H1571     1.0  0.75466  0.04398  0.32957  1.0000
  H   H1572     1.0  0.76885  0.05179  0.26050  1.0000
  H   H1573     1.0  0.77604  0.03343  0.27913  1.0000
  H   H1574     1.0  0.68804  0.07074  0.26588  1.0000
  H   H1575     1.0  0.72803  0.07012  0.26302  1.0000
  H   H1576     1.0  0.71822  0.04912  0.36364  1.0000
  H   H1577     1.0  0.69401  0.03436  0.35945  1.0000
  H   H1578     1.0  0.67225  0.02369  0.31604  1.0000
  H   H1579     1.0  0.68180  0.02082  0.27589  1.0000
  H   H1580     1.0  0.53916  0.04584  0.36830  1.0000
  H   H1581     1.0  0.89706  0.98888  0.34803  1.0000
  C   C902      1.0  0.60088  0.02069  0.04752  1.0000
  H   H1582     1.0  0.82025  0.04821  0.27720  1.0000
  H   H1583     1.0  0.80060  0.06241  0.29971  1.0000
  H   H1584     1.0  0.80915  0.04358  0.31678  1.0000
  H   H1585     1.0  0.72719  0.06237  0.20902  1.0000
  H   H1586     1.0  0.68694  0.06212  0.21115  1.0000
  H   H1587     1.0  0.70401  0.07956  0.21380  1.0000
  H   H1588     1.0  0.64956  0.05273  0.36644  1.0000
  H   H1589     1.0  0.67473  0.05176  0.39862  1.0000
  H   H1590     1.0  0.67431  0.06747  0.37083  1.0000
  C   C903      1.0  0.53091  0.10859  0.33265  1.0000
  H   H1591     1.0  0.89692  0.01064  0.31621  1.0000
  H   H1592     1.0  0.62211  0.08350  0.33491  1.0000
  H   H1593     1.0  0.89123  0.01457  0.43272  1.0000
  H   H1594     1.0  0.53060  0.16111  0.03380  1.0000
  H   H1595     1.0  0.72322  0.98288  0.04495  1.0000
  C   C904      1.0  0.56984  0.02629  0.06083  1.0000
  N   N52       1.0  0.55446  0.11806  0.31850  1.0000
  C   C905      1.0  0.56538  0.13304  0.26656  1.0000
  H   H1596     1.0  0.62681  0.02930  0.08391  1.0000
  H   H1597     1.0  0.54579  0.14642  0.40952  1.0000
  H   H1598     1.0  0.54912  0.08639  0.31743  1.0000
  S   S194      1.0  0.64400  0.08499  0.01307  1.0000
  H   H1599     1.0  0.86072  0.01757  0.32741  1.0000
  H   H1600     1.0  0.68852  0.99406  0.05251  1.0000
  H   H1601     1.0  0.53478  0.10591  0.35769  1.0000
  H   H1602     1.0  0.50672  0.05754  0.40814  1.0000
  C   C906      1.0  0.72373  0.99624  0.08589  1.0000
  H   H1603     1.0  0.52262  0.13057  0.37387  1.0000
  H   H1604     1.0  0.55279  0.12640  0.22082  1.0000
  C   C907      1.0  0.85104  0.99125  0.36251  1.0000
  H   H1605     1.0  0.98091  0.01943  0.36851  1.0000
  H   H1606     1.0  0.89207  0.98874  0.38876  1.0000
  H   H1607     1.0  0.50842  0.05562  0.05794  1.0000
  H   H1608     1.0  0.97509  0.97674  0.22107  1.0000
  H   H1609     1.0  0.54007  0.97703  0.02391  1.0000
  C   C908      1.0  0.75829  0.98329  0.14363  1.0000
  H   H1610     1.0  0.52255  0.12652  0.28355  1.0000
  S   S195      1.0  0.51824  0.12248  0.45943  1.0000
  H   H1611     1.0  0.51206  0.19928  0.48398  1.0000
  C   C909      1.0  0.51845  0.04635  0.41425  1.0000
  H   H1612     1.0  0.52241  0.22183  0.37969  1.0000
  H   H1613     1.0  0.51911  0.09527  0.29377  1.0000
  H   H1614     1.0  0.69033  0.97604  0.17351  1.0000
  H   H1615     1.0  0.51064  0.07536  0.45244  1.0000
  H   H1616     1.0  0.56414  0.01507  0.00181  1.0000
  H   H1617     1.0  0.51287  0.08164  0.36044  1.0000
  H   H1618     1.0  0.52541  0.21655  0.49552  1.0000
  C   C910      1.0  0.95382  0.98109  0.17759  1.0000
  S   S196      1.0  0.72472  0.06357  0.00255  1.0000
  H   H1619     1.0  0.50871  0.11518  0.33159  1.0000
  H   H1620     1.0  0.95652  0.97904  0.15260  1.0000
  H   H1621     1.0  0.61294  0.02332  0.49798  1.0000
  H   H1622     1.0  0.56257  0.04702  0.49851  1.0000
  H   H1623     1.0  0.90482  0.09390  0.67878  1.0000
  H   H1624     1.0  0.77292  0.21041  0.74982  1.0000
  H   H1625     1.0  0.88342  0.07490  0.88608  1.0000
  H   H1626     1.0  0.89180  0.06976  0.81704  1.0000
  Fe  Fe99      1.0  0.71956  0.05127  0.95898  1.0000
  S   S197      1.0  0.74884  0.05169  0.91508  1.0000
  C   C911      1.0  0.53119  0.18071  0.97127  1.0000
  H   H1627     1.0  0.68068  0.00907  0.87042  1.0000
  H   H1628     1.0  0.55271  0.12858  0.91160  1.0000
  S   S198      1.0  0.65171  0.02044  0.55117  1.0000
  H   H1629     1.0  0.99939  0.09628  0.77800  1.0000
  S   S199      1.0  0.69379  0.08690  0.55172  1.0000
  C   C912      1.0  0.00084  0.08020  0.64811  1.0000
  H   H1630     1.0  0.80908  0.19840  0.71288  1.0000
  Fe  Fe100     1.0  0.77881  0.10382  0.76526  1.0000
  S   S200      1.0  0.76200  0.11318  0.71860  1.0000
  S   S201      1.0  0.74321  0.10118  0.80293  1.0000
  Fe  Fe101     1.0  0.84479  0.10359  0.74446  1.0000
  S   S202      1.0  0.83258  0.11298  0.69657  1.0000
  S   S203      1.0  0.89220  0.09463  0.75880  1.0000
  Fe  Fe102     1.0  0.79867  0.12859  0.72073  1.0000
  S   S204      1.0  0.79156  0.15312  0.70371  1.0000
  Fe  Fe103     1.0  0.79662  0.09687  0.69816  1.0000
  S   S205      1.0  0.79210  0.08192  0.65753  1.0000
  S   S206      1.0  0.81352  0.12045  0.76875  1.0000
  S   S207      1.0  0.81084  0.08627  0.74476  1.0000
  C   C913      1.0  0.92526  0.10415  0.76094  1.0000
  C   C914      1.0  0.92551  0.11966  0.75454  1.0000
  C   C915      1.0  0.95236  0.12668  0.75643  1.0000
  H   H1631     1.0  0.77702  0.14788  0.61391  1.0000
  C   C916      1.0  0.97900  0.10282  0.77112  1.0000
  C   C917      1.0  0.95213  0.09581  0.76944  1.0000
  H   H1632     1.0  0.90505  0.12626  0.74811  1.0000
  H   H1633     1.0  0.95228  0.13869  0.75149  1.0000
  H   H1634     1.0  0.63794  0.07760  0.57593  1.0000
  H   H1635     1.0  0.95220  0.08383  0.77469  1.0000
  C   C918      1.0  0.76333  0.16495  0.72121  1.0000
  C   C919      1.0  0.75813  0.17998  0.70995  1.0000
  H   H1636     1.0  0.68148  0.12406  0.54297  1.0000
  C   C920      1.0  0.72497  0.16960  0.76080  1.0000
  C   C921      1.0  0.74641  0.15975  0.74644  1.0000
  H   H1637     1.0  0.77096  0.18404  0.69025  1.0000
  H   H1638     1.0  0.71232  0.16555  0.78068  1.0000
  H   H1639     1.0  0.75025  0.14819  0.75533  1.0000
  C   C922      1.0  0.72099  0.08511  0.58131  1.0000
  C   C923      1.0  0.74879  0.07717  0.57711  1.0000
  C   C924      1.0  0.77018  0.07628  0.60075  1.0000
  C   C925      1.0  0.76426  0.08349  0.62866  1.0000
  C   C926      1.0  0.73634  0.09134  0.63305  1.0000
  C   C927      1.0  0.71485  0.09214  0.60945  1.0000
  H   H1640     1.0  0.75394  0.07182  0.55549  1.0000
  H   H1641     1.0  0.79164  0.07010  0.59721  1.0000
  H   H1642     1.0  0.73124  0.09659  0.65476  1.0000
  H   H1643     1.0  0.69325  0.09810  0.61311  1.0000
  C   C928      1.0  0.74683  0.06561  0.88424  1.0000
  C   C929      1.0  0.72568  0.07801  0.88410  1.0000
  C   C930      1.0  0.72470  0.08875  0.85889  1.0000
  C   C931      1.0  0.74498  0.08726  0.83379  1.0000
  C   C932      1.0  0.76601  0.07480  0.83384  1.0000
  C   C933      1.0  0.76689  0.06402  0.85896  1.0000
  H   H1644     1.0  0.71027  0.07939  0.90351  1.0000
  H   H1645     1.0  0.70835  0.09837  0.85901  1.0000
  H   H1646     1.0  0.78128  0.07340  0.81433  1.0000
  H   H1647     1.0  0.78316  0.05437  0.85881  1.0000
  C   C934      1.0  0.56098  0.01576  0.92961  1.0000
  C   C935      1.0  0.57533  0.02862  0.93566  1.0000
  C   C936      1.0  0.60261  0.02732  0.95138  1.0000
  C   C937      1.0  0.61569  0.01312  0.96106  1.0000
  C   C938      1.0  0.60163  0.00025  0.95446  1.0000
  C   C939      1.0  0.57429  0.00156  0.93886  1.0000
  H   H1648     1.0  0.56517  0.03963  0.92836  1.0000
  H   H1649     1.0  0.61320  0.03730  0.95649  1.0000
  C   C940      1.0  0.55705  0.00669  0.53789  1.0000
  H   H1650     1.0  0.52457  0.04036  0.97562  1.0000
  H   H1651     1.0  0.72398  0.20919  0.84500  1.0000
  C   C941      1.0  0.61510  0.01542  0.54603  1.0000
  C   C942      1.0  0.59977  0.00848  0.57082  1.0000
  C   C943      1.0  0.57064  0.00427  0.56687  1.0000
  H   H1652     1.0  0.69779  0.00205  0.93695  1.0000
  H   H1653     1.0  0.61041  0.00637  0.59311  1.0000
  H   H1654     1.0  0.51478  0.06721  0.96074  1.0000
  H   H1655     1.0  0.98799  0.07034  0.65441  1.0000
  H   H1656     1.0  0.69983  0.02687  0.59079  1.0000
  H   H1657     1.0  0.54153  0.06496  0.49998  1.0000
  C   C944      1.0  0.51629  0.19531  0.95629  1.0000
  H   H1658     1.0  0.84843  0.08931  0.80879  1.0000
  C   C945      1.0  0.80709  0.15934  0.79636  1.0000
  H   H1659     1.0  0.81683  0.18262  0.75355  1.0000
  H   H1660     1.0  0.59542  0.01282  0.82900  1.0000
  H   H1661     1.0  0.82733  0.07970  0.83701  1.0000
  C   C946      1.0  0.96640  0.09398  0.68344  1.0000
  H   H1662     1.0  0.81772  0.15115  0.81395  1.0000
  H   H1663     1.0  0.78251  0.15911  0.79880  1.0000
  H   H1664     1.0  0.81434  0.15579  0.77288  1.0000
  H   H1665     1.0  0.55888  0.99900  0.58610  1.0000
  C   C947      1.0  0.71578  0.00489  0.92017  1.0000
  H   H1666     1.0  0.52557  0.15102  0.93913  1.0000
  S   S208      1.0  0.71268  0.04614  0.51792  1.0000
  H   H1667     1.0  0.91269  0.11203  0.69183  1.0000
  H   H1668     1.0  0.85555  0.19817  0.76326  1.0000
  H   H1669     1.0  0.66954  0.14471  0.72345  1.0000
  C   C948      1.0  0.79462  0.20802  0.80909  1.0000
  H   H1670     1.0  0.72317  0.19018  0.60833  1.0000
  C   C949      1.0  0.74785  0.21152  0.84287  1.0000
  H   H1671     1.0  0.61174  0.98923  0.96179  1.0000
  S   S209      1.0  0.72298  0.02878  0.98500  1.0000
  C   C950      1.0  0.68602  0.13491  0.72015  1.0000
  H   H1672     1.0  0.95656  0.08319  0.68962  1.0000
  H   H1673     1.0  0.76963  0.02098  0.59879  1.0000
  H   H1674     1.0  0.98516  0.12144  0.69133  1.0000
  S   S210      1.0  0.64246  0.06038  0.51624  1.0000
  H   H1675     1.0  0.84687  0.11542  0.84075  1.0000
  C   C951      1.0  0.69909  0.05005  0.65272  1.0000
  C   C952      1.0  0.71816  0.04063  0.67742  1.0000
  C   C953      1.0  0.73397  0.05083  0.69793  1.0000
  H   H1676     1.0  0.71256  0.05893  0.64194  1.0000
  H   H1677     1.0  0.68103  0.05636  0.66587  1.0000
  H   H1678     1.0  0.79552  0.12966  0.84631  1.0000
  H   H1679     1.0  0.70358  0.03391  0.69271  1.0000
  H   H1680     1.0  0.65517  0.07247  0.63048  1.0000
  H   H1681     1.0  0.71756  0.05884  0.70939  1.0000
  H   H1682     1.0  0.74671  0.04392  0.71620  1.0000
  H   H1683     1.0  0.74993  0.05732  0.68381  1.0000
  C   C954      1.0  0.70997  0.03210  0.61052  1.0000
  C   C955      1.0  0.73676  0.04044  0.59752  1.0000
  C   C956      1.0  0.53604  0.14638  0.96125  1.0000
  C   C957      1.0  0.67815  0.01935  0.88413  1.0000
  H   H1684     1.0  0.73563  0.03295  0.66676  1.0000
  H   H1685     1.0  0.55831  0.11085  0.93368  1.0000
  H   H1686     1.0  0.72932  0.04937  0.58007  1.0000
  H   H1687     1.0  0.78543  0.11338  0.61268  1.0000
  C   C958      1.0  0.67256  0.01500  0.65123  1.0000
  C   C959      1.0  0.67430  0.12731  0.56667  1.0000
  H   H1688     1.0  0.75865  0.19261  0.81512  1.0000
  C   C960      1.0  0.70065  0.13286  0.58340  1.0000
  H   H1689     1.0  0.85409  0.06490  0.77936  1.0000
  H   H1690     1.0  0.72834  0.15871  0.59662  1.0000
  H   H1691     1.0  0.74841  0.04556  0.61623  1.0000
  H   H1692     1.0  0.75833  0.13661  0.58878  1.0000
  H   H1693     1.0  0.70746  0.14288  0.56972  1.0000
  H   H1694     1.0  0.71906  0.12375  0.58306  1.0000
  C   C961      1.0  0.72009  0.18471  0.74991  1.0000
  H   H1695     1.0  0.70418  0.02863  0.91996  1.0000
  C   C962      1.0  0.73646  0.18981  0.72410  1.0000
  H   H1696     1.0  0.66612  0.11727  0.57933  1.0000
  S   S211      1.0  0.66943  0.05310  0.96106  1.0000
  C   C963      1.0  0.69218  0.13630  0.61744  1.0000
  C   C964      1.0  0.54325  0.05324  0.50994  1.0000
  H   H1697     1.0  0.68857  0.12513  0.62888  1.0000
  C   C965      1.0  0.64532  0.06344  0.61836  1.0000
  H   H1698     1.0  0.60751  0.07871  0.60359  1.0000
  H   H1699     1.0  0.79525  0.22039  0.81018  1.0000
  C   C966      1.0  0.53228  0.06361  0.97807  1.0000
  Fe  Fe104     1.0  0.68806  0.06906  0.51658  1.0000
  C   C967      1.0  0.88622  0.22036  0.78699  1.0000
  H   H1700     1.0  0.75530  0.16434  0.64858  1.0000
  C   C968      1.0  0.94554  0.10250  0.65887  1.0000
  H   H1701     1.0  0.73262  0.20135  0.71526  1.0000
  C   C969      1.0  0.68809  0.04367  0.80900  1.0000
  H   H1702     1.0  0.69497  0.16543  0.61512  1.0000
  H   H1703     1.0  0.83183  0.05630  0.80987  1.0000
  C   C970      1.0  0.69096  0.13229  0.68559  1.0000
  H   H1704     1.0  0.54856  0.17609  0.95493  1.0000
  H   H1705     1.0  0.67001  0.14294  0.61754  1.0000
  H   H1706     1.0  0.65481  0.99531  0.67397  1.0000
  H   H1707     1.0  0.67877  0.00863  0.63025  1.0000
  N   N53       1.0  0.68610  0.04140  0.62788  1.0000
  C   C971      1.0  0.62500  0.07096  0.59305  1.0000
  H   H1708     1.0  0.68675  0.06010  0.59340  1.0000
  C   C972      1.0  0.74336  0.18383  0.61840  1.0000
  S   S212      1.0  0.69430  0.19688  0.76999  1.0000
  C   C973      1.0  0.60124  0.01806  0.51725  1.0000
  C   C974      1.0  0.71744  0.15954  0.61980  1.0000
  H   H1709     1.0  0.72045  0.17459  0.65802  1.0000
  H   H1710     1.0  0.00183  0.10943  0.63911  1.0000
  C   C975      1.0  0.79342  0.12467  0.61524  1.0000
  N   N54       1.0  0.71429  0.14418  0.63533  1.0000
  H   H1711     1.0  0.86829  0.04778  0.79980  1.0000
  C   C976      1.0  0.67075  0.05268  0.60471  1.0000
  H   H1712     1.0  0.95294  0.11377  0.65219  1.0000
  C   C977      1.0  0.85481  0.05866  0.80237  1.0000
  C   C978      1.0  0.97934  0.11830  0.76444  1.0000
  H   H1713     1.0  0.64446  0.03081  0.62425  1.0000
  H   H1714     1.0  0.63092  0.05751  0.63521  1.0000
  H   H1715     1.0  0.93037  0.11895  0.82719  1.0000
  H   H1716     1.0  0.64900  0.01935  0.83080  1.0000
  H   H1717     1.0  0.55398  0.04191  0.55496  1.0000
  H   H1718     1.0  0.80417  0.12489  0.63815  1.0000
  C   C979      1.0  0.91358  0.10484  0.67155  1.0000
  H   H1719     1.0  0.87136  0.06060  0.84807  1.0000
  H   H1720     1.0  0.69195  0.01411  0.66689  1.0000
  H   H1721     1.0  0.75479  0.19146  0.63286  1.0000
  H   H1722     1.0  0.81040  0.12663  0.59676  1.0000
  H   H1723     1.0  0.73985  0.12259  0.64057  1.0000
  H   H1724     1.0  0.64551  0.04303  0.90204  1.0000
  S   S213      1.0  0.52635  0.01785  0.91084  1.0000
  H   H1725     1.0  0.57166  0.05906  0.54668  1.0000
  H   H1726     1.0  0.65570  0.13630  0.56449  1.0000
  C   C980      1.0  0.66255  0.03160  0.64140  1.0000
  H   H1727     1.0  0.58193  0.12561  0.94028  1.0000
  C   C981      1.0  0.86920  0.06773  0.82622  1.0000
  H   H1728     1.0  0.82613  0.07023  0.88426  1.0000
  H   H1729     1.0  0.77377  0.21975  0.69360  1.0000
  C   C982      1.0  0.53689  0.12899  0.95979  1.0000
  C   C983      1.0  0.74375  0.13472  0.63843  1.0000
  C   C984      1.0  0.76755  0.13688  0.61230  1.0000
  C   C985      1.0  0.85023  0.08275  0.83154  1.0000
  H   H1730     1.0  0.78116  0.18521  0.77093  1.0000
  H   H1731     1.0  0.56875  0.02042  0.85684  1.0000
  C   C986      1.0  0.83680  0.07697  0.90105  1.0000
  C   C987      1.0  0.84458  0.06654  0.92954  1.0000
  H   H1732     1.0  0.82036  0.08600  0.90893  1.0000
  C   C988      1.0  0.79680  0.21234  0.75258  1.0000
  S   S214      1.0  0.64871  0.01105  0.98270  1.0000
  H   H1733     1.0  0.66938  0.12940  0.67636  1.0000
  C   C989      1.0  0.64933  0.06108  0.86659  1.0000
  H   H1734     1.0  0.80281  0.10353  0.82896  1.0000
  H   H1735     1.0  0.71062  0.05369  0.76905  1.0000
  C   C990      1.0  0.86484  0.08394  0.88713  1.0000
  H   H1736     1.0  0.67751  0.12478  0.73215  1.0000
  C   C991      1.0  0.57253  0.01349  0.51310  1.0000
  H   H1737     1.0  0.56346  0.99158  0.93409  1.0000
  H   H1738     1.0  0.51993  0.03352  0.51463  1.0000
  H   H1739     1.0  0.90796  0.08697  0.84379  1.0000
  N   N55       1.0  0.86124  0.09239  0.85596  1.0000
  H   H1740     1.0  0.66160  0.04673  0.58538  1.0000
  C   C992      1.0  0.58881  0.02281  0.84261  1.0000
  H   H1741     1.0  0.58274  0.03267  0.82647  1.0000
  H   H1742     1.0  0.62944  0.08322  0.87744  1.0000
  N   N56       1.0  0.66909  0.03302  0.86307  1.0000
  C   C993      1.0  0.89152  0.09694  0.84512  1.0000
  H   H1743     1.0  0.87180  0.09148  0.90485  1.0000
  C   C994      1.0  0.80682  0.10551  0.85368  1.0000
  H   H1744     1.0  0.79797  0.09622  0.86800  1.0000
  H   H1745     1.0  0.91210  0.10261  0.88851  1.0000
  H   H1746     1.0  0.61805  0.01605  0.88017  1.0000
  C   C995      1.0  0.78850  0.12007  0.86139  1.0000
  H   H1747     1.0  0.88994  0.10221  0.82112  1.0000
  H   H1748     1.0  0.76450  0.11892  0.85720  1.0000
  C   C996      1.0  0.71620  0.04881  0.79267  1.0000
  H   H1749     1.0  0.75497  0.13683  0.66044  1.0000
  C   C997      1.0  0.81616  0.17508  0.80163  1.0000
  H   H1750     1.0  0.60597  0.03586  0.87736  1.0000
  C   C998      1.0  0.84066  0.10663  0.85855  1.0000
  C   C999      1.0  0.61405  0.02604  0.86390  1.0000
  H   H1751     1.0  0.89898  0.21448  0.76824  1.0000
  H   H1752     1.0  0.63049  0.05954  0.85123  1.0000
  C   C1000     1.0  0.63797  0.07258  0.89000  1.0000
  Fe  Fe105     1.0  0.66715  0.03762  0.51521  1.0000
  H   H1753     1.0  0.89134  0.11837  0.86883  1.0000
  H   H1754     1.0  0.70855  0.02527  0.83660  1.0000
  C   C1001     1.0  0.73471  0.17025  0.63858  1.0000
  C   C1002     1.0  0.90625  0.10803  0.86539  1.0000
  H   H1755     1.0  0.84330  0.11151  0.88149  1.0000
  H   H1756     1.0  0.65126  0.03679  0.66190  1.0000
  H   H1757     1.0  0.68162  0.15503  0.66650  1.0000
  H   H1758     1.0  0.84089  0.17429  0.80271  1.0000
  C   C1003     1.0  0.64259  0.02931  0.84475  1.0000
  N   N57       1.0  0.80992  0.20272  0.77966  1.0000
  C   C1004     1.0  0.70732  0.01993  0.90259  1.0000
  C   C1005     1.0  0.84300  0.20410  0.78217  1.0000
  H   H1759     1.0  0.80686  0.17833  0.82454  1.0000
  C   C1006     1.0  0.80511  0.18650  0.77501  1.0000
  C   C1007     1.0  0.51432  0.04528  0.50539  1.0000
  H   H1760     1.0  0.79103  0.12244  0.88619  1.0000
  H   H1761     1.0  0.63558  0.03852  0.82748  1.0000
  C   C1008     1.0  0.93510  0.11287  0.84999  1.0000
  H   H1762     1.0  0.61955  0.06830  0.90458  1.0000
  H   H1763     1.0  0.77801  0.03608  0.57139  1.0000
  H   H1764     1.0  0.94572  0.12052  0.86507  1.0000
  H   H1765     1.0  0.75887  0.18018  0.59936  1.0000
  C   C1009     1.0  0.76131  0.20487  0.81329  1.0000
  N   N58       1.0  0.52024  0.15335  0.98896  1.0000
  H   H1766     1.0  0.85153  0.19828  0.80413  1.0000
  H   H1767     1.0  0.72653  0.02250  0.88729  1.0000
  C   C1010     1.0  0.69525  0.03601  0.84156  1.0000
  H   H1768     1.0  0.74937  0.02405  0.56276  1.0000
  H   H1769     1.0  0.65631  0.07512  0.90530  1.0000
  H   H1770     1.0  0.66057  0.01737  0.90208  1.0000
  H   H1771     1.0  0.89883  0.11052  0.65331  1.0000
  H   H1772     1.0  0.95116  0.10295  0.84626  1.0000
  H   H1773     1.0  0.66750  0.06606  0.85280  1.0000
  H   H1774     1.0  0.70757  0.12250  0.68335  1.0000
  H   H1775     1.0  0.67860  0.03552  0.79412  1.0000
  H   H1776     1.0  0.72549  0.05763  0.80585  1.0000
  H   H1777     1.0  0.71781  0.15121  0.68245  1.0000
  C   C1011     1.0  0.70125  0.14650  0.66754  1.0000
  H   H1778     1.0  0.71102  0.04285  0.85317  1.0000
  H   H1779     1.0  0.80677  0.20314  0.83004  1.0000
  H   H1780     1.0  0.55429  0.06260  0.96581  1.0000
  H   H1781     1.0  0.68184  0.04883  0.89553  1.0000
  H   H1782     1.0  0.00128  0.22342  0.87439  1.0000
  H   H1783     1.0  0.53246  0.07237  0.99542  1.0000
  C   C1012     1.0  0.66157  0.04611  0.88327  1.0000
  H   H1784     1.0  0.61391  0.06234  0.58095  1.0000
  H   H1785     1.0  0.70735  0.13696  0.73109  1.0000
  H   H1786     1.0  0.73339  0.03921  0.79053  1.0000
  H   H1787     1.0  0.53325  0.20350  0.95136  1.0000
  H   H1788     1.0  0.82391  0.06198  0.93929  1.0000
  H   H1789     1.0  0.67177  0.05361  0.81018  1.0000
  H   H1790     1.0  0.99005  0.08555  0.62679  1.0000
  H   H1791     1.0  0.62754  0.00755  0.65272  1.0000
  H   H1792     1.0  0.57826  0.22272  0.87707  1.0000
  C   C1013     1.0  0.55881  0.12322  0.93474  1.0000
  H   H1793     1.0  0.64067  0.01285  0.68976  1.0000
  C   C1014     1.0  0.55066  0.05355  0.54435  1.0000
  C   C1015     1.0  0.64728  0.00726  0.66796  1.0000
  C   C1016     1.0  0.75978  0.02967  0.58168  1.0000
  H   H1794     1.0  0.85464  0.07274  0.94779  1.0000
  C   C1017     1.0  0.81193  0.20985  0.72038  1.0000
  H   H1795     1.0  0.71999  0.02256  0.62538  1.0000
  H   H1796     1.0  0.86035  0.05691  0.92306  1.0000
  H   H1797     1.0  0.96437  0.10026  0.70506  1.0000
  H   H1798     1.0  0.53354  0.98996  0.99071  1.0000
  S   S215      1.0  0.52070  0.00157  0.53150  1.0000
  H   H1799     1.0  0.55944  0.14961  0.95955  1.0000
  H   H1800     1.0  0.74789  0.20996  0.79353  1.0000
  H   H1801     1.0  0.94488  0.09603  0.63767  1.0000
  H   H1802     1.0  0.53253  0.05999  0.55706  1.0000
  S   S216      1.0  0.50873  0.97838  0.87413  1.0000
  C   C1018     1.0  0.52571  0.04852  0.99402  1.0000
  H   H1803     1.0  0.73653  0.00567  0.93336  1.0000
  Fe  Fe106     1.0  0.67339  0.03153  0.99009  1.0000
  H   H1804     1.0  0.71985  0.99575  0.90376  1.0000
  H   H1805     1.0  0.98482  0.06956  0.72378  1.0000
  H   H1806     1.0  0.51449  0.12567  0.95402  1.0000
  C   C1019     1.0  0.85266  0.22036  0.78199  1.0000
  H   H1807     1.0  0.54212  0.18373  0.99271  1.0000
  H   H1808     1.0  0.52566  0.98032  0.74920  1.0000
  H   H1809     1.0  0.80895  0.21912  0.67276  1.0000
  H   H1810     1.0  0.83615  0.21129  0.72065  1.0000
  H   H1811     1.0  0.54341  0.12297  0.98204  1.0000
  H   H1812     1.0  0.75973  0.20636  0.86369  1.0000
  H   H1813     1.0  0.89252  0.21475  0.80986  1.0000
  N   N59       1.0  0.99875  0.09109  0.67382  1.0000
  Fe  Fe107     1.0  0.68648  0.22188  0.75715  1.0000
  H   H1814     1.0  0.51761  0.22057  0.83420  1.0000
  C   C1020     1.0  0.79800  0.22110  0.69566  1.0000
  C   C1021     1.0  0.50793  0.16918  0.97938  1.0000
  H   H1815     1.0  0.50633  0.21389  0.88981  1.0000
  H   H1816     1.0  0.74904  0.22390  0.84195  1.0000
  H   H1817     1.0  0.95246  0.29241  0.20041  1.0000
  H   H1818     1.0  0.92488  0.32804  0.32964  1.0000
  H   H1819     1.0  0.60255  0.41249  0.29295  1.0000
  S   S217      1.0  0.55382  0.27956  0.25157  1.0000
  C   C1022     1.0  0.54034  0.32307  0.18382  1.0000
  H   H1820     1.0  0.52738  0.30112  0.19668  1.0000
  C   C1023     1.0  0.86352  0.31517  0.23718  1.0000
  C   C1024     1.0  0.53982  0.30176  0.14709  1.0000
  H   H1821     1.0  0.73062  0.24592  0.37438  1.0000
  C   C1025     1.0  0.76082  0.28256  0.29473  1.0000
  H   H1822     1.0  0.74538  0.26766  0.26110  1.0000
  C   C1026     1.0  0.63139  0.42448  0.32067  1.0000
  H   H1823     1.0  0.85817  0.35134  0.25779  1.0000
  C   C1027     1.0  0.85690  0.36481  0.21513  1.0000
  C   C1028     1.0  0.53030  0.27596  0.16256  1.0000
  H   H1824     1.0  0.84096  0.27931  0.25680  1.0000
  S   S218      1.0  0.96900  0.30309  0.05502  1.0000
  H   H1825     1.0  0.56684  0.30195  0.18937  1.0000
  Fe  Fe108     1.0  0.62878  0.45579  0.23893  1.0000
  S   S219      1.0  0.63416  0.43144  0.22535  1.0000
  H   H1826     1.0  0.89992  0.30294  0.19211  1.0000
  S   S220      1.0  0.60973  0.46294  0.28510  1.0000
  Fe  Fe109     1.0  0.71529  0.32788  0.25531  1.0000
  S   S221      1.0  0.72874  0.33663  0.30088  1.0000
  S   S222      1.0  0.67727  0.31193  0.25225  1.0000
  Fe  Fe110     1.0  0.76690  0.34268  0.21956  1.0000
  S   S223      1.0  0.78271  0.35240  0.26260  1.0000
  S   S224      1.0  0.79115  0.35037  0.17519  1.0000
  Fe  Fe111     1.0  0.77655  0.33009  0.28675  1.0000
  S   S225      1.0  0.81365  0.31681  0.31525  1.0000
  Fe  Fe112     1.0  0.73419  0.35834  0.27302  1.0000
  S   S226      1.0  0.72375  0.38150  0.29156  1.0000
  S   S227      1.0  0.76311  0.31978  0.24288  1.0000
  S   S228      1.0  0.71828  0.35019  0.22834  1.0000
  Fe  Fe113     1.0  0.93751  0.33084  0.44752  1.0000
  S   S229      1.0  0.89651  0.34032  0.41914  1.0000
  Fe  Fe114     1.0  0.93718  0.32167  0.07333  1.0000
  S   S230      1.0  0.89948  0.31423  0.10579  1.0000
  S   S231      1.0  0.93529  0.33453  0.02674  1.0000
  C   C1029     1.0  0.82159  0.34024  0.15657  1.0000
  C   C1030     1.0  0.84034  0.34801  0.13600  1.0000
  C   C1031     1.0  0.86454  0.34032  0.12052  1.0000
  C   C1032     1.0  0.86986  0.32470  0.12501  1.0000
  C   C1033     1.0  0.85099  0.31695  0.14547  1.0000
  C   C1034     1.0  0.82707  0.32466  0.16124  1.0000
  H   H1827     1.0  0.83618  0.36005  0.13204  1.0000
  H   H1828     1.0  0.87880  0.34642  0.10479  1.0000
  H   H1829     1.0  0.85478  0.30486  0.14892  1.0000
  H   H1830     1.0  0.81256  0.31850  0.17656  1.0000
  C   C1035     1.0  0.83687  0.32363  0.34364  1.0000
  C   C1036     1.0  0.83253  0.33832  0.35355  1.0000
  C   C1037     1.0  0.85093  0.34313  0.37666  1.0000
  C   C1038     1.0  0.87412  0.33342  0.39006  1.0000
  C   C1039     1.0  0.87868  0.31876  0.37987  1.0000
  C   C1040     1.0  0.86012  0.31391  0.35689  1.0000
  H   H1831     1.0  0.81478  0.34595  0.34371  1.0000
  H   H1832     1.0  0.84713  0.35448  0.38427  1.0000
  H   H1833     1.0  0.89636  0.31114  0.38988  1.0000
  H   H1834     1.0  0.86374  0.30252  0.34951  1.0000
  H   H1835     1.0  0.54564  0.27176  0.10035  1.0000
  H   H1836     1.0  0.64358  0.31614  0.31932  1.0000
  C   C1041     1.0  0.95261  0.43187  0.01245  1.0000
  H   H1837     1.0  0.59488  0.41078  0.33419  1.0000
  H   H1838     1.0  0.93714  0.32329  0.22893  1.0000
  C   C1042     1.0  0.66050  0.41776  0.24224  1.0000
  C   C1043     1.0  0.65826  0.40251  0.23707  1.0000
  C   C1044     1.0  0.67811  0.39126  0.25125  1.0000
  C   C1045     1.0  0.70001  0.39521  0.27113  1.0000
  C   C1046     1.0  0.70274  0.41046  0.27565  1.0000
  C   C1047     1.0  0.68340  0.42173  0.26082  1.0000
  H   H1839     1.0  0.64070  0.39936  0.22251  1.0000
  H   H1840     1.0  0.67576  0.37953  0.24769  1.0000
  H   H1841     1.0  0.71995  0.41350  0.29071  1.0000
  H   H1842     1.0  0.68573  0.43348  0.26419  1.0000
  S   S232      1.0  0.97938  0.37082  0.03899  1.0000
  H   H1843     1.0  0.69206  0.30314  0.36877  1.0000
  H   H1844     1.0  0.74781  0.27242  0.36438  1.0000
  H   H1845     1.0  0.71116  0.45649  0.35415  1.0000
  H   H1846     1.0  0.83666  0.34446  0.22758  1.0000
  C   C1048     1.0  0.74977  0.29993  0.35022  1.0000
  S   S233      1.0  0.97373  0.33431  0.09140  1.0000
  C   C1049     1.0  0.94721  0.30268  0.18513  1.0000
  H   H1847     1.0  0.58362  0.42812  0.31195  1.0000
  C   C1050     1.0  0.77629  0.31071  0.39446  1.0000
  H   H1848     1.0  0.75295  0.28608  0.24495  1.0000
  C   C1051     1.0  0.69576  0.30100  0.34380  1.0000
  C   C1052     1.0  0.00222  0.39240  0.00013  1.0000
  H   H1849     1.0  0.75312  0.45204  0.31879  1.0000
  C   C1053     1.0  0.58687  0.28967  0.25174  1.0000
  C   C1054     1.0  0.58675  0.30518  0.25624  1.0000
  C   C1055     1.0  0.61402  0.31228  0.25620  1.0000
  C   C1056     1.0  0.64173  0.30396  0.25164  1.0000
  C   C1057     1.0  0.64152  0.28855  0.24698  1.0000
  C   C1058     1.0  0.61458  0.28153  0.24704  1.0000
  H   H1850     1.0  0.56573  0.31169  0.26002  1.0000
  H   H1851     1.0  0.61359  0.32417  0.25995  1.0000
  H   H1852     1.0  0.66246  0.28192  0.24343  1.0000
  C   C1059     1.0  0.68092  0.44129  0.33417  1.0000
  H   H1853     1.0  0.98379  0.37200  0.39466  1.0000
  H   H1854     1.0  0.55734  0.32866  0.16940  1.0000
  H   H1855     1.0  0.83522  0.29022  0.22058  1.0000
  H   H1856     1.0  0.63655  0.31009  0.35943  1.0000
  C   C1060     1.0  0.72965  0.28981  0.30442  1.0000
  H   H1857     1.0  0.60737  0.46990  0.43382  1.0000
  C   C1061     1.0  0.91836  0.31598  0.22850  1.0000
  C   C1062     1.0  0.63035  0.45387  0.40349  1.0000
  H   H1858     1.0  0.87685  0.37065  0.22057  1.0000
  H   H1859     1.0  0.84773  0.47308  0.48036  1.0000
  C   C1063     1.0  0.86640  0.29890  0.25196  1.0000
  C   C1064     1.0  0.70105  0.40199  0.39898  1.0000
  H   H1860     1.0  0.96553  0.31022  0.18615  1.0000
  H   H1861     1.0  0.93935  0.33387  0.27409  1.0000
  H   H1862     1.0  0.86890  0.29898  0.27753  1.0000
  C   C1065     1.0  0.83852  0.29090  0.24595  1.0000
  H   H1863     1.0  0.88578  0.29212  0.24215  1.0000
  C   C1066     1.0  0.53330  0.25877  0.15866  1.0000
  H   H1864     1.0  0.59923  0.27361  0.10112  1.0000
  C   C1067     1.0  0.89370  0.32654  0.27467  1.0000
  C   C1068     1.0  0.64005  0.30628  0.33543  1.0000
  H   H1865     1.0  0.58560  0.27899  0.17036  1.0000
  H   H1866     1.0  0.64058  0.25674  0.12278  1.0000
  S   S234      1.0  0.97925  0.34323  0.44083  1.0000
  H   H1867     1.0  0.96805  0.39122  0.39527  1.0000
  H   H1868     1.0  0.77430  0.31369  0.41915  1.0000
  H   H1869     1.0  0.55191  0.29777  0.03187  1.0000
  H   H1870     1.0  0.77161  0.29319  0.34776  1.0000
  H   H1871     1.0  0.59342  0.29224  0.14006  1.0000
  H   H1872     1.0  0.53667  0.27730  0.18699  1.0000
  H   H1873     1.0  0.61453  0.44375  0.34434  1.0000
  H   H1874     1.0  0.72931  0.31345  0.38757  1.0000
  H   H1875     1.0  0.57344  0.29628  0.08500  1.0000
  S   S235      1.0  0.96250  0.30789  0.44800  1.0000
  H   H1876     1.0  0.75189  0.31041  0.33549  1.0000
  H   H1877     1.0  0.85610  0.36357  0.18966  1.0000
  H   H1878     1.0  0.52420  0.45666  0.25938  1.0000
  H   H1879     1.0  0.00147  0.33099  0.15955  1.0000
  H   H1880     1.0  0.93517  0.34701  0.32291  1.0000
  H   H1881     1.0  0.94587  0.29926  0.16078  1.0000
  H   H1882     1.0  0.78037  0.32104  0.38003  1.0000
  H   H1883     1.0  0.76864  0.27306  0.31102  1.0000
  C   C1069     1.0  0.53860  0.28326  0.10757  1.0000
  H   H1884     1.0  0.71241  0.28339  0.29449  1.0000
  C   C1070     1.0  0.62319  0.46993  0.41372  1.0000
  N   N60       1.0  0.73481  0.39984  0.16927  1.0000
  C   C1071     1.0  0.72477  0.38410  0.17136  1.0000
  C   C1072     1.0  0.74870  0.40324  0.19956  1.0000
  C   C1073     1.0  0.70733  0.41065  0.16408  1.0000
  C   C1074     1.0  0.75595  0.40226  0.14214  1.0000
  C   C1075     1.0  0.78487  0.39160  0.14118  1.0000
  C   C1076     1.0  0.70928  0.37911  0.14225  1.0000
  C   C1077     1.0  0.71104  0.42752  0.16907  1.0000
  C   C1078     1.0  0.76703  0.39011  0.21757  1.0000
  C   C1079     1.0  0.78458  0.39590  0.24382  1.0000
  C   C1080     1.0  0.80199  0.39395  0.11053  1.0000
  C   C1081     1.0  0.70088  0.36292  0.14707  1.0000
  C   C1082     1.0  0.68494  0.43770  0.15539  1.0000
  H   H1885     1.0  0.70914  0.38285  0.19158  1.0000
  H   H1886     1.0  0.74369  0.37556  0.17622  1.0000
  H   H1887     1.0  0.76290  0.41282  0.19587  1.0000
  H   H1888     1.0  0.73096  0.40702  0.21647  1.0000
  H   H1889     1.0  0.68871  0.40743  0.17986  1.0000
  H   H1890     1.0  0.69891  0.41002  0.14010  1.0000
  H   H1891     1.0  0.74423  0.40168  0.11977  1.0000
  H   H1892     1.0  0.76335  0.41382  0.14152  1.0000
  H   H1893     1.0  0.78006  0.37964  0.14326  1.0000
  H   H1894     1.0  0.79992  0.39400  0.16004  1.0000
  H   H1895     1.0  0.68841  0.38631  0.13726  1.0000
  H   H1896     1.0  0.72436  0.37957  0.12160  1.0000
  H   H1897     1.0  0.73181  0.43129  0.15819  1.0000
  H   H1898     1.0  0.71164  0.42943  0.19431  1.0000
  H   H1899     1.0  0.75161  0.38213  0.22816  1.0000
  H   H1900     1.0  0.78296  0.38360  0.20260  1.0000
  H   H1901     1.0  0.79595  0.38624  0.25747  1.0000
  H   H1902     1.0  0.80173  0.40318  0.23425  1.0000
  H   H1903     1.0  0.76934  0.40235  0.25981  1.0000
  H   H1904     1.0  0.80774  0.40578  0.10717  1.0000
  H   H1905     1.0  0.82304  0.38647  0.11082  1.0000
  H   H1906     1.0  0.78851  0.39111  0.09065  1.0000
  H   H1907     1.0  0.69011  0.35953  0.12586  1.0000
  H   H1908     1.0  0.72110  0.35510  0.15162  1.0000
  H   H1909     1.0  0.68492  0.36190  0.16693  1.0000
  H   H1910     1.0  0.66332  0.43410  0.16467  1.0000
  H   H1911     1.0  0.68676  0.44947  0.16170  1.0000
  H   H1912     1.0  0.68510  0.43743  0.12964  1.0000
  H   H1913     1.0  0.81852  0.29701  0.25629  1.0000
  Fe  Fe115     1.0  0.97442  0.34576  0.04351  1.0000
  H   H1914     1.0  0.51379  0.28413  0.10639  1.0000
  H   H1915     1.0  0.61955  0.30134  0.32823  1.0000
  H   H1916     1.0  0.88349  0.37897  0.08713  1.0000
  H   H1917     1.0  0.69690  0.31224  0.33147  1.0000
  H   H1918     1.0  0.54318  0.32573  0.20842  1.0000
  H   H1919     1.0  0.72154  0.40720  0.40526  1.0000
  C   C1083     1.0  0.76053  0.27682  0.26197  1.0000
  H   H1920     1.0  0.55589  0.25398  0.16571  1.0000
  H   H1921     1.0  0.69910  0.41236  0.35314  1.0000
  C   C1084     1.0  0.60117  0.41863  0.31476  1.0000
  H   H1922     1.0  0.67384  0.45759  0.38547  1.0000
  H   H1923     1.0  0.66442  0.40571  0.36786  1.0000
  H   H1924     1.0  0.68676  0.40050  0.42005  1.0000
  H   H1925     1.0  0.91304  0.32053  0.17785  1.0000
  C   C1085     1.0  0.62917  0.26538  0.13747  1.0000
  C   C1086     1.0  0.54426  0.30603  0.18102  1.0000
  C   C1087     1.0  0.85769  0.34944  0.23261  1.0000
  H   H1926     1.0  0.55321  0.30929  0.13213  1.0000
  H   H1927     1.0  0.53296  0.24480  0.34095  1.0000
  C   C1088     1.0  0.88465  0.33889  0.22191  1.0000
  H   H1928     1.0  0.99184  0.33497  0.31724  1.0000
  H   H1929     1.0  0.80270  0.46763  0.45388  1.0000
  H   H1930     1.0  0.51605  0.30504  0.14120  1.0000
  H   H1931     1.0  0.74336  0.29463  0.40048  1.0000
  H   H1932     1.0  0.90502  0.34517  0.22105  1.0000
  H   H1933     1.0  0.58568  0.25920  0.12662  1.0000
  C   C1089     1.0  0.67356  0.42742  0.38530  1.0000
  H   H1934     1.0  0.62864  0.26069  0.16188  1.0000
  C   C1090     1.0  0.70893  0.24986  0.36352  1.0000
  S   S236      1.0  0.66593  0.47107  0.23806  1.0000
  H   H1935     1.0  0.91044  0.34914  0.27206  1.0000
  H   H1936     1.0  0.64227  0.27541  0.13623  1.0000
  C   C1091     1.0  0.71240  0.44583  0.34210  1.0000
  H   H1937     1.0  0.89640  0.34362  0.32706  1.0000
  H   H1938     1.0  0.87187  0.33027  0.28567  1.0000
  C   C1092     1.0  0.58123  0.28202  0.14529  1.0000
  H   H1939     1.0  0.92531  0.30598  0.24405  1.0000
  H   H1940     1.0  0.88021  0.33687  0.19722  1.0000
  C   C1093     1.0  0.51091  0.25095  0.17967  1.0000
  H   H1941     1.0  0.67045  0.45003  0.31739  1.0000
  H   H1942     1.0  0.68503  0.43110  0.32089  1.0000
  H   H1943     1.0  0.69229  0.25294  0.38199  1.0000
  H   H1944     1.0  0.66173  0.28490  0.35002  1.0000
  N   N61       1.0  0.54809  0.28548  0.14033  1.0000
  N   N62       1.0  0.89007  0.32415  0.24057  1.0000
  C   C1094     1.0  0.54513  0.28918  0.04961  1.0000
  H   H1945     1.0  0.79576  0.30230  0.39204  1.0000
  C   C1095     1.0  0.91835  0.33913  0.31767  1.0000
  H   H1946     1.0  0.51475  0.25295  0.20447  1.0000
  N   N63       1.0  0.65982  0.43868  0.36125  1.0000
  C   C1096     1.0  0.74753  0.30443  0.38455  1.0000
  H   H1947     1.0  0.83659  0.37182  0.22220  1.0000
  H   H1948     1.0  0.64828  0.41471  0.32211  1.0000
  H   H1949     1.0  0.70092  0.24046  0.35100  1.0000
  H   H1950     1.0  0.63681  0.43176  0.30002  1.0000
  H   H1951     1.0  0.64492  0.46235  0.35818  1.0000
  C   C1097     1.0  0.66673  0.29451  0.33390  1.0000
  H   H1952     1.0  0.61528  0.26961  0.24353  1.0000
  N   N64       1.0  0.72469  0.29146  0.33887  1.0000
  H   H1953     1.0  0.69265  0.43204  0.39655  1.0000
  H   H1954     1.0  0.60905  0.44953  0.39706  1.0000
  H   H1955     1.0  0.53633  0.30562  0.08367  1.0000
  H   H1956     1.0  0.97714  0.43377  0.05512  1.0000
  C   C1098     1.0  0.73126  0.44818  0.31261  1.0000
  H   H1957     1.0  0.90122  0.45869  0.49282  1.0000
  H   H1958     1.0  0.66817  0.29076  0.30985  1.0000
  C   C1099     1.0  0.71256  0.26330  0.34067  1.0000
  H   H1959     1.0  0.73542  0.43753  0.30054  1.0000
  H   H1960     1.0  0.61924  0.42731  0.36916  1.0000
  H   H1961     1.0  0.55896  0.27847  0.04614  1.0000
  C   C1100     1.0  0.63047  0.43378  0.35017  1.0000
  H   H1962     1.0  0.52904  0.25590  0.13455  1.0000
  H   H1963     1.0  0.71197  0.27799  0.37939  1.0000
  H   H1964     1.0  0.65732  0.42539  0.40454  1.0000
  H   H1965     1.0  0.85803  0.31461  0.21231  1.0000
  C   C1101     1.0  0.68404  0.41169  0.37373  1.0000
  C   C1102     1.0  0.91669  0.33772  0.28256  1.0000
  C   C1103     1.0  0.59748  0.26957  0.12585  1.0000
  H   H1966     1.0  0.72457  0.43692  0.35703  1.0000
  H   H1967     1.0  0.72828  0.25941  0.32206  1.0000
  H   H1968     1.0  0.69073  0.26646  0.32973  1.0000
  H   H1969     1.0  0.51279  0.22875  0.44393  1.0000
  H   H1970     1.0  0.78336  0.27232  0.25517  1.0000
  H   H1971     1.0  0.71988  0.45687  0.29647  1.0000
  H   H1972     1.0  0.63955  0.44699  0.42388  1.0000
  C   C1104     1.0  0.72473  0.27653  0.35718  1.0000
  H   H1973     1.0  0.77741  0.29109  0.29480  1.0000
  H   H1974     1.0  0.96515  0.37885  0.42937  1.0000
  C   C1105     1.0  0.54951  0.29456  0.08216  1.0000
  H   H1975     1.0  0.84326  0.32092  0.24800  1.0000
  H   H1976     1.0  0.70783  0.39072  0.39019  1.0000
  C   C1106     1.0  0.91741  0.31079  0.19469  1.0000
  C   C1107     1.0  0.65327  0.45359  0.37609  1.0000
  H   H1977     1.0  0.72685  0.30105  0.29183  1.0000
  H   H1978     1.0  0.90079  0.31570  0.28742  1.0000
  H   H1979     1.0  0.51763  0.32759  0.17641  1.0000
  H   H1980     1.0  0.51359  0.23864  0.17667  1.0000
  C   C1108     1.0  0.97983  0.38184  0.40937  1.0000
  H   H1981     1.0  0.00404  0.39685  0.43414  1.0000
  H   H1982     1.0  0.52127  0.28741  0.04602  1.0000
  H   H1983     1.0  0.99575  0.34652  0.18470  1.0000
  C   C1109     1.0  0.98139  0.43368  0.02965  1.0000
  Fe  Fe116     1.0  0.97002  0.31684  0.00946  1.0000
  H   H1984     1.0  0.94396  0.40615  0.48614  1.0000
  S   S237      1.0  0.59772  0.47217  0.21060  1.0000
  Fe  Fe117     1.0  0.98129  0.34206  0.49314  1.0000
  H   H1985     1.0  0.84935  0.41158  0.99949  1.0000
  H   H1986     1.0  0.99027  0.44448  0.02166  1.0000
  H   H1987     1.0  0.95657  0.37846  0.48682  1.0000
  C   C1110     1.0  0.98883  0.37875  0.00213  1.0000
  H   H1988     1.0  0.99855  0.42442  0.02462  1.0000
  H   H1989     1.0  0.93151  0.41902  0.04837  1.0000
  H   H1990     1.0  0.91679  0.39764  0.06718  1.0000
  Fe  Fe118     1.0  0.00429  0.32035  0.44354  1.0000
  H   H1991     1.0  0.89376  0.43596  0.99973  1.0000
  H   H1992     1.0  0.51982  0.22547  0.10324  1.0000
  H   H1993     1.0  0.87828  0.40397  0.05910  1.0000
  C   C1111     1.0  0.88854  0.38001  0.06181  1.0000
  H   H1994     1.0  0.88181  0.42631  0.03396  1.0000
  H   H1995     1.0  0.90726  0.37151  0.05656  1.0000
  C   C1112     1.0  0.89725  0.39588  0.05287  1.0000
  H   H1996     1.0  0.86846  0.37755  0.04901  1.0000
  H   H1997     1.0  0.95636  0.40788  0.02493  1.0000
  H   H1998     1.0  0.93701  0.44182  0.01712  1.0000
  H   H1999     1.0  0.82829  0.43496  0.02409  1.0000
  C   C1113     1.0  0.93847  0.41725  0.02385  1.0000
  Fe  Fe119     1.0  0.00556  0.31666  0.07101  1.0000
  H   H2000     1.0  0.92424  0.38914  0.01325  1.0000
  C   C1114     1.0  0.90505  0.39756  0.01768  1.0000
  C   C1115     1.0  0.88713  0.42482  0.00895  1.0000
  N   N65       1.0  0.91265  0.41295  0.00520  1.0000
  C   C1116     1.0  0.50860  0.24813  0.34010  1.0000
  H   H2001     1.0  0.88600  0.39371  0.00526  1.0000
  H   H2002     1.0  0.93720  0.46571  0.49879  1.0000
  S   S238      1.0  0.00242  0.43800  0.60407  1.0000
  C   C1117     1.0  0.98355  0.38804  0.64962  1.0000
  H   H2003     1.0  0.98337  0.32995  0.90954  1.0000
  H   H2004     1.0  0.51659  0.27376  0.84759  1.0000
  S   S239      1.0  0.92867  0.44456  0.60141  1.0000
  C   C1118     1.0  0.95706  0.30214  0.89823  1.0000
  S   S240      1.0  0.94898  0.43835  0.89085  1.0000
  Fe  Fe120     1.0  0.95768  0.45544  0.92513  1.0000
  H   H2005     1.0  0.95013  0.29616  0.85121  1.0000
  C   C1119     1.0  0.70156  0.30108  0.76735  1.0000
  C   C1120     1.0  0.94701  0.34391  0.61185  1.0000
  H   H2006     1.0  0.80746  0.29138  0.66885  1.0000
  Fe  Fe121     1.0  0.65588  0.25093  0.78170  1.0000
  S   S241      1.0  0.67475  0.26507  0.74196  1.0000
  S   S242      1.0  0.62714  0.26333  0.81841  1.0000
  Fe  Fe122     1.0  0.66107  0.24687  0.71199  1.0000
  S   S243      1.0  0.64009  0.25053  0.66379  1.0000
  Fe  Fe123     1.0  0.71866  0.25098  0.74919  1.0000
  S   S244      1.0  0.76839  0.25562  0.75416  1.0000
  H   H2007     1.0  0.00321  0.40929  0.56207  1.0000
  S   S245      1.0  0.70046  0.23816  0.79093  1.0000
  H   H2008     1.0  0.99125  0.34587  0.92913  1.0000
  C   C1121     1.0  0.96984  0.29792  0.92733  1.0000
  H   H2009     1.0  0.87018  0.40779  0.55899  1.0000
  C   C1122     1.0  0.75853  0.31249  0.87195  1.0000
  H   H2010     1.0  0.55819  0.25099  0.76315  1.0000
  Fe  Fe124     1.0  0.92616  0.29230  0.75184  1.0000
  S   S246      1.0  0.93601  0.26751  0.75974  1.0000
  S   S247      1.0  0.87580  0.29937  0.74565  1.0000
  Fe  Fe125     1.0  0.96960  0.27034  0.72047  1.0000
  S   S248      1.0  0.97193  0.25949  0.67357  1.0000
  Fe  Fe126     1.0  0.97090  0.27347  0.79352  1.0000
  H   H2011     1.0  0.97069  0.36183  0.97618  1.0000
  S   S249      1.0  0.96028  0.29501  0.71306  1.0000
  S   S250      1.0  0.96048  0.29824  0.78623  1.0000
  C   C1123     1.0  0.95798  0.45152  0.77342  1.0000
  C   C1124     1.0  0.90832  0.40085  0.95147  1.0000
  C   C1125     1.0  0.97773  0.27879  0.87592  1.0000
  C   C1126     1.0  0.96093  0.29273  0.87287  1.0000
  H   H2012     1.0  0.92140  0.40680  0.65080  1.0000
  Fe  Fe127     1.0  0.96604  0.30948  0.50029  1.0000
  H   H2013     1.0  0.74461  0.28649  0.79835  1.0000
  C   C1127     1.0  0.69678  0.29260  0.79859  1.0000
  H   H2014     1.0  0.99663  0.28043  0.95269  1.0000
  C   C1128     1.0  0.96459  0.26016  0.61053  1.0000
  H   H2015     1.0  0.86091  0.29323  0.68266  1.0000
  H   H2016     1.0  0.96332  0.24817  0.61444  1.0000
  C   C1129     1.0  0.94743  0.45888  0.74569  1.0000
  C   C1130     1.0  0.79744  0.26825  0.75116  1.0000
  C   C1131     1.0  0.79268  0.28343  0.74100  1.0000
  C   C1132     1.0  0.81671  0.29280  0.73957  1.0000
  C   C1133     1.0  0.84583  0.28721  0.74841  1.0000
  C   C1134     1.0  0.85032  0.27208  0.75886  1.0000
  C   C1135     1.0  0.82647  0.26275  0.76000  1.0000
  H   H2017     1.0  0.77056  0.28797  0.73415  1.0000
  H   H2018     1.0  0.81271  0.30447  0.73154  1.0000
  H   H2019     1.0  0.87218  0.26756  0.76635  1.0000
  H   H2020     1.0  0.83049  0.25119  0.76833  1.0000
  C   C1136     1.0  0.60139  0.25575  0.84579  1.0000
  C   C1137     1.0  0.59885  0.24028  0.85018  1.0000
  C   C1138     1.0  0.57945  0.23474  0.87344  1.0000
  C   C1139     1.0  0.56199  0.24455  0.89233  1.0000
  C   C1140     1.0  0.56409  0.26005  0.88752  1.0000
  C   C1141     1.0  0.58370  0.26558  0.86446  1.0000
  H   H2021     1.0  0.61234  0.23254  0.83615  1.0000
  Fe  Fe128     1.0  0.99620  0.29611  0.74854  1.0000
  H   H2022     1.0  0.55127  0.26775  0.90217  1.0000
  H   H2023     1.0  0.58554  0.27757  0.86141  1.0000
  C   C1142     1.0  0.60151  0.25276  0.65374  1.0000
  C   C1143     1.0  0.57876  0.25581  0.67574  1.0000
  C   C1144     1.0  0.54868  0.25826  0.66636  1.0000
  C   C1145     1.0  0.54079  0.25745  0.63501  1.0000
  C   C1146     1.0  0.56347  0.25411  0.61314  1.0000
  C   C1147     1.0  0.59358  0.25192  0.62243  1.0000
  H   H2024     1.0  0.58444  0.25658  0.69985  1.0000
  H   H2025     1.0  0.53149  0.26089  0.68351  1.0000
  H   H2026     1.0  0.55790  0.25351  0.58895  1.0000
  C   C1148     1.0  0.91426  0.39522  0.64903  1.0000
  C   C1149     1.0  0.98112  0.37233  0.97485  1.0000
  C   C1150     1.0  0.96111  0.43655  0.71714  1.0000
  C   C1151     1.0  0.89291  0.41158  0.55511  1.0000
  S   S251      1.0  0.92438  0.46154  0.96356  1.0000
  S   S252      1.0  0.98239  0.26629  0.84440  1.0000
  C   C1152     1.0  0.95988  0.40084  0.50270  1.0000
  C   C1153     1.0  0.55070  0.26222  0.77178  1.0000
  C   C1154     1.0  0.90110  0.39813  0.70620  1.0000
  H   H2027     1.0  0.82890  0.25919  0.65127  1.0000
  C   C1155     1.0  0.97144  0.42907  0.74493  1.0000
  H   H2028     1.0  0.94135  0.36641  0.65178  1.0000
  H   H2029     1.0  0.77110  0.29765  0.83568  1.0000
  H   H2030     1.0  0.90147  0.37753  0.68275  1.0000
  H   H2031     1.0  0.92594  0.35954  0.88064  1.0000
  C   C1156     1.0  0.94895  0.45145  0.71773  1.0000
  H   H2032     1.0  0.95815  0.43209  0.98728  1.0000
  Fe  Fe129     1.0  0.97190  0.45301  0.85540  1.0000
  H   H2033     1.0  0.90390  0.40565  0.53543  1.0000
  H   H2034     1.0  0.94357  0.31273  0.89536  1.0000
  H   H2035     1.0  0.94684  0.40934  0.96946  1.0000
  S   S253      1.0  0.00600  0.27144  0.75534  1.0000
  H   H2036     1.0  0.89288  0.31501  0.68080  1.0000
  H   H2037     1.0  0.81621  0.46611  0.55879  1.0000
  H   H2038     1.0  0.91394  0.46055  0.53156  1.0000
  H   H2039     1.0  0.80090  0.23283  0.70168  1.0000
  H   H2040     1.0  0.92347  0.34127  0.60957  1.0000
  H   H2041     1.0  0.77381  0.27083  0.68142  1.0000
  H   H2042     1.0  0.83641  0.27360  0.59406  1.0000
  H   H2043     1.0  0.73698  0.30899  0.82941  1.0000
  H   H2044     1.0  0.90860  0.36714  0.62954  1.0000
  H   H2045     1.0  0.93042  0.38692  0.57326  1.0000
  H   H2046     1.0  0.88315  0.31919  0.64039  1.0000
  C   C1157     1.0  0.99812  0.39377  0.94396  1.0000
  Fe  Fe130     1.0  0.00397  0.46315  0.60155  1.0000
  C   C1158     1.0  0.91436  0.40385  0.91680  1.0000
  H   H2047     1.0  0.89498  0.38659  0.59248  1.0000
  H   H2048     1.0  0.98446  0.37588  0.65647  1.0000
  H   H2049     1.0  0.90316  0.41488  0.90863  1.0000
  C   C1159     1.0  0.97243  0.40958  0.52439  1.0000
  C   C1160     1.0  0.96323  0.39220  0.62140  1.0000
  H   H2050     1.0  0.93296  0.41356  0.58001  1.0000
  C   C1161     1.0  0.96373  0.28211  0.57388  1.0000
  H   H2051     1.0  0.86190  0.42304  0.96654  1.0000
  S   S254      1.0  0.93783  0.33156  0.50012  1.0000
  C   C1162     1.0  0.96707  0.38518  0.50293  1.0000
  H   H2052     1.0  0.97991  0.36169  0.87769  1.0000
  H   H2053     1.0  0.97353  0.29159  0.64881  1.0000
  H   H2054     1.0  0.89196  0.24535  0.73204  1.0000
  H   H2055     1.0  0.94154  0.36325  0.58071  1.0000
  H   H2056     1.0  0.78413  0.47155  0.65546  1.0000
  S   S255      1.0  0.97232  0.46709  0.56185  1.0000
  H   H2057     1.0  0.89926  0.41475  0.60328  1.0000
  S   S256      1.0  0.95591  0.46171  0.80753  1.0000
  H   H2058     1.0  0.89084  0.42384  0.54865  1.0000
  C   C1163     1.0  0.91140  0.40864  0.58455  1.0000
  H   H2059     1.0  0.51236  0.27403  0.79208  1.0000
  S   S257      1.0  0.00287  0.44463  0.93944  1.0000
  C   C1164     1.0  0.98591  0.37982  0.94587  1.0000
  H   H2060     1.0  0.00344  0.26376  0.90806  1.0000
  H   H2061     1.0  0.80959  0.28634  0.62902  1.0000
  H   H2062     1.0  0.90561  0.39492  0.90347  1.0000
  H   H2063     1.0  0.56581  0.26482  0.79047  1.0000
  C   C1165     1.0  0.51848  0.26262  0.78387  1.0000
  S   S258      1.0  0.96826  0.46697  0.63784  1.0000
  Fe  Fe131     1.0  0.99524  0.42841  0.90286  1.0000
  H   H2064     1.0  0.99818  0.46650  0.70118  1.0000
  H   H2065     1.0  0.89194  0.24238  0.66128  1.0000
  H   H2066     1.0  0.73815  0.31763  0.88352  1.0000
  C   C1166     1.0  0.90088  0.24070  0.71003  1.0000
  H   H2067     1.0  0.84112  0.22671  0.80076  1.0000
  C   C1167     1.0  0.91479  0.38747  0.68221  1.0000
  H   H2068     1.0  0.99403  0.31812  0.66480  1.0000
  Fe  Fe132     1.0  0.96423  0.44223  0.63786  1.0000
  H   H2069     1.0  0.84760  0.22649  0.75941  1.0000
  H   H2070     1.0  0.94026  0.45723  0.69672  1.0000
  Fe  Fe133     1.0  0.96728  0.44215  0.56740  1.0000
  H   H2071     1.0  0.89012  0.39680  0.64306  1.0000
  H   H2072     1.0  0.90091  0.39218  0.72950  1.0000
  S   S259      1.0  0.64028  0.23360  0.75123  1.0000
  H   H2073     1.0  0.53198  0.25134  0.82819  1.0000
  H   H2074     1.0  0.91885  0.42376  0.95932  1.0000
  H   H2075     1.0  0.52173  0.23942  0.79962  1.0000
  Fe  Fe134     1.0  0.93617  0.46909  0.59838  1.0000
  H   H2076     1.0  0.89944  0.22834  0.71150  1.0000
  H   H2077     1.0  0.61092  0.24962  0.60517  1.0000
  N   N66       1.0  0.93206  0.38722  0.62367  1.0000
  H   H2078     1.0  0.86319  0.27852  0.54496  1.0000
  C   C1168     1.0  0.77712  0.27538  0.65718  1.0000
  H   H2079     1.0  0.97923  0.37508  0.92489  1.0000
  H   H2080     1.0  0.89248  0.23213  0.78668  1.0000
  H   H2081     1.0  0.94069  0.35829  0.91938  1.0000
  H   H2082     1.0  0.86746  0.46529  0.58022  1.0000
  S   S260      1.0  0.70653  0.23385  0.71593  1.0000
  H   H2083     1.0  0.92474  0.24292  0.70718  1.0000
  H   H2084     1.0  0.70711  0.29308  0.74883  1.0000
  C   C1169     1.0  0.00100  0.38708  0.54510  1.0000
  H   H2085     1.0  0.72000  0.30852  0.76887  1.0000
  C   C1170     1.0  0.96874  0.26895  0.63577  1.0000
  H   H2086     1.0  0.91818  0.38929  0.95801  1.0000
  H   H2087     1.0  0.93868  0.40382  0.91200  1.0000
  H   H2088     1.0  0.97481  0.38773  0.60056  1.0000
  S   S261      1.0  0.96197  0.42910  0.52431  1.0000
  H   H2089     1.0  0.77528  0.26626  0.64097  1.0000
  C   C1171     1.0  0.94069  0.35256  0.89714  1.0000
  H   H2090     1.0  0.98075  0.41750  0.74472  1.0000
  H   H2091     1.0  0.93762  0.38356  0.68978  1.0000
  H   H2092     1.0  0.68084  0.30812  0.76083  1.0000
  S   S262      1.0  0.96404  0.31063  0.95830  1.0000
  H   H2093     1.0  0.97045  0.34485  0.86114  1.0000
  H   H2094     1.0  0.85879  0.28938  0.59644  1.0000
  C   C1172     1.0  0.94983  0.36068  0.60463  1.0000
  H   H2095     1.0  0.79098  0.27540  0.85490  1.0000
  H   H2096     1.0  0.85203  0.29726  0.64329  1.0000
  C   C1173     1.0  0.97003  0.43655  0.77301  1.0000
  H   H2097     1.0  0.93780  0.47039  0.74592  1.0000
  C   C1174     1.0  0.75022  0.30202  0.84719  1.0000
  H   H2098     1.0  0.89845  0.27681  0.56436  1.0000
  H   H2099     1.0  0.95846  0.25955  0.56118  1.0000
  H   H2100     1.0  0.88385  0.40101  0.95481  1.0000
  C   C1175     1.0  0.97227  0.35045  0.88329  1.0000
  N   N67       1.0  0.72668  0.27654  0.84117  1.0000
  C   C1176     1.0  0.72417  0.28148  0.80719  1.0000
  C   C1177     1.0  0.75132  0.26400  0.84469  1.0000
  C   C1178     1.0  0.69770  0.27010  0.85111  1.0000
  C   C1179     1.0  0.73185  0.28930  0.86158  1.0000
  C   C1180     1.0  0.86765  0.29019  0.65865  1.0000
  H   H2101     1.0  0.82993  0.26747  0.68780  1.0000
  C   C1181     1.0  0.69621  0.26312  0.88488  1.0000
  C   C1182     1.0  0.78347  0.26813  0.83699  1.0000
  C   C1183     1.0  0.80533  0.25406  0.83712  1.0000
  C   C1184     1.0  0.99347  0.34085  0.90603  1.0000
  C   C1185     1.0  0.66459  0.25922  0.89372  1.0000
  H   H2102     1.0  0.72274  0.27152  0.79295  1.0000
  H   H2103     1.0  0.77307  0.30622  0.88969  1.0000
  H   H2104     1.0  0.75248  0.25929  0.86903  1.0000
  H   H2105     1.0  0.74649  0.25455  0.83014  1.0000
  H   H2106     1.0  0.69236  0.26131  0.83523  1.0000
  H   H2107     1.0  0.67872  0.27894  0.84906  1.0000
  C   C1186     1.0  0.92241  0.41238  0.97135  1.0000
  H   H2108     1.0  0.74285  0.28476  0.88348  1.0000
  H   H2109     1.0  0.67669  0.28627  0.79671  1.0000
  C   C1187     1.0  0.96817  0.29109  0.59899  1.0000
  H   H2110     1.0  0.70321  0.27099  0.90187  1.0000
  H   H2111     1.0  0.71067  0.25243  0.88731  1.0000
  H   H2112     1.0  0.78522  0.27399  0.81384  1.0000
  H   H2113     1.0  0.75903  0.28437  0.65196  1.0000
  H   H2114     1.0  0.80512  0.24782  0.86012  1.0000
  H   H2115     1.0  0.79938  0.24662  0.81881  1.0000
  H   H2116     1.0  0.82829  0.25736  0.83216  1.0000
  H   H2117     1.0  0.97813  0.43076  0.79430  1.0000
  C   C1188     1.0  0.98678  0.28400  0.93050  1.0000
  H   H2118     1.0  0.77096  0.32165  0.86092  1.0000
  H   H2119     1.0  0.66393  0.25469  0.91821  1.0000
  H   H2120     1.0  0.64845  0.26934  0.89135  1.0000
  H   H2121     1.0  0.65760  0.25050  0.87862  1.0000
  S   S263      1.0  0.96369  0.42719  0.68190  1.0000
  C   C1189     1.0  0.99310  0.40264  0.54555  1.0000
  H   H2122     1.0  0.91448  0.40798  0.70756  1.0000
  H   H2123     1.0  0.87720  0.26056  0.56246  1.0000
  H   H2124     1.0  0.96260  0.40466  0.61789  1.0000
  H   H2125     1.0  0.69184  0.30095  0.81650  1.0000
  C   C1190     1.0  0.80748  0.28183  0.65331  1.0000
  C   C1191     1.0  0.97048  0.28454  0.62983  1.0000
  C   C1192     1.0  0.96187  0.26665  0.58016  1.0000
  H   H2126     1.0  0.96946  0.30306  0.59467  1.0000
  H   H2127     1.0  0.87779  0.40217  0.70006  1.0000
  H   H2128     1.0  0.71017  0.29505  0.86923  1.0000
  H   H2129     1.0  0.92179  0.31616  0.65143  1.0000
  H   H2130     1.0  0.55249  0.27076  0.75227  1.0000
  H   H2131     1.0  0.99440  0.32130  0.85725  1.0000
  S   S264      1.0  0.95953  0.28910  0.53429  1.0000
  N   N68       1.0  0.86495  0.27362  0.65530  1.0000
  C   C1193     1.0  0.88495  0.26506  0.67922  1.0000
  C   C1194     1.0  0.87537  0.26869  0.62368  1.0000
  C   C1195     1.0  0.85950  0.27700  0.59537  1.0000
  C   C1196     1.0  0.89891  0.29577  0.65159  1.0000
  C   C1197     1.0  0.88282  0.24775  0.68247  1.0000
  C   C1198     1.0  0.87561  0.27291  0.56502  1.0000
  C   C1199     1.0  0.89903  0.31259  0.65635  1.0000
  C   C1200     1.0  0.93205  0.37034  0.62884  1.0000
  H   H2132     1.0  0.88054  0.26968  0.70250  1.0000
  H   H2133     1.0  0.90879  0.26654  0.67389  1.0000
  H   H2134     1.0  0.89987  0.26953  0.62074  1.0000
  H   H2135     1.0  0.87244  0.25656  0.62155  1.0000
  H   H2136     1.0  0.93139  0.34149  0.90155  1.0000
  H   H2137     1.0  0.91589  0.28993  0.66720  1.0000
  H   H2138     1.0  0.90578  0.29393  0.62713  1.0000
  H   H2139     1.0  0.97553  0.39467  0.66960  1.0000
  H   H2140     1.0  0.85954  0.24479  0.68631  1.0000
  C   C1201     1.0  0.83323  0.26978  0.66229  1.0000
  C   C1202     1.0  0.91692  0.39153  0.59301  1.0000
  H   H2141     1.0  0.96097  0.33724  0.59507  1.0000
  S   S265      1.0  0.53956  0.23677  0.92272  1.0000
  S   S266      1.0  0.00279  0.40300  0.90720  1.0000
  H   H2142     1.0  0.95464  0.34049  0.63574  1.0000
  S   S267      1.0  0.99726  0.35867  0.52606  1.0000
  C   C1203     1.0  0.99062  0.27453  0.90504  1.0000
  C   C1204     1.0  0.98760  0.37825  0.52427  1.0000
  H   H2143     1.0  0.97392  0.36254  0.60486  1.0000
  H   H2144     1.0  0.00360  0.33226  0.80415  1.0000
  C   C1205     1.0  0.51494  0.25030  0.81015  1.0000
  S   S268      1.0  0.97635  0.47111  0.88892  1.0000
  C   C1206     1.0  0.91379  0.46572  0.50753  1.0000
  H   H2145     1.0  0.81311  0.43317  0.98615  1.0000
  H   H2146     1.0  0.79663  0.22449  0.75716  1.0000
  H   H2147     1.0  0.84103  0.44614  0.99087  1.0000
  C   C1207     1.0  0.85800  0.42249  0.99207  1.0000
  C   C1208     1.0  0.83369  0.43497  0.99883  1.0000
  Fe  Fe135     1.0  0.93989  0.59231  0.07735  1.0000
  S   S269      1.0  0.98518  0.60059  0.06671  1.0000
  S   S270      1.0  0.91306  0.58633  0.03657  1.0000
  Fe  Fe136     1.0  0.94563  0.59435  0.14720  1.0000
  Fe  Fe137     1.0  0.97276  0.61741  0.10272  1.0000
  C   C1209     1.0  0.66519  0.50147  0.14011  1.0000
  S   S271      1.0  0.92612  0.61062  0.10978  1.0000
  S   S272      1.0  0.95554  0.57539  0.11534  1.0000
  Fe  Fe138     1.0  0.97781  0.59206  0.36358  1.0000
  H   H2148     1.0  0.85789  0.64880  0.42750  1.0000
  Fe  Fe139     1.0  0.93084  0.59561  0.41572  1.0000
  S   S273      1.0  0.96348  0.60372  0.44855  1.0000
  S   S274      1.0  0.88364  0.59565  0.43530  1.0000
  Fe  Fe140     1.0  0.97844  0.61778  0.40737  1.0000
  H   H2149     1.0  0.79870  0.48634  0.11497  1.0000
  S   S275      1.0  0.94373  0.61089  0.37529  1.0000
  S   S276      1.0  0.96177  0.57613  0.40116  1.0000
  H   H2150     1.0  0.97998  0.67411  0.41573  1.0000
  Fe  Fe141     1.0  0.70813  0.52532  0.46933  1.0000
  S   S277      1.0  0.66859  0.52185  0.43897  1.0000
  Fe  Fe142     1.0  0.77075  0.53587  0.46570  1.0000
  S   S278      1.0  0.80726  0.53933  0.42970  1.0000
  S   S279      1.0  0.75328  0.51318  0.46362  1.0000
  S   S280      1.0  0.72528  0.54834  0.46859  1.0000
  S   S281      1.0  0.78906  0.51512  0.02240  1.0000
  H   H2151     1.0  0.90754  0.51403  0.38087  1.0000
  Fe  Fe143     1.0  0.73956  0.51335  0.02180  1.0000
  S   S282      1.0  0.72097  0.49409  0.05075  1.0000
  C   C1210     1.0  0.68060  0.48750  0.13530  1.0000
  C   C1211     1.0  0.97765  0.63165  0.31109  1.0000
  C   C1212     1.0  0.69928  0.49712  0.08495  1.0000
  H   H2152     1.0  0.62947  0.50209  0.34499  1.0000
  H   H2153     1.0  0.75321  0.55297  0.11314  1.0000
  H   H2154     1.0  0.71476  0.49969  0.41731  1.0000
  C   C1213     1.0  0.86345  0.57959  0.43441  1.0000
  C   C1214     1.0  0.83757  0.57875  0.45298  1.0000
  C   C1215     1.0  0.82039  0.56634  0.45210  1.0000
  C   C1216     1.0  0.82872  0.55484  0.43215  1.0000
  C   C1217     1.0  0.85463  0.55564  0.41364  1.0000
  C   C1218     1.0  0.87213  0.56791  0.41496  1.0000
  H   H2155     1.0  0.81626  0.56345  0.20267  1.0000
  H   H2156     1.0  0.86116  0.54682  0.39809  1.0000
  H   H2157     1.0  0.89191  0.56853  0.40042  1.0000
  C   C1219     1.0  0.78142  0.49561  0.10890  1.0000
  S   S283      1.0  0.98714  0.64242  0.40604  1.0000
  C   C1220     1.0  0.62562  0.53442  0.00988  1.0000
  H   H2158     1.0  0.92260  0.62864  0.17118  1.0000
  C   C1221     1.0  0.80530  0.47935  0.46009  1.0000
  N   N69       1.0  0.91813  0.52938  0.00571  1.0000
  H   H2159     1.0  0.98492  0.65652  0.22752  1.0000
  Fe  Fe144     1.0  0.99992  0.58485  0.10675  1.0000
  C   C1222     1.0  0.88431  0.51072  0.38025  1.0000
  C   C1223     1.0  0.88089  0.57683  0.04506  1.0000
  C   C1224     1.0  0.87395  0.57189  0.07548  1.0000
  C   C1225     1.0  0.83034  0.56070  0.05708  1.0000
  C   C1226     1.0  0.83723  0.56568  0.02669  1.0000
  H   H2160     1.0  0.76918  0.49923  0.39851  1.0000
  H   H2161     1.0  0.80105  0.50959  0.38768  1.0000
  C   C1227     1.0  0.94586  0.64073  0.20469  1.0000
  C   C1228     1.0  0.98218  0.65270  0.06909  1.0000
  H   H2162     1.0  0.77097  0.56052  0.17329  1.0000
  S   S284      1.0  0.61506  0.49761  0.25770  1.0000
  C   C1229     1.0  0.68340  0.51096  0.08957  1.0000
  H   H2163     1.0  0.96624  0.63550  0.04222  1.0000
  H   H2164     1.0  0.82743  0.50596  0.45949  1.0000
  C   C1230     1.0  0.94162  0.59052  0.22790  1.0000
  C   C1231     1.0  0.97042  0.58329  0.22780  1.0000
  S   S285      1.0  0.72788  0.53782  0.02831  1.0000
  C   C1232     1.0  0.97417  0.58641  0.28347  1.0000
  H   H2165     1.0  0.97224  0.64836  0.27374  1.0000
  H   H2166     1.0  0.83074  0.58775  0.46804  1.0000
  H   H2167     1.0  0.90202  0.51517  0.43821  1.0000
  H   H2168     1.0  0.85343  0.49862  0.40764  1.0000
  C   C1233     1.0  0.82280  0.72030  0.11029  1.0000
  C   C1234     1.0  0.97229  0.65572  0.01385  1.0000
  Fe  Fe145     1.0  0.77734  0.53986  0.02602  1.0000
  S   S286      1.0  0.79917  0.55041  0.06538  1.0000
  H   H2169     1.0  0.98751  0.52657  0.42056  1.0000
  H   H2170     1.0  0.89604  0.48100  0.45757  1.0000
  C   C1235     1.0  0.87049  0.67107  0.46617  1.0000
  C   C1236     1.0  0.97038  0.67632  0.46467  1.0000
  N   N70       1.0  0.87458  0.50261  0.47014  1.0000
  C   C1237     1.0  0.64197  0.54622  0.02556  1.0000
  C   C1238     1.0  0.97770  0.66818  0.43810  1.0000
  C   C1239     1.0  0.98096  0.65239  0.44017  1.0000
  C   C1240     1.0  0.67412  0.49246  0.35427  1.0000
  Fe  Fe146     1.0  0.99561  0.58540  0.43085  1.0000
  C   C1241     1.0  0.69180  0.55914  0.10358  1.0000
  H   H2171     1.0  0.67976  0.47846  0.15294  1.0000
  C   C1242     1.0  0.97286  0.64687  0.04182  1.0000
  C   C1243     1.0  0.99926  0.62838  0.25695  1.0000
  H   H2172     1.0  0.98736  0.54660  0.05317  1.0000
  H   H2173     1.0  0.68407  0.51998  0.07192  1.0000
  C   C1244     1.0  0.85993  0.52886  0.49179  1.0000
  H   H2174     1.0  0.73989  0.51771  0.11511  1.0000
  H   H2175     1.0  0.82304  0.56341  0.00782  1.0000
  H   H2176     1.0  0.94301  0.69763  0.06439  1.0000
  H   H2177     1.0  0.77021  0.52737  0.09984  1.0000
  Fe  Fe147     1.0  0.58104  0.48038  0.25672  1.0000
  H   H2178     1.0  0.98812  0.56396  0.02989  1.0000
  C   C1245     1.0  0.70980  0.54449  0.11378  1.0000
  H   H2179     1.0  0.88222  0.50391  0.35970  1.0000
  C   C1246     1.0  0.67065  0.50983  0.40745  1.0000
  H   H2180     1.0  0.65870  0.50386  0.02894  1.0000
  C   C1247     1.0  0.89941  0.51867  0.02416  1.0000
  N   N71       1.0  0.00059  0.63305  0.22274  1.0000
  C   C1248     1.0  0.93305  0.53847  0.02866  1.0000
  H   H2181     1.0  0.89206  0.49107  0.41062  1.0000
  H   H2182     1.0  0.83792  0.51933  0.07525  1.0000
  C   C1249     1.0  0.87288  0.52593  0.04328  1.0000
  H   H2183     1.0  0.96053  0.71475  0.05516  1.0000
  C   C1250     1.0  0.97335  0.55562  0.04024  1.0000
  H   H2184     1.0  0.86863  0.52100  0.37752  1.0000
  H   H2185     1.0  0.80629  0.51146  0.13032  1.0000
  C   C1251     1.0  0.85771  0.51396  0.06305  1.0000
  H   H2186     1.0  0.96669  0.68844  0.46270  1.0000
  H   H2187     1.0  0.91394  0.51126  0.04031  1.0000
  C   C1252     1.0  0.78293  0.50826  0.13114  1.0000
  H   H2188     1.0  0.83226  0.54520  0.19215  1.0000
  H   H2189     1.0  0.64970  0.55468  0.00805  1.0000
  H   H2190     1.0  0.94453  0.53082  0.04683  1.0000
  H   H2191     1.0  0.91632  0.54591  0.04120  1.0000
  C   C1253     1.0  0.78527  0.55023  0.18028  1.0000
  H   H2192     1.0  0.62550  0.47510  0.03114  1.0000
  H   H2193     1.0  0.98234  0.67623  0.18544  1.0000
  C   C1254     1.0  0.99025  0.66757  0.06838  1.0000
  H   H2194     1.0  0.88001  0.53411  0.05944  1.0000
  H   H2195     1.0  0.61270  0.47720  0.39448  1.0000
  H   H2196     1.0  0.89946  0.64278  0.19076  1.0000
  S   S287      1.0  0.99544  0.58362  0.31756  1.0000
  C   C1255     1.0  0.69621  0.50031  0.40159  1.0000
  H   H2197     1.0  0.85584  0.53177  0.02750  1.0000
  C   C1256     1.0  0.87679  0.50148  0.40985  1.0000
  H   H2198     1.0  0.77763  0.54562  0.20319  1.0000
  C   C1257     1.0  0.92910  0.59566  0.25590  1.0000
  H   H2199     1.0  0.93563  0.59774  0.30505  1.0000
  H   H2200     1.0  0.90566  0.68642  0.46701  1.0000
  H   H2201     1.0  0.85391  0.71889  0.07203  1.0000
  H   H2202     1.0  0.87331  0.50850  0.08075  1.0000
  H   H2203     1.0  0.82530  0.56023  0.16258  1.0000
  H   H2204     1.0  0.75403  0.52010  0.18905  1.0000
  C   C1258     1.0  0.85055  0.63954  0.48578  1.0000
  H   H2205     1.0  0.79495  0.48715  0.44174  1.0000
  C   C1259     1.0  0.64807  0.50151  0.36072  1.0000
  N   N72       1.0  0.75539  0.53372  0.14600  1.0000
  C   C1260     1.0  0.73860  0.54744  0.13069  1.0000
  H   H2206     1.0  0.92084  0.49356  0.46987  1.0000
  C   C1261     1.0  0.81672  0.55501  0.18462  1.0000
  C   C1262     1.0  0.73828  0.52673  0.17289  1.0000
  C   C1263     1.0  0.71745  0.53746  0.19252  1.0000
  H   H2207     1.0  0.97888  0.61924  0.31534  1.0000
  H   H2208     1.0  0.92606  0.63242  0.47173  1.0000
  H   H2209     1.0  0.80719  0.71328  0.09921  1.0000
  H   H2210     1.0  0.99805  0.65053  0.16802  1.0000
  C   C1264     1.0  0.70494  0.52901  0.22101  1.0000
  H   H2211     1.0  0.74522  0.57881  0.40915  1.0000
  H   H2212     1.0  0.84922  0.47916  0.44028  1.0000
  C   C1265     1.0  0.97818  0.64480  0.46916  1.0000
  H   H2213     1.0  0.73242  0.55611  0.14761  1.0000
  C   C1266     1.0  0.83835  0.48167  0.46284  1.0000
  H   H2214     1.0  0.68436  0.56557  0.12409  1.0000
  H   H2215     1.0  0.61937  0.49063  0.05664  1.0000
  H   H2216     1.0  0.91114  0.62523  0.21128  1.0000
  C   C1267     1.0  0.69736  0.48530  0.10766  1.0000
  H   H2217     1.0  0.79847  0.54185  0.13524  1.0000
  H   H2218     1.0  0.69803  0.54231  0.17876  1.0000
  H   H2219     1.0  0.72889  0.54696  0.20061  1.0000
  H   H2220     1.0  0.87059  0.67159  0.44040  1.0000
  H   H2221     1.0  0.65373  0.52377  0.12012  1.0000
  H   H2222     1.0  0.88932  0.51094  0.00888  1.0000
  H   H2223     1.0  0.95766  0.56141  0.05670  1.0000
  H   H2224     1.0  0.99648  0.61614  0.26031  1.0000
  H   H2225     1.0  0.62639  0.51740  0.39171  1.0000
  H   H2226     1.0  0.80185  0.61107  0.49712  1.0000
  H   H2227     1.0  0.69548  0.53764  0.12885  1.0000
  H   H2228     1.0  0.70543  0.56615  0.08776  1.0000
  H   H2229     1.0  0.72312  0.52477  0.23712  1.0000
  H   H2230     1.0  0.68869  0.53668  0.23349  1.0000
  H   H2231     1.0  0.69300  0.51937  0.21388  1.0000
  H   H2232     1.0  0.85018  0.50526  0.04823  1.0000
  H   H2233     1.0  0.98014  0.57920  0.20637  1.0000
  C   C1268     1.0  0.00474  0.64964  0.21895  1.0000
  H   H2234     1.0  0.89970  0.71179  0.08759  1.0000
  H   H2235     1.0  0.80048  0.56580  0.46648  1.0000
  H   H2236     1.0  0.72357  0.51837  0.16452  1.0000
  C   C1269     1.0  0.91813  0.63389  0.19379  1.0000
  C   C1270     1.0  0.94539  0.59371  0.28361  1.0000
  H   H2237     1.0  0.71796  0.48451  0.37061  1.0000
  H   H2238     1.0  0.99775  0.70828  0.43576  1.0000
  C   C1271     1.0  0.87753  0.64138  0.43595  1.0000
  Fe  Fe148     1.0  0.63370  0.48804  0.21334  1.0000
  H   H2239     1.0  0.84338  0.56014  0.10504  1.0000
  H   H2240     1.0  0.90678  0.60124  0.25610  1.0000
  H   H2241     1.0  0.71553  0.53833  0.09261  1.0000
  H   H2242     1.0  0.86828  0.69545  0.46696  1.0000
  H   H2243     1.0  0.94033  0.64563  0.22727  1.0000
  H   H2244     1.0  0.83630  0.52718  0.48732  1.0000
  H   H2245     1.0  0.95424  0.70865  0.09530  1.0000
  C   C1272     1.0  0.95603  0.54914  0.01469  1.0000
  C   C1273     1.0  0.84309  0.49777  0.47285  1.0000
  S   S288      1.0  0.92087  0.59335  0.19346  1.0000
  C   C1274     1.0  0.64638  0.51017  0.38721  1.0000
  C   C1275     1.0  0.84865  0.56390  0.08147  1.0000
  H   H2246     1.0  0.99836  0.63589  0.31966  1.0000
  C   C1276     1.0  0.89822  0.48965  0.47465  1.0000
  H   H2247     1.0  0.96581  0.61815  0.21688  1.0000
  S   S289      1.0  0.67874  0.48233  0.32009  1.0000
  H   H2248     1.0  0.97872  0.62650  0.18168  1.0000
  H   H2249     1.0  0.77780  0.50369  0.15491  1.0000
  C   C1277     1.0  0.66626  0.51307  0.11688  1.0000
  C   C1278     1.0  0.69791  0.49168  0.37514  1.0000
  H   H2250     1.0  0.95030  0.65012  0.18778  1.0000
  H   H2251     1.0  0.62669  0.55213  0.04233  1.0000
  H   H2252     1.0  0.98879  0.54666  0.42020  1.0000
  C   C1279     1.0  0.87964  0.51064  0.43896  1.0000
  C   C1280     1.0  0.76117  0.52214  0.12172  1.0000
  H   H2253     1.0  0.79877  0.52815  0.16688  1.0000
  C   C1281     1.0  0.90399  0.62992  0.48158  1.0000
  C   C1282     1.0  0.78538  0.53804  0.15608  1.0000
  H   H2254     1.0  0.86872  0.53598  0.47240  1.0000
  H   H2255     1.0  0.64380  0.47481  0.42081  1.0000
  C   C1283     1.0  0.97327  0.62887  0.20631  1.0000
  H   H2256     1.0  0.95200  0.63186  0.26985  1.0000
  H   H2257     1.0  0.86310  0.52052  0.43541  1.0000
  S   S290      1.0  0.98495  0.64147  0.10401  1.0000
  S   S291      1.0  0.99135  0.60226  0.14211  1.0000
  H   H2258     1.0  0.88803  0.57425  0.09440  1.0000
  S   S292      1.0  0.64546  0.50532  0.17512  1.0000
  H   H2259     1.0  0.95845  0.63671  0.32463  1.0000
  H   H2260     1.0  0.79217  0.63090  0.48956  1.0000
  S   S293      1.0  0.53220  0.48851  0.26693  1.0000
  Fe  Fe149     1.0  0.64483  0.47959  0.28243  1.0000
  H   H2261     1.0  0.94437  0.55876  0.00118  1.0000
  C   C1284     1.0  0.94489  0.70927  0.07153  1.0000
  N   N73       1.0  0.88042  0.64197  0.47070  1.0000
  H   H2262     1.0  0.75925  0.49104  0.11067  1.0000
  C   C1285     1.0  0.98661  0.58122  0.25552  1.0000
  H   H2263     1.0  0.67173  0.55655  0.09090  1.0000
  C   C1286     1.0  0.97353  0.63593  0.27649  1.0000
  H   H2264     1.0  0.83718  0.71289  0.12645  1.0000
  C   C1287     1.0  0.87898  0.51355  0.49496  1.0000
  H   H2265     1.0  0.87295  0.62987  0.42977  1.0000
  H   H2266     1.0  0.90532  0.71762  0.04713  1.0000
  C   C1288     1.0  0.98040  0.67056  0.01303  1.0000
  H   H2267     1.0  0.66148  0.54081  0.03847  1.0000
  C   C1289     1.0  0.90537  0.64524  0.41624  1.0000
  C   C1290     1.0  0.89868  0.64597  0.38153  1.0000
  H   H2268     1.0  0.92396  0.63643  0.42048  1.0000
  H   H2269     1.0  0.91316  0.65623  0.42159  1.0000
  H   H2270     1.0  0.88146  0.65531  0.37567  1.0000
  H   H2271     1.0  0.91939  0.64801  0.36805  1.0000
  H   H2272     1.0  0.89076  0.63519  0.37466  1.0000
  N   N74       1.0  0.73208  0.53788  0.34681  1.0000
  C   C1291     1.0  0.71900  0.55072  0.36557  1.0000
  C   C1292     1.0  0.70681  0.52993  0.33436  1.0000
  C   C1293     1.0  0.74943  0.52681  0.36890  1.0000
  C   C1294     1.0  0.75280  0.54285  0.32093  1.0000
  C   C1295     1.0  0.74543  0.55875  0.30505  1.0000
  C   C1296     1.0  0.74183  0.55861  0.38425  1.0000
  C   C1297     1.0  0.76439  0.51236  0.35472  1.0000
  C   C1298     1.0  0.68623  0.53897  0.31039  1.0000
  C   C1299     1.0  0.65994  0.53016  0.30238  1.0000
  C   C1300     1.0  0.76383  0.56082  0.27515  1.0000
  C   C1301     1.0  0.72874  0.57390  0.39464  1.0000
  C   C1302     1.0  0.78349  0.50297  0.37879  1.0000
  H   H2273     1.0  0.70222  0.54663  0.38278  1.0000
  H   H2274     1.0  0.70626  0.55942  0.35071  1.0000
  H   H2275     1.0  0.71539  0.51973  0.32237  1.0000
  H   H2276     1.0  0.69254  0.52593  0.35398  1.0000
  H   H2277     1.0  0.73491  0.52337  0.38886  1.0000
  H   H2278     1.0  0.76803  0.53220  0.37926  1.0000
  H   H2279     1.0  0.77603  0.54288  0.32958  1.0000
  H   H2280     1.0  0.75431  0.53448  0.30257  1.0000
  H   H2281     1.0  0.75080  0.56757  0.32072  1.0000
  H   H2282     1.0  0.72162  0.56101  0.29910  1.0000
  H   H2283     1.0  0.74806  0.55159  0.40552  1.0000
  H   H2284     1.0  0.76267  0.56019  0.37074  1.0000
  H   H2285     1.0  0.77905  0.51518  0.33463  1.0000
  H   H2286     1.0  0.74760  0.50505  0.34695  1.0000
  H   H2287     1.0  0.67681  0.54982  0.31916  1.0000
  H   H2288     1.0  0.69888  0.54102  0.28845  1.0000
  H   H2289     1.0  0.64501  0.52880  0.32298  1.0000
  H   H2290     1.0  0.64672  0.53637  0.28352  1.0000
  H   H2291     1.0  0.66784  0.51887  0.29432  1.0000
  H   H2292     1.0  0.75815  0.55274  0.25794  1.0000
  H   H2293     1.0  0.75889  0.57242  0.26483  1.0000
  H   H2294     1.0  0.78809  0.55913  0.28009  1.0000
  H   H2295     1.0  0.70808  0.57264  0.40878  1.0000
  H   H2296     1.0  0.72357  0.58173  0.37418  1.0000
  H   H2297     1.0  0.98150  0.63268  0.47111  1.0000
  H   H2298     1.0  0.79443  0.49284  0.36811  1.0000
  C   C1303     1.0  0.86234  0.57381  0.02075  1.0000
  C   C1304     1.0  0.91405  0.71791  0.07094  1.0000
  H   H2299     1.0  0.90282  0.51607  0.49561  1.0000
  H   H2300     1.0  0.78542  0.49974  0.08456  1.0000
  H   H2301     1.0  0.61840  0.52641  0.02849  1.0000
  H   H2302     1.0  0.79342  0.48126  0.48250  1.0000
  C   C1305     1.0  0.83935  0.62369  0.48289  1.0000
  H   H2303     1.0  0.99783  0.51512  0.48235  1.0000
  H   H2304     1.0  0.83620  0.62137  0.45818  1.0000
  C   C1306     1.0  0.88259  0.68552  0.47619  1.0000
  H   H2305     1.0  0.91327  0.65826  0.47250  1.0000
  H   H2306     1.0  0.99750  0.67214  0.08944  1.0000
  H   H2307     1.0  0.96265  0.51797  0.00198  1.0000
  C   C1307     1.0  0.63606  0.48432  0.04186  1.0000
  C   C1308     1.0  0.88967  0.65701  0.47947  1.0000
  H   H2308     1.0  0.66694  0.48821  0.00457  1.0000
  C   C1309     1.0  0.98922  0.67652  0.04043  1.0000
  H   H2309     1.0  0.89997  0.61892  0.47231  1.0000
  C   C1310     1.0  0.96612  0.66866  0.49338  1.0000
  C   C1311     1.0  0.64885  0.49487  0.01687  1.0000
  H   H2310     1.0  0.97265  0.54331  0.99928  1.0000
  H   H2311     1.0  0.84708  0.67103  0.47472  1.0000
  H   H2312     1.0  0.83458  0.49820  0.49728  1.0000
  H   H2313     1.0  0.65433  0.47922  0.05704  1.0000
  C   C1312     1.0  0.00262  0.53578  0.42021  1.0000
  H   H2314     1.0  0.83297  0.64773  0.47548  1.0000
  H   H2315     1.0  0.99589  0.68788  0.03989  1.0000
  H   H2316     1.0  0.85523  0.61469  0.49320  1.0000
  H   H2317     1.0  0.60534  0.50594  0.00865  1.0000
  C   C1313     1.0  0.97048  0.65291  0.49561  1.0000
  H   H2318     1.0  0.70924  0.47448  0.10407  1.0000
  H   H2319     1.0  0.87750  0.47461  0.00209  1.0000
  Fe  Fe150     1.0  0.98076  0.70613  0.97058  1.0000
  N   N75       1.0  0.74510  0.52285  0.64120  1.0000
  H   H2320     1.0  0.53288  0.60339  0.67011  1.0000
  S   S294      1.0  0.97592  0.70454  0.58462  1.0000
  Fe  Fe151     1.0  0.96431  0.70136  0.53499  1.0000
  Fe  Fe152     1.0  0.64032  0.57075  0.77604  1.0000
  S   S295      1.0  0.65788  0.58158  0.73148  1.0000
  S   S296      1.0  0.67584  0.55714  0.80508  1.0000
  Fe  Fe153     1.0  0.57500  0.58100  0.76129  1.0000
  S   S297      1.0  0.58827  0.59225  0.71592  1.0000
  S   S298      1.0  0.52642  0.58582  0.77721  1.0000
  Fe  Fe154     1.0  0.61985  0.57187  0.70901  1.0000
  S   S299      1.0  0.62038  0.56054  0.66285  1.0000
  Fe  Fe155     1.0  0.62510  0.60111  0.74210  1.0000
  S   S300      1.0  0.62841  0.62603  0.73138  1.0000
  S   S301      1.0  0.60399  0.55972  0.75271  1.0000
  S   S302      1.0  0.61035  0.59113  0.78820  1.0000
  Fe  Fe156     1.0  0.73828  0.68960  0.76022  1.0000
  S   S303      1.0  0.72478  0.70656  0.72133  1.0000
  S   S304      1.0  0.73445  0.66430  0.76615  1.0000
  S   S305      1.0  0.73027  0.70588  0.79831  1.0000
  S   S306      1.0  0.78647  0.69380  0.75515  1.0000
  H   H2321     1.0  0.98832  0.56274  0.95821  1.0000
  S   S307      1.0  0.77295  0.49080  0.54219  1.0000
  H   H2322     1.0  0.98841  0.53451  0.50948  1.0000
  Fe  Fe157     1.0  0.72910  0.54437  0.52064  1.0000
  S   S308      1.0  0.72090  0.56210  0.55675  1.0000
  H   H2323     1.0  0.85329  0.68476  0.72108  1.0000
  H   H2324     1.0  0.53089  0.58184  0.70641  1.0000
  H   H2325     1.0  0.56127  0.55123  0.68490  1.0000
  C   C1314     1.0  0.99629  0.61457  0.97060  1.0000
  S   S309      1.0  0.69225  0.55565  0.95184  1.0000
  C   C1315     1.0  0.92506  0.71898  0.81202  1.0000
  H   H2326     1.0  0.98197  0.49873  0.96317  1.0000
  C   C1316     1.0  0.53816  0.53528  0.71244  1.0000
  C   C1317     1.0  0.65760  0.63656  0.74230  1.0000
  C   C1318     1.0  0.65468  0.65227  0.73692  1.0000
  C   C1319     1.0  0.67798  0.66101  0.74410  1.0000
  C   C1320     1.0  0.70449  0.65403  0.75639  1.0000
  C   C1321     1.0  0.70752  0.63831  0.76139  1.0000
  C   C1322     1.0  0.68404  0.62960  0.75477  1.0000
  H   H2327     1.0  0.63428  0.65772  0.72719  1.0000
  H   H2328     1.0  0.67549  0.67311  0.74011  1.0000
  H   H2329     1.0  0.72819  0.63291  0.77053  1.0000
  H   H2330     1.0  0.68649  0.61752  0.75879  1.0000
  C   C1323     1.0  0.67946  0.55664  0.84601  1.0000
  C   C1324     1.0  0.70540  0.54933  0.85943  1.0000
  C   C1325     1.0  0.70949  0.54882  0.89181  1.0000
  C   C1326     1.0  0.68758  0.55563  0.91112  1.0000
  C   C1327     1.0  0.66141  0.56273  0.89779  1.0000
  C   C1328     1.0  0.65736  0.56327  0.86535  1.0000
  H   H2331     1.0  0.72256  0.54408  0.84468  1.0000
  H   H2332     1.0  0.72970  0.54326  0.90178  1.0000
  H   H2333     1.0  0.64427  0.56794  0.91261  1.0000
  H   H2334     1.0  0.63716  0.56880  0.85532  1.0000
  C   C1329     1.0  0.64897  0.56091  0.63404  1.0000
  C   C1330     1.0  0.64581  0.55336  0.60667  1.0000
  C   C1331     1.0  0.66789  0.55340  0.58304  1.0000
  C   C1332     1.0  0.69319  0.56119  0.58639  1.0000
  C   C1333     1.0  0.69638  0.56876  0.61377  1.0000
  C   C1334     1.0  0.67450  0.56852  0.63764  1.0000
  H   H2335     1.0  0.62612  0.54744  0.60368  1.0000
  H   H2336     1.0  0.66509  0.54758  0.56203  1.0000
  H   H2337     1.0  0.71597  0.57477  0.61656  1.0000
  H   H2338     1.0  0.67729  0.57424  0.65873  1.0000
  C   C1335     1.0  0.99467  0.51584  0.59137  1.0000
  H   H2339     1.0  0.71881  0.54643  0.67932  1.0000
  H   H2340     1.0  0.84281  0.71007  0.73878  1.0000
  H   H2341     1.0  0.99087  0.52786  0.59620  1.0000
  H   H2342     1.0  0.73938  0.57647  0.93003  1.0000
  S   S310      1.0  0.93332  0.72256  0.53041  1.0000
  S   S311      1.0  0.77803  0.54514  0.97442  1.0000
  H   H2343     1.0  0.51797  0.53458  0.72750  1.0000
  H   H2344     1.0  0.56923  0.50759  0.96820  1.0000
  C   C1336     1.0  0.83723  0.71632  0.85164  1.0000
  S   S312      1.0  0.97662  0.71455  0.92032  1.0000
  H   H2345     1.0  0.00458  0.72184  0.66096  1.0000
  H   H2346     1.0  0.69896  0.51482  0.88243  1.0000
  C   C1337     1.0  0.84950  0.50307  0.57772  1.0000
  C   C1338     1.0  0.90793  0.62767  0.51728  1.0000
  H   H2347     1.0  0.67557  0.51556  0.58006  1.0000
  H   H2348     1.0  0.94986  0.52790  0.96723  1.0000
  N   N76       1.0  0.68725  0.62008  0.64682  1.0000
  C   C1339     1.0  0.70567  0.63343  0.64304  1.0000
  C   C1340     1.0  0.69347  0.61034  0.61952  1.0000
  C   C1341     1.0  0.65473  0.62578  0.64863  1.0000
  C   C1342     1.0  0.69509  0.61068  0.67615  1.0000
  C   C1343     1.0  0.72875  0.60567  0.68055  1.0000
  C   C1344     1.0  0.70491  0.64371  0.67108  1.0000
  C   C1345     1.0  0.63201  0.61361  0.64926  1.0000
  C   C1346     1.0  0.68306  0.61729  0.58738  1.0000
  C   C1347     1.0  0.68930  0.60594  0.56222  1.0000
  C   C1348     1.0  0.73398  0.59645  0.71116  1.0000
  C   C1349     1.0  0.72591  0.65620  0.66570  1.0000
  C   C1350     1.0  0.59994  0.62084  0.64976  1.0000
  H   H2349     1.0  0.69799  0.64083  0.62266  1.0000
  H   H2350     1.0  0.72939  0.62975  0.63760  1.0000
  H   H2351     1.0  0.71784  0.60722  0.61703  1.0000
  H   H2352     1.0  0.68330  0.59949  0.62360  1.0000
  H   H2353     1.0  0.64894  0.63422  0.62928  1.0000
  H   H2354     1.0  0.65021  0.63205  0.67003  1.0000
  H   H2355     1.0  0.68670  0.61661  0.69699  1.0000
  H   H2356     1.0  0.68336  0.60020  0.67706  1.0000
  H   H2357     1.0  0.74225  0.61547  0.68103  1.0000
  H   H2358     1.0  0.73742  0.59853  0.66157  1.0000
  H   H2359     1.0  0.68213  0.64919  0.67476  1.0000
  H   H2360     1.0  0.71189  0.63731  0.69283  1.0000
  H   H2361     1.0  0.63489  0.60600  0.67039  1.0000
  H   H2362     1.0  0.63454  0.60671  0.62860  1.0000
  H   H2363     1.0  0.65874  0.62063  0.58736  1.0000
  H   H2364     1.0  0.69511  0.62733  0.58068  1.0000
  H   H2365     1.0  0.67659  0.59591  0.56718  1.0000
  H   H2366     1.0  0.68231  0.61118  0.53926  1.0000
  H   H2367     1.0  0.71349  0.60221  0.56084  1.0000
  H   H2368     1.0  0.72196  0.58609  0.71160  1.0000
  H   H2369     1.0  0.75820  0.59310  0.71380  1.0000
  H   H2370     1.0  0.72637  0.60323  0.73111  1.0000
  H   H2371     1.0  0.74935  0.65138  0.66298  1.0000
  H   H2372     1.0  0.71940  0.66344  0.64475  1.0000
  H   H2373     1.0  0.58410  0.61195  0.65115  1.0000
  H   H2374     1.0  0.59596  0.62773  0.67039  1.0000
  H   H2375     1.0  0.59537  0.62808  0.62832  1.0000
  H   H2376     1.0  0.80627  0.55562  0.61871  1.0000
  H   H2377     1.0  0.88878  0.68256  0.74038  1.0000
  H   H2378     1.0  0.58843  0.58905  0.62120  1.0000
  H   H2379     1.0  0.65028  0.49583  0.94039  1.0000
  H   H2380     1.0  0.77017  0.49560  0.67861  1.0000
  H   H2381     1.0  0.91170  0.48821  0.52349  1.0000
  C   C1351     1.0  0.86576  0.68812  0.74127  1.0000
  H   H2382     1.0  0.89565  0.52778  0.94256  1.0000
  H   H2383     1.0  0.75411  0.52285  0.69027  1.0000
  H   H2384     1.0  0.65077  0.52173  0.90818  1.0000
  C   C1352     1.0  0.69038  0.50718  0.90110  1.0000
  C   C1353     1.0  0.85125  0.49089  0.97285  1.0000
  H   H2385     1.0  0.76310  0.58837  0.90773  1.0000
  Fe  Fe158     1.0  0.71935  0.72333  0.75902  1.0000
  H   H2386     1.0  0.84781  0.54023  0.92498  1.0000
  H   H2387     1.0  0.65944  0.50169  0.60551  1.0000
  C   C1354     1.0  0.65787  0.50617  0.95008  1.0000
  H   H2388     1.0  0.80922  0.48508  0.64084  1.0000
  H   H2389     1.0  0.53288  0.59607  0.62235  1.0000
  H   H2390     1.0  0.00063  0.71979  0.80613  1.0000
  C   C1355     1.0  0.79027  0.55426  0.59994  1.0000
  H   H2391     1.0  0.76311  0.53780  0.58379  1.0000
  C   C1356     1.0  0.89898  0.48177  0.50766  1.0000
  H   H2392     1.0  0.00408  0.55062  0.56760  1.0000
  C   C1357     1.0  0.54073  0.55140  0.69952  1.0000
  H   H2393     1.0  0.80822  0.51422  0.56081  1.0000
  S   S313      1.0  0.77648  0.53394  0.51734  1.0000
  H   H2394     1.0  0.96403  0.56977  0.54879  1.0000
  H   H2395     1.0  0.96284  0.51017  0.62773  1.0000
  C   C1358     1.0  0.89136  0.48207  0.92523  1.0000
  H   H2396     1.0  0.60683  0.51180  0.92913  1.0000
  C   C1359     1.0  0.86145  0.70829  0.86700  1.0000
  H   H2397     1.0  0.68988  0.53464  0.67030  1.0000
  C   C1360     1.0  0.86658  0.48932  0.58275  1.0000
  H   H2398     1.0  0.77209  0.56349  0.60034  1.0000
  C   C1361     1.0  0.82556  0.47645  0.56392  1.0000
  C   C1362     1.0  0.85029  0.70958  0.63658  1.0000
  H   H2399     1.0  0.97845  0.49939  0.67656  1.0000
  H   H2400     1.0  0.86635  0.52493  0.97115  1.0000
  S   S314      1.0  0.90319  0.48964  0.59617  1.0000
  H   H2401     1.0  0.77948  0.48000  0.61677  1.0000
  H   H2402     1.0  0.63593  0.72092  0.76115  1.0000
  H   H2403     1.0  0.99284  0.60370  0.98341  1.0000
  H   H2404     1.0  0.93417  0.61345  0.55089  1.0000
  C   C1363     1.0  0.86094  0.53773  0.52101  1.0000
  Fe  Fe159     1.0  0.72948  0.54081  0.97601  1.0000
  S   S315      1.0  0.95104  0.67816  0.52563  1.0000
  H   H2405     1.0  0.85863  0.51338  0.58335  1.0000
  H   H2406     1.0  0.96540  0.65109  0.99271  1.0000
  H   H2407     1.0  0.74166  0.49119  0.65292  1.0000
  H   H2408     1.0  0.89879  0.70919  0.89771  1.0000
  C   C1364     1.0  0.86632  0.70521  0.73984  1.0000
  H   H2409     1.0  0.53707  0.52758  0.69317  1.0000
  H   H2410     1.0  0.90431  0.70392  0.76953  1.0000
  H   H2411     1.0  0.65045  0.53535  0.96728  1.0000
  H   H2412     1.0  0.88436  0.53929  0.52699  1.0000
  C   C1365     1.0  0.60756  0.51899  0.94944  1.0000
  H   H2413     1.0  0.97039  0.49596  0.59985  1.0000
  C   C1366     1.0  0.86781  0.49316  0.91918  1.0000
  H   H2414     1.0  0.68180  0.52519  0.93159  1.0000
  C   C1367     1.0  0.54164  0.57360  0.64679  1.0000
  H   H2415     1.0  0.98021  0.62348  0.97968  1.0000
  H   H2416     1.0  0.58234  0.57380  0.59693  1.0000
  H   H2417     1.0  0.55296  0.52205  0.91926  1.0000
  H   H2418     1.0  0.72178  0.53454  0.73288  1.0000
  H   H2419     1.0  0.76983  0.50781  0.61028  1.0000
  C   C1368     1.0  0.71942  0.52286  0.61915  1.0000
  S   S316      1.0  0.79935  0.71018  0.67292  1.0000
  C   C1369     1.0  0.76826  0.50991  0.63559  1.0000
  S   S317      1.0  0.81838  0.51147  0.93408  1.0000
  H   H2420     1.0  0.88925  0.65776  0.50517  1.0000
  C   C1370     1.0  0.94245  0.52075  0.98744  1.0000
  C   C1371     1.0  0.51085  0.60094  0.68024  1.0000
  C   C1372     1.0  0.51248  0.55741  0.68087  1.0000
  H   H2421     1.0  0.79086  0.51284  0.64212  1.0000
  H   H2422     1.0  0.70423  0.53324  0.62109  1.0000
  H   H2423     1.0  0.72751  0.52337  0.59460  1.0000
  H   H2424     1.0  0.84875  0.54900  0.51683  1.0000
  S   S318      1.0  0.00421  0.71208  0.51478  1.0000
  H   H2425     1.0  0.95964  0.50735  0.93117  1.0000
  H   H2426     1.0  0.79669  0.53030  0.60292  1.0000
  H   H2427     1.0  0.71336  0.49929  0.61216  1.0000
  H   H2428     1.0  0.69467  0.50618  0.64679  1.0000
  H   H2429     1.0  0.84992  0.53188  0.54083  1.0000
  H   H2430     1.0  0.72516  0.51170  0.68177  1.0000
  C   C1373     1.0  0.87655  0.71517  0.62388  1.0000
  H   H2431     1.0  0.91364  0.54796  0.97128  1.0000
  C   C1374     1.0  0.87482  0.47978  0.97892  1.0000
  H   H2432     1.0  0.86751  0.57771  0.99720  1.0000
  H   H2433     1.0  0.87000  0.70647  0.78973  1.0000
  N   N77       1.0  0.51288  0.57305  0.66558  1.0000
  C   C1375     1.0  0.73463  0.52244  0.67478  1.0000
  C   C1376     1.0  0.80893  0.49030  0.55788  1.0000
  C   C1377     1.0  0.82100  0.50357  0.56488  1.0000
  H   H2434     1.0  0.72472  0.66335  0.68611  1.0000
  C   C1378     1.0  0.00061  0.48856  0.71731  1.0000
  H   H2435     1.0  0.67798  0.50239  0.96397  1.0000
  H   H2436     1.0  0.99377  0.48516  0.74140  1.0000
  C   C1379     1.0  0.00131  0.51312  0.55650  1.0000
  H   H2437     1.0  0.99338  0.70331  0.65518  1.0000
  C   C1380     1.0  0.97261  0.49533  0.70050  1.0000
  H   H2438     1.0  0.96416  0.56104  0.51201  1.0000
  C   C1381     1.0  0.88077  0.53324  0.96020  1.0000
  H   H2439     1.0  0.96223  0.50498  0.71321  1.0000
  C   C1382     1.0  0.95963  0.49970  0.95234  1.0000
  H   H2440     1.0  0.87621  0.48125  0.51755  1.0000
  Fe  Fe160     1.0  0.77827  0.71109  0.79085  1.0000
  H   H2441     1.0  0.92578  0.60420  0.51629  1.0000
  C   C1383     1.0  0.96709  0.50825  0.60278  1.0000
  N   N78       1.0  0.69595  0.61356  0.85698  1.0000
  C   C1384     1.0  0.69701  0.60245  0.83167  1.0000
  C   C1385     1.0  0.66429  0.61650  0.86929  1.0000
  C   C1386     1.0  0.70532  0.62825  0.84248  1.0000
  C   C1387     1.0  0.71720  0.60851  0.88300  1.0000
  C   C1388     1.0  0.71563  0.59229  0.89728  1.0000
  C   C1389     1.0  0.72784  0.59916  0.81547  1.0000
  C   C1390     1.0  0.70402  0.64162  0.86421  1.0000
  C   C1391     1.0  0.64426  0.60319  0.87066  1.0000
  C   C1392     1.0  0.61457  0.60718  0.88729  1.0000
  C   C1393     1.0  0.74115  0.58807  0.91992  1.0000
  C   C1394     1.0  0.72813  0.58547  0.79570  1.0000
  C   C1395     1.0  0.71190  0.65603  0.84633  1.0000
  H   H2442     1.0  0.68078  0.60653  0.81320  1.0000
  H   H2443     1.0  0.68945  0.59148  0.84049  1.0000
  H   H2444     1.0  0.66435  0.62094  0.89296  1.0000
  H   H2445     1.0  0.65171  0.62547  0.85452  1.0000
  H   H2446     1.0  0.69109  0.63187  0.82206  1.0000
  H   H2447     1.0  0.72868  0.62694  0.83344  1.0000
  H   H2448     1.0  0.74067  0.60975  0.87528  1.0000
  H   H2449     1.0  0.71358  0.61604  0.90272  1.0000
  H   H2450     1.0  0.71745  0.58379  0.87940  1.0000
  H   H2451     1.0  0.69459  0.59141  0.91078  1.0000
  H   H2452     1.0  0.73305  0.60887  0.79976  1.0000
  H   H2453     1.0  0.74600  0.59687  0.83254  1.0000
  H   H2454     1.0  0.72028  0.63930  0.88329  1.0000
  H   H2455     1.0  0.68142  0.64389  0.87456  1.0000
  H   H2456     1.0  0.63908  0.60019  0.84679  1.0000
  H   H2457     1.0  0.65526  0.59318  0.88294  1.0000
  H   H2458     1.0  0.61833  0.60970  0.91181  1.0000
  H   H2459     1.0  0.60220  0.61704  0.87520  1.0000
  H   H2460     1.0  0.60062  0.59749  0.88724  1.0000
  H   H2461     1.0  0.61074  0.53048  0.93913  1.0000
  H   H2462     1.0  0.84256  0.69947  0.62793  1.0000
  H   H2463     1.0  0.74006  0.59585  0.93924  1.0000
  H   H2464     1.0  0.74927  0.58428  0.78199  1.0000
  H   H2465     1.0  0.72675  0.57510  0.81091  1.0000
  H   H2466     1.0  0.70909  0.58663  0.77944  1.0000
  H   H2467     1.0  0.71114  0.66543  0.86226  1.0000
  H   H2468     1.0  0.73478  0.65456  0.83609  1.0000
  H   H2469     1.0  0.69577  0.65919  0.82737  1.0000
  C   C1396     1.0  0.89940  0.54021  0.98459  1.0000
  H   H2470     1.0  0.80220  0.55517  0.57719  1.0000
  C   C1397     1.0  0.57561  0.51929  0.96387  1.0000
  H   H2471     1.0  0.88696  0.62474  0.52913  1.0000
  H   H2472     1.0  0.74271  0.54718  0.63480  1.0000
  H   H2473     1.0  0.95499  0.48840  0.94520  1.0000
  H   H2474     1.0  0.87798  0.70845  0.71789  1.0000
  S   S319      1.0  0.98148  0.68072  0.97682  1.0000
  H   H2475     1.0  0.52993  0.52720  0.95234  1.0000
  H   H2476     1.0  0.50918  0.54913  0.66305  1.0000
  H   H2477     1.0  0.81148  0.62419  0.52487  1.0000
  H   H2478     1.0  0.56009  0.57619  0.66202  1.0000
  H   H2479     1.0  0.55734  0.53947  0.93765  1.0000
  H   H2480     1.0  0.77542  0.53905  0.65398  1.0000
  H   H2481     1.0  0.87381  0.55401  0.93111  1.0000
  C   C1398     1.0  0.51147  0.58410  0.69090  1.0000
  C   C1399     1.0  0.77753  0.53894  0.60388  1.0000
  C   C1400     1.0  0.54167  0.58449  0.61746  1.0000
  H   H2482     1.0  0.95603  0.48685  0.69935  1.0000
  H   H2483     1.0  0.67852  0.49849  0.89009  1.0000
  Fe  Fe161     1.0  0.77318  0.71179  0.71898  1.0000
  H   H2484     1.0  0.91498  0.63801  0.52712  1.0000
  C   C1401     1.0  0.70206  0.53367  0.71813  1.0000
  S   S320      1.0  0.73736  0.51600  0.96957  1.0000
  H   H2485     1.0  0.96960  0.54270  0.55875  1.0000
  H   H2486     1.0  0.70975  0.50166  0.91418  1.0000
  C   C1402     1.0  0.66923  0.51627  0.92258  1.0000
  H   H2487     1.0  0.84421  0.55095  0.95923  1.0000
  C   C1403     1.0  0.62433  0.50157  0.99402  1.0000
  C   C1404     1.0  0.84762  0.49755  0.94288  1.0000
  C   C1405     1.0  0.98938  0.54795  0.54869  1.0000
  Fe  Fe162     1.0  0.78598  0.52004  0.97104  1.0000
  Fe  Fe163     1.0  0.75543  0.51220  0.51569  1.0000
  H   H2488     1.0  0.86582  0.69636  0.86399  1.0000
  H   H2489     1.0  0.55809  0.53150  0.72657  1.0000
  H   H2490     1.0  0.54870  0.56234  0.63780  1.0000
  H   H2491     1.0  0.91382  0.50612  0.96322  1.0000
  C   C1406     1.0  0.86048  0.54540  0.94289  1.0000
  C   C1407     1.0  0.55264  0.52751  0.94185  1.0000
  H   H2492     1.0  0.88885  0.70934  0.60567  1.0000
  C   C1408     1.0  0.71061  0.53514  0.68365  1.0000
  H   H2493     1.0  0.99294  0.50285  0.88631  1.0000
  H   H2494     1.0  0.91465  0.70913  0.82308  1.0000
  H   H2495     1.0  0.88285  0.68574  0.50196  1.0000
  C   C1409     1.0  0.75970  0.53739  0.63497  1.0000
  C   C1410     1.0  0.00581  0.53731  0.52562  1.0000
  H   H2496     1.0  0.85432  0.68419  0.76294  1.0000
  H   H2497     1.0  0.65675  0.52104  0.61569  1.0000
  H   H2498     1.0  0.54395  0.55842  0.71938  1.0000
  S   S321      1.0  0.81523  0.70647  0.82702  1.0000
  C   C1411     1.0  0.57326  0.58512  0.60388  1.0000
  H   H2499     1.0  0.61600  0.49205  0.98197  1.0000
  H   H2500     1.0  0.57290  0.59300  0.58304  1.0000
  N   N79       1.0  0.63349  0.51345  0.97028  1.0000
  S   S322      1.0  0.70832  0.52236  0.52176  1.0000
  C   C1412     1.0  0.64583  0.52644  0.98526  1.0000
  C   C1413     1.0  0.93190  0.61494  0.52527  1.0000
  C   C1414     1.0  0.85448  0.47595  0.57616  1.0000
  H   H2501     1.0  0.90670  0.47872  0.90673  1.0000
  C   C1415     1.0  0.97794  0.56290  0.53238  1.0000
  H   H2502     1.0  0.96741  0.64695  0.51781  1.0000
  C   C1416     1.0  0.88020  0.71554  0.88618  1.0000
  H   H2503     1.0  0.51424  0.55498  0.76513  1.0000
  H   H2504     1.0  0.87387  0.50843  0.51837  1.0000
  H   H2505     1.0  0.97976  0.51361  0.54396  1.0000
  H   H2506     1.0  0.95383  0.61763  0.51510  1.0000
  C   C1417     1.0  0.76460  0.49468  0.65378  1.0000
  C   C1418     1.0  0.88226  0.71044  0.76852  1.0000
  H   H2507     1.0  0.69256  0.52276  0.72383  1.0000
  H   H2508     1.0  0.86511  0.49829  0.89596  1.0000
  C   C1419     1.0  0.78571  0.48210  0.64089  1.0000
  H   H2509     1.0  0.00450  0.52010  0.86834  1.0000
  H   H2510     1.0  0.94712  0.51299  0.58965  1.0000
  H   H2511     1.0  0.68488  0.54287  0.72375  1.0000
  C   C1420     1.0  0.70065  0.50911  0.62232  1.0000
  H   H2512     1.0  0.95903  0.71678  0.84758  1.0000
  C   C1421     1.0  0.67136  0.51209  0.60475  1.0000
  H   H2513     1.0  0.83578  0.49419  0.99122  1.0000
  C   C1422     1.0  0.83375  0.71701  0.66010  1.0000
  H   H2514     1.0  0.93504  0.71391  0.73631  1.0000
  S   S323      1.0  0.94325  0.72208  0.98777  1.0000
  H   H2515     1.0  0.52295  0.60875  0.72506  1.0000
  H   H2516     1.0  0.57384  0.52487  0.98619  1.0000
  C   C1423     1.0  0.93546  0.50543  0.97520  1.0000
  H   H2517     1.0  0.85068  0.64192  0.51088  1.0000
  H   H2518     1.0  0.99698  0.56936  0.52445  1.0000
  H   H2519     1.0  0.52765  0.58044  0.59920  1.0000
  H   H2520     1.0  0.94088  0.71477  0.79394  1.0000
  H   H2521     1.0  0.99155  0.61350  0.94565  1.0000
  H   H2522     1.0  0.66796  0.52293  0.99577  1.0000
  H   H2523     1.0  0.60581  0.54044  0.99855  1.0000
  H   H2524     1.0  0.00557  0.49765  0.50449  1.0000
  H   H2525     1.0  0.58044  0.72440  0.76461  1.0000
  H   H2526     1.0  0.52736  0.72430  0.82165  1.0000
  C   C1424     1.0  0.89485  0.47532  0.95509  1.0000
  H   H2527     1.0  0.93464  0.49686  0.99485  1.0000
  H   H2528     1.0  0.88400  0.54761  0.99858  1.0000
  C   C1425     1.0  0.80936  0.62246  0.49969  1.0000
  S   S324      1.0  0.54239  0.83577  0.41950  1.0000
  S   S325      1.0  0.79692  0.95447  0.20828  1.0000
  Fe  Fe164     1.0  0.65205  0.86337  0.27577  1.0000
  S   S326      1.0  0.65222  0.88144  0.23716  1.0000
  S   S327      1.0  0.60830  0.86684  0.30364  1.0000
  Fe  Fe165     1.0  0.71675  0.85086  0.25771  1.0000
  S   S328      1.0  0.72023  0.86819  0.21843  1.0000
  S   S329      1.0  0.75532  0.83338  0.27232  1.0000
  Fe  Fe166     1.0  0.69886  0.88463  0.25168  1.0000
  S   S330      1.0  0.71201  0.90697  0.26747  1.0000
  Fe  Fe167     1.0  0.67283  0.86337  0.20750  1.0000
  S   S331      1.0  0.65982  0.85995  0.15742  1.0000
  S   S332      1.0  0.69771  0.86755  0.29181  1.0000
  S   S333      1.0  0.67040  0.84496  0.24501  1.0000
  H   H2529     1.0  0.51672  0.84163  0.32157  1.0000
  S   S334      1.0  0.97874  0.75535  0.03292  1.0000
  H   H2530     1.0  0.97233  0.78092  0.07088  1.0000
  H   H2531     1.0  0.53791  0.82547  0.28008  1.0000
  C   C1426     1.0  0.58001  0.90058  0.15633  1.0000
  H   H2532     1.0  0.60558  0.85260  0.49420  1.0000
  H   H2533     1.0  0.91801  0.73721  0.46110  1.0000
  Fe  Fe168     1.0  0.93524  0.80524  0.24563  1.0000
  S   S335      1.0  0.93767  0.77988  0.25022  1.0000
  S   S336      1.0  0.89389  0.82161  0.23274  1.0000
  Fe  Fe169     1.0  0.97117  0.78162  0.28828  1.0000
  S   S337      1.0  0.97086  0.76365  0.32901  1.0000
  Fe  Fe170     1.0  0.97679  0.77988  0.21659  1.0000
  C   C1427     1.0  0.98868  0.74433  0.09440  1.0000
  S   S338      1.0  0.96690  0.80717  0.28538  1.0000
  S   S339      1.0  0.97266  0.80504  0.20961  1.0000
  C   C1428     1.0  0.97292  0.75629  0.43641  1.0000
  C   C1429     1.0  0.97008  0.74433  0.41733  1.0000
  C   C1430     1.0  0.96937  0.74685  0.38466  1.0000
  C   C1431     1.0  0.97121  0.76136  0.37051  1.0000
  C   C1432     1.0  0.97379  0.77334  0.38965  1.0000
  C   C1433     1.0  0.97473  0.77080  0.42231  1.0000
  H   H2534     1.0  0.66260  0.87945  0.39566  1.0000
  H   H2535     1.0  0.80950  0.72887  0.12369  1.0000
  H   H2536     1.0  0.56798  0.86123  0.49650  1.0000
  C   C1434     1.0  0.98216  0.75684  0.07394  1.0000
  H   H2537     1.0  0.55680  0.90680  0.46878  1.0000
  H   H2538     1.0  0.50778  0.91866  0.37687  1.0000
  C   C1435     1.0  0.98459  0.76036  0.13925  1.0000
  C   C1436     1.0  0.97856  0.77290  0.11876  1.0000
  C   C1437     1.0  0.97735  0.77113  0.08640  1.0000
  H   H2539     1.0  0.60052  0.88778  0.36788  1.0000
  H   H2540     1.0  0.90034  0.76617  0.02776  1.0000
  H   H2541     1.0  0.98860  0.80990  0.12738  1.0000
  C   C1438     1.0  0.54353  0.93895  0.02454  1.0000
  C   C1439     1.0  0.79373  0.83023  0.26075  1.0000
  C   C1440     1.0  0.81194  0.81860  0.27609  1.0000
  C   C1441     1.0  0.84243  0.81569  0.26779  1.0000
  C   C1442     1.0  0.85522  0.82434  0.24382  1.0000
  C   C1443     1.0  0.83687  0.83588  0.22828  1.0000
  C   C1444     1.0  0.80645  0.83884  0.23673  1.0000
  H   H2542     1.0  0.80245  0.81182  0.29469  1.0000
  H   H2543     1.0  0.85607  0.80679  0.28005  1.0000
  H   H2544     1.0  0.84640  0.84265  0.20969  1.0000
  H   H2545     1.0  0.79275  0.84773  0.22464  1.0000
  C   C1445     1.0  0.62257  0.85870  0.14496  1.0000
  C   C1446     1.0  0.59819  0.86006  0.16555  1.0000
  C   C1447     1.0  0.56899  0.85907  0.15484  1.0000
  C   C1448     1.0  0.56366  0.85660  0.12351  1.0000
  C   C1449     1.0  0.58809  0.85504  0.10294  1.0000
  C   C1450     1.0  0.61732  0.85617  0.11360  1.0000
  H   H2546     1.0  0.60179  0.86198  0.18973  1.0000
  H   H2547     1.0  0.55035  0.86028  0.17101  1.0000
  H   H2548     1.0  0.58447  0.85301  0.07884  1.0000
  H   H2549     1.0  0.63601  0.85501  0.09748  1.0000
  C   C1451     1.0  0.77251  0.94153  0.22417  1.0000
  C   C1452     1.0  0.76742  0.92879  0.20786  1.0000
  C   C1453     1.0  0.74832  0.91819  0.22033  1.0000
  C   C1454     1.0  0.73445  0.92026  0.24931  1.0000
  C   C1455     1.0  0.73938  0.93308  0.26535  1.0000
  C   C1456     1.0  0.75824  0.94369  0.25283  1.0000
  H   H2550     1.0  0.77829  0.92711  0.18556  1.0000
  H   H2551     1.0  0.74454  0.90840  0.20772  1.0000
  H   H2552     1.0  0.72873  0.93475  0.28778  1.0000
  H   H2553     1.0  0.76197  0.95346  0.26555  1.0000
  C   C1457     1.0  0.56139  0.84483  0.38824  1.0000
  C   C1458     1.0  0.55018  0.85867  0.37463  1.0000
  C   C1459     1.0  0.56469  0.86505  0.34854  1.0000
  C   C1460     1.0  0.59122  0.85798  0.33638  1.0000
  C   C1461     1.0  0.60293  0.84432  0.35045  1.0000
  C   C1462     1.0  0.58786  0.83771  0.37604  1.0000
  H   H2554     1.0  0.53015  0.86441  0.38398  1.0000
  H   H2555     1.0  0.55548  0.87562  0.33782  1.0000
  H   H2556     1.0  0.62329  0.83876  0.34132  1.0000
  H   H2557     1.0  0.59674  0.82699  0.38641  1.0000
  H   H2558     1.0  0.56479  0.82832  0.30917  1.0000
  H   H2559     1.0  0.77864  0.88245  0.18980  1.0000
  C   C1463     1.0  0.83457  0.93049  0.29323  1.0000
  N   N80       1.0  0.88724  0.74441  0.07874  1.0000
  C   C1464     1.0  0.87624  0.74684  0.04575  1.0000
  H   H2560     1.0  0.98827  0.82396  0.15626  1.0000
  C   C1465     1.0  0.89377  0.75956  0.08980  1.0000
  C   C1466     1.0  0.57783  0.90730  0.45477  1.0000
  H   H2561     1.0  0.97727  0.95699  0.13934  1.0000
  H   H2562     1.0  0.83202  0.90879  0.25504  1.0000
  C   C1467     1.0  0.90173  0.76004  0.12472  1.0000
  H   H2563     1.0  0.87346  0.73219  0.12070  1.0000
  C   C1468     1.0  0.57707  0.87654  0.01181  1.0000
  C   C1469     1.0  0.90225  0.77625  0.13426  1.0000
  H   H2564     1.0  0.85457  0.75391  0.04553  1.0000
  H   H2565     1.0  0.53703  0.88831  0.11996  1.0000
  H   H2566     1.0  0.97695  0.78017  0.43674  1.0000
  H   H2567     1.0  0.84810  0.74768  0.10874  1.0000
  H   H2568     1.0  0.87437  0.76795  0.08504  1.0000
  H   H2569     1.0  0.91315  0.76389  0.07671  1.0000
  C   C1470     1.0  0.80330  0.88074  0.19191  1.0000
  H   H2570     1.0  0.68894  0.95905  0.13077  1.0000
  H   H2571     1.0  0.65014  0.87527  0.35781  1.0000
  C   C1471     1.0  0.71236  0.97202  0.16329  1.0000
  H   H2572     1.0  0.76907  0.89571  0.30146  1.0000
  H   H2573     1.0  0.92420  0.75427  0.12907  1.0000
  H   H2574     1.0  0.88562  0.75458  0.14043  1.0000
  H   H2575     1.0  0.52228  0.91471  0.43208  1.0000
  H   H2576     1.0  0.56861  0.89148  0.16899  1.0000
  H   H2577     1.0  0.54831  0.81064  0.30929  1.0000
  H   H2578     1.0  0.81737  0.97260  0.15127  1.0000
  H   H2579     1.0  0.96844  0.73313  0.42766  1.0000
  H   H2580     1.0  0.87939  0.78204  0.13388  1.0000
  H   H2581     1.0  0.91099  0.77629  0.15823  1.0000
  H   H2582     1.0  0.91694  0.78262  0.11837  1.0000
  H   H2583     1.0  0.56751  0.87326  0.42577  1.0000
  N   N81       1.0  0.71896  0.81629  0.17565  1.0000
  C   C1472     1.0  0.72488  0.81469  0.21012  1.0000
  C   C1473     1.0  0.73009  0.83088  0.16272  1.0000
  C   C1474     1.0  0.68547  0.81751  0.17149  1.0000
  C   C1475     1.0  0.73277  0.80307  0.15834  1.0000
  C   C1476     1.0  0.76243  0.79501  0.17115  1.0000
  C   C1477     1.0  0.70973  0.80181  0.22824  1.0000
  C   C1478     1.0  0.67422  0.82013  0.13757  1.0000
  C   C1479     1.0  0.76414  0.83217  0.16394  1.0000
  C   C1480     1.0  0.77201  0.84799  0.15349  1.0000
  C   C1481     1.0  0.77674  0.78398  0.14821  1.0000
  C   C1482     1.0  0.72355  0.79804  0.26014  1.0000
  C   C1483     1.0  0.64083  0.81817  0.13594  1.0000
  H   H2584     1.0  0.71720  0.82529  0.22128  1.0000
  H   H2585     1.0  0.74912  0.81325  0.21491  1.0000
  H   H2586     1.0  0.72445  0.83291  0.13778  1.0000
  H   H2587     1.0  0.71853  0.84052  0.17483  1.0000
  H   H2588     1.0  0.67465  0.82680  0.18517  1.0000
  H   H2589     1.0  0.67597  0.80706  0.18076  1.0000
  H   H2590     1.0  0.71697  0.79413  0.15781  1.0000
  H   H2591     1.0  0.73661  0.80661  0.13349  1.0000
  H   H2592     1.0  0.75820  0.78848  0.19320  1.0000
  H   H2593     1.0  0.77908  0.80295  0.17613  1.0000
  H   H2594     1.0  0.68568  0.80529  0.23219  1.0000
  H   H2595     1.0  0.71132  0.79142  0.21512  1.0000
  H   H2596     1.0  0.68614  0.81213  0.12185  1.0000
  H   H2597     1.0  0.67740  0.83174  0.12848  1.0000
  H   H2598     1.0  0.77279  0.82970  0.18770  1.0000
  H   H2599     1.0  0.77597  0.82434  0.14780  1.0000
  H   H2600     1.0  0.76449  0.85095  0.12935  1.0000
  H   H2601     1.0  0.76139  0.85639  0.16919  1.0000
  H   H2602     1.0  0.79659  0.84850  0.15421  1.0000
  H   H2603     1.0  0.79741  0.77813  0.15834  1.0000
  H   H2604     1.0  0.76122  0.77540  0.14328  1.0000
  H   H2605     1.0  0.78283  0.79005  0.12612  1.0000
  H   H2606     1.0  0.71304  0.78839  0.27177  1.0000
  H   H2607     1.0  0.74796  0.79500  0.25795  1.0000
  H   H2608     1.0  0.71964  0.80780  0.27503  1.0000
  H   H2609     1.0  0.63292  0.82100  0.11189  1.0000
  H   H2610     1.0  0.63632  0.80637  0.14243  1.0000
  H   H2611     1.0  0.62794  0.82580  0.15180  1.0000
  H   H2612     1.0  0.99267  0.73328  0.08532  1.0000
  H   H2613     1.0  0.80671  0.91614  0.31964  1.0000
  H   H2614     1.0  0.87978  0.84615  0.28123  1.0000
  S   S340      1.0  0.52595  0.85619  0.11157  1.0000
  H   H2615     1.0  0.79408  0.91294  0.26590  1.0000
  H   H2616     1.0  0.73843  0.88007  0.33529  1.0000
  H   H2617     1.0  0.87448  0.85697  0.31518  1.0000
  H   H2618     1.0  0.59066  0.93077  0.49059  1.0000
  C   C1484     1.0  0.70673  0.95708  0.14843  1.0000
  C   C1485     1.0  0.69606  0.94562  0.17291  1.0000
  C   C1486     1.0  0.84184  0.72785  0.08526  1.0000
  C   C1487     1.0  0.77522  0.96957  0.12897  1.0000
  H   H2619     1.0  0.79578  0.87281  0.25105  1.0000
  H   H2620     1.0  0.81947  0.79195  0.46413  1.0000
  H   H2621     1.0  0.76855  0.87558  0.36234  1.0000
  H   H2622     1.0  0.77410  0.89009  0.24788  1.0000
  H   H2623     1.0  0.77055  0.86742  0.29382  1.0000
  H   H2624     1.0  0.54400  0.94718  0.04290  1.0000
  H   H2625     1.0  0.81580  0.93745  0.28181  1.0000
  H   H2626     1.0  0.82638  0.73457  0.06899  1.0000
  H   H2627     1.0  0.84465  0.90824  0.31402  1.0000
  H   H2628     1.0  0.80057  0.86468  0.32162  1.0000
  H   H2629     1.0  0.97068  0.96009  0.20165  1.0000
  C   C1488     1.0  0.57803  0.89928  0.12120  1.0000
  H   H2630     1.0  0.53499  0.88937  0.01663  1.0000
  H   H2631     1.0  0.75090  0.86070  0.34513  1.0000
  H   H2632     1.0  0.79949  0.89192  0.32744  1.0000
  C   C1489     1.0  0.55803  0.88992  0.02454  1.0000
  H   H2633     1.0  0.72711  0.95199  0.13704  1.0000
  H   H2634     1.0  0.69411  0.93470  0.16230  1.0000
  H   H2635     1.0  0.71208  0.94375  0.19228  1.0000
  H   H2636     1.0  0.67388  0.94961  0.18255  1.0000
  C   C1490     1.0  0.98987  0.74610  0.12676  1.0000
  S   S341      1.0  0.50650  0.85072  0.49743  1.0000
  H   H2637     1.0  0.84617  0.88187  0.31107  1.0000
  H   H2638     1.0  0.58900  0.90876  0.10950  1.0000
  H   H2639     1.0  0.89546  0.86398  0.28188  1.0000
  H   H2640     1.0  0.55180  0.88210  0.45843  1.0000
  H   H2641     1.0  0.58027  0.85086  0.46293  1.0000
  H   H2642     1.0  0.84952  0.86528  0.24995  1.0000
  H   H2643     1.0  0.55189  0.93403  0.47949  1.0000
  H   H2644     1.0  0.87317  0.74098  0.49485  1.0000
  H   H2645     1.0  0.81019  0.86856  0.19555  1.0000
  H   H2646     1.0  0.81363  0.88486  0.16980  1.0000
  H   H2647     1.0  0.72032  0.97297  0.09961  1.0000
  H   H2648     1.0  0.83980  0.80824  0.45574  1.0000
  H   H2649     1.0  0.97442  0.78392  0.12791  1.0000
  H   H2650     1.0  0.60982  0.87276  0.39646  1.0000
  H   H2651     1.0  0.59592  0.90413  0.47169  1.0000
  H   H2652     1.0  0.80880  0.90153  0.21252  1.0000
  H   H2653     1.0  0.65300  0.89454  0.36675  1.0000
  H   H2654     1.0  0.90983  0.76842  0.48229  1.0000
  H   H2655     1.0  0.91861  0.96573  0.18328  1.0000
  H   H2656     1.0  0.83834  0.88713  0.22062  1.0000
  H   H2657     1.0  0.82883  0.85848  0.28269  1.0000
  H   H2658     1.0  0.93372  0.73920  0.06674  1.0000
  H   H2659     1.0  0.99302  0.82926  0.11577  1.0000
  C   C1491     1.0  0.91573  0.73421  0.08067  1.0000
  H   H2660     1.0  0.85994  0.88798  0.27431  1.0000
  H   H2661     1.0  0.56237  0.91070  0.39013  1.0000
  H   H2662     1.0  0.88410  0.73699  0.43961  1.0000
  C   C1492     1.0  0.00101  0.95910  0.13504  1.0000
  H   H2663     1.0  0.85962  0.75711  0.47017  1.0000
  H   H2664     1.0  0.60367  0.88012  0.48317  1.0000
  H   H2665     1.0  0.87151  0.73607  0.03601  1.0000
  H   H2666     1.0  0.62718  0.89347  0.43159  1.0000
  H   H2667     1.0  0.85410  0.92987  0.27703  1.0000
  H   H2668     1.0  0.72726  0.96907  0.18356  1.0000
  H   H2669     1.0  0.84073  0.93614  0.31424  1.0000
  C   C1493     1.0  0.60935  0.89570  0.41396  1.0000
  H   H2670     1.0  0.92408  0.73317  0.10488  1.0000
  C   C1494     1.0  0.55919  0.88957  0.06035  1.0000
  H   H2671     1.0  0.55365  0.87822  0.06942  1.0000
  C   C1495     1.0  0.61478  0.88426  0.38817  1.0000
  C   C1496     1.0  0.57248  0.88107  0.44384  1.0000
  H   H2672     1.0  0.57903  0.94602  0.46320  1.0000
  C   C1497     1.0  0.89857  0.76060  0.49874  1.0000
  C   C1498     1.0  0.52355  0.90482  0.41747  1.0000
  N   N82       1.0  0.57889  0.89627  0.42937  1.0000
  C   C1499     1.0  0.64717  0.88339  0.37653  1.0000
  H   H2673     1.0  0.61329  0.90685  0.40261  1.0000
  H   H2674     1.0  0.76813  0.96824  0.10488  1.0000
  H   H2675     1.0  0.58309  0.89035  0.06552  1.0000
  H   H2676     1.0  0.52659  0.82665  0.35056  1.0000
  H   H2677     1.0  0.96732  0.73748  0.37017  1.0000
  C   C1500     1.0  0.80881  0.97123  0.12765  1.0000
  C   C1501     1.0  0.55572  0.90094  0.40504  1.0000
  H   H2678     1.0  0.59088  0.88857  0.11562  1.0000
  H   H2679     1.0  0.77178  0.95919  0.14339  1.0000
  H   H2680     1.0  0.97530  0.78455  0.37923  1.0000
  N   N83       1.0  0.81151  0.89013  0.27872  1.0000
  C   C1502     1.0  0.79765  0.88512  0.24978  1.0000
  C   C1503     1.0  0.79000  0.88827  0.30573  1.0000
  C   C1504     1.0  0.81532  0.90677  0.27387  1.0000
  C   C1505     1.0  0.84168  0.88190  0.28573  1.0000
  C   C1506     1.0  0.84720  0.86544  0.27561  1.0000
  C   C1507     1.0  0.81378  0.88936  0.21875  1.0000
  C   C1508     1.0  0.82541  0.91475  0.30252  1.0000
  C   C1509     1.0  0.78093  0.87218  0.31383  1.0000
  C   C1510     1.0  0.75832  0.87219  0.34081  1.0000
  C   C1511     1.0  0.87601  0.85774  0.28940  1.0000
  H   H2681     1.0  0.57158  0.91697  0.05967  1.0000
  H   H2682     1.0  0.61761  0.86972  0.45058  1.0000
  H   H2683     1.0  0.82223  0.80559  0.49337  1.0000
  H   H2684     1.0  0.56965  0.91166  0.16325  1.0000
  C   C1512     1.0  0.89788  0.74421  0.45262  1.0000
  C   C1513     1.0  0.89717  0.75448  0.02189  1.0000
  H   H2685     1.0  0.86224  0.96880  0.34585  1.0000
  C   C1514     1.0  0.54729  0.91711  0.06539  1.0000
  H   H2686     1.0  0.53202  0.90806  0.12375  1.0000
  C   C1515     1.0  0.58126  0.92395  0.44407  1.0000
  C   C1516     1.0  0.51908  0.82926  0.32638  1.0000
  H   H2687     1.0  0.54364  0.92505  0.08443  1.0000
  H   H2688     1.0  0.00218  0.97011  0.12213  1.0000
  S   S342      1.0  0.82867  0.97317  0.28203  1.0000
  C   C1517     1.0  0.97763  0.97174  0.19795  1.0000
  C   C1518     1.0  0.57536  0.93427  0.47107  1.0000
  H   H2689     1.0  0.60381  0.89948  0.16326  1.0000
  C   C1519     1.0  0.54393  0.82298  0.30483  1.0000
  H   H2690     1.0  0.91922  0.74806  0.02077  1.0000
  H   H2691     1.0  0.90493  0.75339  0.43639  1.0000
  C   C1520     1.0  0.54513  0.89920  0.11087  1.0000
  H   H2692     1.0  0.55432  0.89178  0.38875  1.0000
  H   H2693     1.0  0.60433  0.92527  0.43533  1.0000
  S   S343      1.0  0.97472  0.75385  0.47778  1.0000
  H   H2694     1.0  0.82461  0.97212  0.36058  1.0000
  C   C1521     1.0  0.59736  0.87293  0.46462  1.0000
  S   S344      1.0  0.98526  0.76171  0.18048  1.0000
  C   C1522     1.0  0.99845  0.82023  0.13401  1.0000
  H   H2695     1.0  0.56928  0.86574  0.02144  1.0000
  H   H2696     1.0  0.56550  0.92803  0.42541  1.0000
  H   H2697     1.0  0.87431  0.78565  0.46589  1.0000
  C   C1523     1.0  0.58707  0.85852  0.48047  1.0000
  C   C1524     1.0  0.86320  0.73829  0.09974  1.0000
  H   H2698     1.0  0.52890  0.91724  0.01777  1.0000
  H   H2699     1.0  0.50725  0.80757  0.42331  1.0000
  C   C1525     1.0  0.52971  0.92476  0.03715  1.0000
  N   N84       1.0  0.53959  0.90150  0.07632  1.0000
  C   C1526     1.0  0.86303  0.79106  0.48604  1.0000
  H   H2700     1.0  0.82070  0.96100  0.11827  1.0000
  C   C1527     1.0  0.50725  0.89902  0.07122  1.0000
  H   H2701     1.0  0.85510  0.96925  0.38737  1.0000
  H   H2702     1.0  0.00172  0.94743  0.09210  1.0000
  H   H2703     1.0  0.51568  0.89523  0.43166  1.0000
  H   H2704     1.0  0.56717  0.90025  0.01427  1.0000
  C   C1528     1.0  0.83429  0.79970  0.47420  1.0000
  H   H2705     1.0  0.56656  0.93611  0.01566  1.0000
  H   H2706     1.0  0.99979  0.95632  0.24713  1.0000
  H   H2707     1.0  0.99471  0.73631  0.14230  1.0000
  C   C1529     1.0  0.87977  0.75068  0.47990  1.0000
  H   H2708     1.0  0.60088  0.87698  0.01784  1.0000
  H   H2709     1.0  0.52999  0.94426  0.00492  1.0000
  H   H2710     1.0  0.87731  0.79947  0.49448  1.0000
  C   C1530     1.0  0.84823  0.97430  0.36421  1.0000
  Fe  Fe171     1.0  0.00460  0.80540  0.24947  1.0000
  Fe  Fe172     1.0  0.80678  0.97445  0.23563  1.0000
  H   H2711     1.0  0.50696  0.80606  0.86110  1.0000
  H   H2712     1.0  0.92575  0.76194  0.57174  1.0000
  S   S345      1.0  0.53819  0.75035  0.76970  1.0000
  H   H2713     1.0  0.87696  0.74634  0.66549  1.0000
  H   H2714     1.0  0.96946  0.72774  0.70162  1.0000
  H   H2715     1.0  0.60107  0.78922  0.81479  1.0000
  S   S346      1.0  0.97519  0.74792  0.94685  1.0000
  H   H2716     1.0  0.54401  0.79466  0.67446  1.0000
  H   H2717     1.0  0.58702  0.81307  0.70963  1.0000
  H   H2718     1.0  0.54906  0.76762  0.93928  1.0000
  H   H2719     1.0  0.54761  0.81191  0.71790  1.0000
  C   C1531     1.0  0.59924  0.76532  0.67412  1.0000
  H   H2720     1.0  0.88364  0.73168  0.81832  1.0000
  C   C1532     1.0  0.57308  0.79023  0.71313  1.0000
  H   H2721     1.0  0.60047  0.76444  0.95853  1.0000
  C   C1533     1.0  0.50792  0.87611  0.58845  1.0000
  H   H2722     1.0  0.56173  0.79295  0.80762  1.0000
  C   C1534     1.0  0.94551  0.73168  0.70381  1.0000
  C   C1535     1.0  0.52789  0.86268  0.93062  1.0000
  S   S347      1.0  0.68189  0.74283  0.76020  1.0000
  C   C1536     1.0  0.57859  0.79020  0.82603  1.0000
  C   C1537     1.0  0.59324  0.73412  0.76457  1.0000
  H   H2723     1.0  0.57472  0.77573  0.91208  1.0000
  H   H2724     1.0  0.51320  0.82927  0.63213  1.0000
  H   H2725     1.0  0.52111  0.93102  0.77168  1.0000
  H   H2726     1.0  0.59587  0.78537  0.71910  1.0000
  H   H2727     1.0  0.67572  0.77005  0.66857  1.0000
  C   C1538     1.0  0.57301  0.77533  0.84353  1.0000
  C   C1539     1.0  0.85377  0.73487  0.76949  1.0000
  H   H2728     1.0  0.82387  0.76233  0.55301  1.0000
  H   H2729     1.0  0.52883  0.79246  0.62738  1.0000
  Fe  Fe173     1.0  0.97952  0.73751  0.99564  1.0000
  H   H2730     1.0  0.94842  0.73016  0.75333  1.0000
  H   H2731     1.0  0.62709  0.78460  0.67483  1.0000
  H   H2732     1.0  0.65766  0.75290  0.66625  1.0000
  H   H2733     1.0  0.97013  0.77520  0.58064  1.0000
  C   C1540     1.0  0.53686  0.78353  0.58273  1.0000
  C   C1541     1.0  0.57815  0.74854  0.76650  1.0000
  H   H2734     1.0  0.62926  0.77506  0.63904  1.0000
  C   C1542     1.0  0.81821  0.75825  0.77498  1.0000
  C   C1543     1.0  0.64189  0.74449  0.76275  1.0000
  C   C1544     1.0  0.62675  0.75890  0.76479  1.0000
  C   C1545     1.0  0.59523  0.76091  0.76673  1.0000
  H   H2735     1.0  0.84298  0.73403  0.74669  1.0000
  H   H2736     1.0  0.81315  0.73804  0.84444  1.0000
  H   H2737     1.0  0.63959  0.76859  0.76516  1.0000
  H   H2738     1.0  0.58423  0.77199  0.76917  1.0000
  H   H2739     1.0  0.86357  0.75851  0.75922  1.0000
  H   H2740     1.0  0.51433  0.78791  0.57446  1.0000
  H   H2741     1.0  0.89994  0.76054  0.97252  1.0000
  H   H2742     1.0  0.53011  0.90985  0.94827  1.0000
  S   S348      1.0  0.76747  0.72966  0.75403  1.0000
  C   C1546     1.0  0.65574  0.76421  0.67602  1.0000
  C   C1547     1.0  0.51057  0.92710  0.62237  1.0000
  H   H2743     1.0  0.94331  0.74416  0.70090  1.0000
  C   C1548     1.0  0.93356  0.72637  0.73558  1.0000
  H   H2744     1.0  0.85886  0.75364  0.79999  1.0000
  C   C1549     1.0  0.84076  0.75288  0.54829  1.0000
  H   H2745     1.0  0.94683  0.76497  0.53642  1.0000
  C   C1550     1.0  0.54505  0.76504  0.68007  1.0000
  C   C1551     1.0  0.93195  0.77055  0.55389  1.0000
  H   H2746     1.0  0.53169  0.72919  0.87770  1.0000
  N   N85       1.0  0.88250  0.76903  0.52435  1.0000
  N   N86       1.0  0.56969  0.77372  0.66579  1.0000
  H   H2747     1.0  0.51533  0.73032  0.67391  1.0000
  C   C1552     1.0  0.95020  0.78149  0.56988  1.0000
  H   H2748     1.0  0.90294  0.74550  0.74229  1.0000
  C   C1553     1.0  0.55703  0.75486  0.89715  1.0000
  H   H2749     1.0  0.87314  0.76332  0.57321  1.0000
  H   H2750     1.0  0.55293  0.79181  0.57503  1.0000
  H   H2751     1.0  0.55664  0.78419  0.72733  1.0000
  N   N87       1.0  0.88507  0.72715  0.76938  1.0000
  H   H2752     1.0  0.54940  0.74471  0.90997  1.0000
  H   H2753     1.0  0.57685  0.75063  0.88325  1.0000
  H   H2754     1.0  0.57763  0.79948  0.84225  1.0000
  C   C1554     1.0  0.90414  0.77889  0.53789  1.0000
  H   H2755     1.0  0.84619  0.75091  0.87827  1.0000
  Fe  Fe174     1.0  0.94150  0.73144  0.93814  1.0000
  H   H2756     1.0  0.65561  0.76282  0.70181  1.0000
  H   H2757     1.0  0.88881  0.74803  0.55234  1.0000
  H   H2758     1.0  0.59118  0.77279  0.86056  1.0000
  N   N88       1.0  0.53280  0.76199  0.87610  1.0000
  H   H2759     1.0  0.53447  0.92346  0.61817  1.0000
  C   C1555     1.0  0.56742  0.76498  0.92234  1.0000
  C   C1556     1.0  0.88422  0.75533  0.98924  1.0000
  H   H2760     1.0  0.83621  0.74881  0.52521  1.0000
  H   H2761     1.0  0.58360  0.78304  0.62104  1.0000
  C   C1557     1.0  0.57040  0.80654  0.72257  1.0000
  C   C1558     1.0  0.54191  0.77633  0.85988  1.0000
  H   H2762     1.0  0.93324  0.72698  0.68494  1.0000
  H   H2763     1.0  0.54315  0.77266  0.57200  1.0000
  H   H2764     1.0  0.83875  0.77263  0.50326  1.0000
  H   H2765     1.0  0.53819  0.85164  0.93997  1.0000
  H   H2766     1.0  0.90944  0.74185  0.79607  1.0000
  H   H2767     1.0  0.52712  0.81260  0.91171  1.0000
  C   C1559     1.0  0.51477  0.73615  0.86357  1.0000
  H   H2768     1.0  0.57457  0.80683  0.74785  1.0000
  C   C1560     1.0  0.87267  0.75820  0.55017  1.0000
  H   H2769     1.0  0.60183  0.75438  0.66278  1.0000
  H   H2770     1.0  0.80924  0.75739  0.75135  1.0000
  H   H2771     1.0  0.52920  0.87100  0.94867  1.0000
  H   H2772     1.0  0.51718  0.88059  0.56606  1.0000
  H   H2773     1.0  0.54080  0.86622  0.90966  1.0000
  H   H2774     1.0  0.50872  0.77511  0.91070  1.0000
  H   H2775     1.0  0.80436  0.75211  0.79217  1.0000
  C   C1561     1.0  0.90023  0.73066  0.79891  1.0000
  H   H2776     1.0  0.81652  0.77030  0.78051  1.0000
  C   C1562     1.0  0.85080  0.75183  0.77640  1.0000
  H   H2777     1.0  0.91325  0.78653  0.51953  1.0000
  C   C1563     1.0  0.62480  0.73209  0.76264  1.0000
  C   C1564     1.0  0.56694  0.78929  0.67807  1.0000
  H   H2778     1.0  0.51587  0.74136  0.70758  1.0000
  H   H2779     1.0  0.56291  0.74152  0.67580  1.0000
  S   S349      1.0  0.98705  0.73910  0.56200  1.0000
  S   S350      1.0  0.91755  0.73677  0.61673  1.0000
  C   C1565     1.0  0.53620  0.78140  0.61815  1.0000
  H   H2780     1.0  0.60007  0.76222  0.69950  1.0000
  H   H2781     1.0  0.52544  0.78043  0.84171  1.0000
  H   H2782     1.0  0.57481  0.76645  0.82654  1.0000
  C   C1566     1.0  0.85054  0.73899  0.87515  1.0000
  H   H2783     1.0  0.95793  0.79012  0.55275  1.0000
  H   H2784     1.0  0.51290  0.91978  0.67034  1.0000
  H   H2785     1.0  0.58171  0.79678  0.66474  1.0000
  S   S351      1.0  0.89836  0.74072  0.91363  1.0000
  H   H2786     1.0  0.57382  0.76437  0.62026  1.0000
  H   H2787     1.0  0.58728  0.74638  0.95213  1.0000
  C   C1567     1.0  0.56730  0.77528  0.63084  1.0000
  C   C1568     1.0  0.84387  0.73016  0.67087  1.0000
  C   C1569     1.0  0.62745  0.77345  0.66470  1.0000
  C   C1570     1.0  0.83180  0.73174  0.85587  1.0000
  H   H2788     1.0  0.92832  0.73030  0.85536  1.0000
  H   H2789     1.0  0.51975  0.93905  0.66246  1.0000
  H   H2790     1.0  0.54148  0.78550  0.87639  1.0000
  H   H2791     1.0  0.51901  0.77351  0.62449  1.0000
  H   H2792     1.0  0.89236  0.78624  0.55517  1.0000
  C   C1571     1.0  0.94314  0.72566  0.83676  1.0000
  H   H2793     1.0  0.51005  0.88450  0.60620  1.0000
  H   H2794     1.0  0.83951  0.72908  0.78693  1.0000
  H   H2795     1.0  0.54810  0.74786  0.83872  1.0000
  C   C1572     1.0  0.86982  0.73593  0.65768  1.0000
  C   C1573     1.0  0.87489  0.73095  0.89037  1.0000
  H   H2796     1.0  0.81290  0.73669  0.57096  1.0000
  H   H2797     1.0  0.57533  0.87686  0.98610  1.0000
  H   H2798     1.0  0.61310  0.75459  0.92467  1.0000
  H   H2799     1.0  0.54772  0.76348  0.70566  1.0000
  C   C1574     1.0  0.59367  0.75705  0.94046  1.0000
  Fe  Fe175     1.0  0.94786  0.72647  0.57881  1.0000
  H   H2800     1.0  0.52302  0.77158  0.67691  1.0000
  C   C1575     1.0  0.52712  0.75114  0.85167  1.0000
  Fe  Fe176     1.0  0.97437  0.73370  0.51351  1.0000
  C   C1576     1.0  0.50806  0.91347  0.95692  1.0000
  H   H2801     1.0  0.51178  0.75665  0.83369  1.0000
  H   H2802     1.0  0.93674  0.78709  0.58849  1.0000
  H   H2803     1.0  0.83107  0.73615  0.68849  1.0000
  S   S352      1.0  0.51723  0.94092  0.92816  1.0000
  H   H2804     1.0  0.84523  0.78536  0.53190  1.0000
  H   H2805     1.0  0.52223  0.92121  0.52110  1.0000
  C   C1577     1.0  0.50718  0.72694  0.83633  1.0000
  H   H2806     1.0  0.88827  0.73211  0.71981  1.0000
  H   H2807     1.0  0.52076  0.95092  0.76141  1.0000
  C   C1578     1.0  0.85620  0.77920  0.51234  1.0000
  H   H2808     1.0  0.86251  0.76225  0.98847  1.0000
  C   C1579     1.0  0.51556  0.74194  0.68176  1.0000
  H   H2809     1.0  0.85188  0.73023  0.56840  1.0000
  C   C1580     1.0  0.54309  0.74902  0.66834  1.0000
  C   C1581     1.0  0.90129  0.73321  0.74109  1.0000
  C   C1582     1.0  0.88620  0.72852  0.63401  1.0000
  H   H2810     1.0  0.54171  0.74917  0.64268  1.0000
  H   H2811     1.0  0.95590  0.73483  0.82632  1.0000
  H   H2812     1.0  0.83899  0.74390  0.59630  1.0000
  C   C1583     1.0  0.83594  0.74015  0.57249  1.0000
  H   H2813     1.0  0.91710  0.75289  0.50850  1.0000
  H   H2814     1.0  0.88103  0.74389  0.98167  1.0000
  H   H2815     1.0  0.52117  0.86543  0.59544  1.0000
  C   C1584     1.0  0.50726  0.94192  0.77132  1.0000
  H   H2816     1.0  0.50655  0.93113  0.71607  1.0000
