data_image0
_chemical_formula_structural       HSHC2HFeH4SHFeHCFeSH2SH2CH4SHCH9CHCH4CH3CHNHSC2SNC7H3C2H17NH4CH5CHFeHSH2CHC3HCH2C3HCH2CH5C2H2FeC2H2CFeHCHC2FeCH4CH3CSHNCH3C2H4C2HC2HC2H4CHC2HCH5SH3FeCHSC3HCNCH5CHCH5NH5C4HC2H3CHCH2CHSH2CHCNC2H2C4H4SC2HCHSCH4SH2C2H2S3CH3FeS2FeS2FeSFeS3FeS2FeS2FeSFeS3C2FeS2H2FeHFeHS2FeCSCSH3CS3H2C2H2CHFeH2C3H3C3H2C8H4C6H5C6H5CHC8H6CH3C2H2C2HCH2CH2CHCH7S2H2CH2CHCHC2HC4H6CH3CH2NH2CHCHCH2CSH2CSH2CH2C2H8CNC12H24NH3NC6H18C2HFeH3CHC3SCNH3CHNH2CHC2H3C2H5CFe2H3C2HCH2CHCH5C3H4CH5C3H5CH3CH4C2H3NH2CHC2H2CHCH3C2H4CHCHCH2SCH2CFe2S2CSH2CHFeCHCS2HC2H8CHCH3CHSH2C2H2C2SHCH3NHSC2H4CH2CHC2SC3HCSCHSH3CH3CHC2NC2H2C4HC3H3NCHC5H2C3H22FeH3CH6FeH4SHCSH2FeCH6CHCH6C3HCH2CHNSCH2C2HCH2CSH2CH2CHCH4FeHSH4SCFeH4S2CFeS2FeS2FeSFeS3FeS2FeS2FeSFeS3HCFeS2NH2CNCS2FeHSH3CH2S3H2CHCHCHCHC2H6C2H2C8H4C6H5C6H7C8H6NC10H10CH5CH2CHCH3NC12H22CFeH4C2NCSHCHCH5CH6CHFeHC3H5CH3CHCHCHCH3CH5CH2FeH5CH2C2H2CHCH9CSCHFeCHCHCH2CH5NHCH2CH3C3HFeH4CHCH6CH5CHC3H5CH3CFeH2CH3SC2H6CHCHC2H5SC5HCH8CHFeS2FeS2FeSFeS3FeS2FeHSHSFeSCSHC2HCH2C6H4C6H4CH3C3HCH5C4H3CSCH2CH7CH8NH3C2H3FeHCHCHCH3C2HCH2C2HCH2CHC2H3CH2C3H3CHC2H8NCHCH3C2HNC10H20CH4CH2C2SH2CH2CH4CH5NHCH4CHCH2CH3NH6CHC2HNH8CSFeS2FeS2FeSFeS3HS2FeS2H3CSHCHC7H4C6H4CH4C2HC4HCH11CH2NCHC6HC2H2CH5SH7CH15NFeC2HCHCSH3C3H3CH3CH11C2H2CH3NCH5C5H2CH3CH2CH2C2HCH3CH4C3H6C2H3CHCH4C4HCFeH2C2FeC3HCH2C2H2CH4CHCHCH5CHCHCFeS2FeS2FeSFeS3FeS2FeCSHSFeSHSCHCH2CHC6H4C6H5CH3C2H4CHCHC3H2CFeHC3H5C2HCH9CH3SHC3HC2HSHCH5C3HNC9HC2H18C3H7NC10H16C2H7NH3NCH5CHCH2CH3CHC2HC2H4CH3C3H7SCH2C3H2CHC3HCHCH3C2H3CFeS2FeS2FeSFeS3C2SFeS2C2HCS2H2NC6H4C6H4CH4SHC5H5C2HSHC2H4CH3CHC3H3C3H15CHFeCH3C3HCFeCHC3HC3HCH7NH3CHC2H2FeH2CH2C2H4CNC12H30CH7CSH3CH6C2HC2NH5CH6SH2FeS2FeS2FeSFeHS2FeS2FeS2FeSFeS3FeS2HCHFeSCS2CFeS2H3FeCS2H2C2HC3H6C2H2NHC6H4C6H4CH4C6H4CH2CH3CH3C7H3NHC5H2CH5C2H2CH2C2HCH3SHCH8CH2C2H2C2H6CH7CHC2SHCHCHC2HCH3FeCHNHFeH3CNSH4C6H6SHCH5CH6NC12H29CHFeH4CH3NC12H24CH5CH3C2FeH2C2H3SH4SH4C2HSCHC4HC3FeHNCSCFeHFeHSH3SH2CFe3HSHCH4NH2CHC2SH4CH6CHSHC2HCHCH4CHCH5CH2SH6CH3CH8C2SH6FeC4HC4H2C2H3CS2H2C2H12C2FeCH2CHSC2H3CH2NC11H17CH2C3HC3HC2S2HSHCHC4H3SC2H8CSCHC2H3SH2CNHSCHCH3FeS2FeSHFeSFeS3FeS2FeS2FeSFeS3Fe2SHS2FeSHS2HFeS2HC2H2S2H4CH2CH6CNCH2C7H4C6H4CH2CHC6H5CH4C2H4C6HNC12H28NC7HCHC2H2CH9CH2CHCH3CH3C2HCH3C5HC2H6CHCHCHCH13C2H8FeH7C3H2FeHFeSH2C2NHCNC10NH11CH8SH2CH2CFeHCHCNC4HCHC2HSH7CH3CH11C4H3CHSHCHCSH5C2H2CHCHCH3C2H4C2H4CH3C3HSHSH3FeHFeH3FeSH2FeHFeHSC4HSH2SHCHCHCH8FeHNH2CH5C2HCHSCH4C2H2C2HCH2C3H3C2H4CHC2H2CH2CSHCHNHC4H2CH2CH2C2H6CH7CH2CHCSHC2HCHCH3CHC3H12CH4CH2CSH5C2HNC11H26CH3CHS2HCNC6HC3SHC2H2NHCNSHSCH2CFe2H6C2HCH3CH3
_chemical_formula_sum              "H2048 S256 C1152 Fe128 N64"
_cell_length_a       81.4731
_cell_length_b       46.2787
_cell_length_c       36.7583
_cell_angle_alpha    89.8463
_cell_angle_beta     94.6539
_cell_angle_gamma    88.8315

_space_group_name_H-M_alt    "P 1"
_space_group_IT_number       1

loop_
  _space_group_symop_operation_xyz
  'x, y, z'

loop_
  _atom_site_type_symbol
  _atom_site_label
  _atom_site_symmetry_multiplicity
  _atom_site_fract_x
  _atom_site_fract_y
  _atom_site_fract_z
  _atom_site_occupancy
  H   H1        1.0  0.22450  0.24877  0.08009  1.0000
  S   S1        1.0  0.27247  0.44538  0.40446  1.0000
  H   H2        1.0  0.01392  0.19273  0.41190  1.0000
  C   C1        1.0  0.27187  0.47272  0.18865  1.0000
  C   C2        1.0  0.22357  0.24074  0.05158  1.0000
  H   H3        1.0  0.08608  0.01619  0.01588  1.0000
  Fe  Fe1       1.0  0.25806  0.44545  0.45447  1.0000
  H   H4        1.0  0.29218  0.02218  0.31364  1.0000
  H   H5        1.0  0.30039  0.46405  0.23238  1.0000
  H   H6        1.0  0.22814  0.04746  0.40206  1.0000
  H   H7        1.0  0.24398  0.05769  0.33446  1.0000
  S   S2        1.0  0.26851  0.01016  0.39516  1.0000
  H   H8        1.0  0.06487  0.05999  0.00783  1.0000
  Fe  Fe2       1.0  0.25161  0.99781  0.43753  1.0000
  H   H9        1.0  0.18817  0.35382  0.39123  1.0000
  C   C3        1.0  0.19835  0.13450  0.41095  1.0000
  Fe  Fe3       1.0  0.21090  0.43514  0.05572  1.0000
  S   S3        1.0  0.21788  0.38687  0.05741  1.0000
  H   H10       1.0  0.01877  0.13711  0.29816  1.0000
  H   H11       1.0  0.20079  0.12329  0.43771  1.0000
  S   S4        1.0  0.19293  0.44984  0.09620  1.0000
  H   H12       1.0  0.28533  0.27234  0.03453  1.0000
  H   H13       1.0  0.29179  0.42853  0.26789  1.0000
  C   C4        1.0  0.23597  0.46683  0.27798  1.0000
  H   H14       1.0  0.01384  0.45713  0.04732  1.0000
  H   H15       1.0  0.25619  0.12751  0.48405  1.0000
  H   H16       1.0  0.16041  0.25971  0.03426  1.0000
  H   H17       1.0  0.11448  0.42492  0.09760  1.0000
  S   S5        1.0  0.23610  0.46827  0.42559  1.0000
  H   H18       1.0  0.21093  0.08311  0.04116  1.0000
  C   C5        1.0  0.09366  0.02119  0.07241  1.0000
  H   H19       1.0  0.25278  0.06520  0.40078  1.0000
  H   H20       1.0  0.99899  0.26162  0.46946  1.0000
  H   H21       1.0  0.19313  0.04579  0.36382  1.0000
  H   H22       1.0  0.26993  0.45911  0.24391  1.0000
  H   H23       1.0  0.23580  0.24271  0.04060  1.0000
  H   H24       1.0  0.27710  0.46738  0.30427  1.0000
  H   H25       1.0  0.18945  0.40610  0.38226  1.0000
  H   H26       1.0  0.03090  0.12642  0.33972  1.0000
  H   H27       1.0  0.19561  0.32369  0.44627  1.0000
  C   C6        1.0  0.20058  0.11351  0.37956  1.0000
  H   H28       1.0  0.18207  0.30507  0.41353  1.0000
  C   C7        1.0  0.28830  0.41305  0.32141  1.0000
  H   H29       1.0  0.27390  0.31230  0.05049  1.0000
  H   H30       1.0  0.09146  0.01185  0.09941  1.0000
  H   H31       1.0  0.20554  0.43853  0.44820  1.0000
  H   H32       1.0  0.20962  0.00573  0.42304  1.0000
  C   C8        1.0  0.98882  0.25198  0.34558  1.0000
  H   H33       1.0  0.30782  0.33926  0.06934  1.0000
  H   H34       1.0  0.30673  0.24633  0.09997  1.0000
  H   H35       1.0  0.98674  0.24577  0.31642  1.0000
  C   C9        1.0  0.22865  0.36622  0.02598  1.0000
  H   H36       1.0  0.03468  0.03163  0.03802  1.0000
  N   N1        1.0  0.29730  0.48907  0.28127  1.0000
  H   H37       1.0  0.06205  0.03199  0.05733  1.0000
  S   S6        1.0  0.14841  0.01146  0.01856  1.0000
  C   C10       1.0  0.20256  0.04201  0.38682  1.0000
  C   C11       1.0  0.23397  0.37830  0.99419  1.0000
  S   S7        1.0  0.26942  0.48732  0.47531  1.0000
  N   N2        1.0  0.21933  0.37434  0.37315  1.0000
  C   C12       1.0  0.20945  0.37679  0.33665  1.0000
  C   C13       1.0  0.21645  0.40158  0.39450  1.0000
  C   C14       1.0  0.23734  0.37297  0.36593  1.0000
  C   C15       1.0  0.21545  0.34778  0.39476  1.0000
  C   C16       1.0  0.19759  0.33646  0.38963  1.0000
  C   C17       1.0  0.21332  0.35334  0.30829  1.0000
  C   C18       1.0  0.24978  0.37361  0.40012  1.0000
  H   H38       1.0  0.22785  0.32718  0.05780  1.0000
  H   H39       1.0  0.03577  0.44314  0.00860  1.0000
  H   H40       1.0  0.30905  0.05954  0.34396  1.0000
  C   C19       1.0  0.19985  0.35245  0.27688  1.0000
  C   C20       1.0  0.26712  0.36459  0.39116  1.0000
  H   H41       1.0  0.21159  0.39813  0.32373  1.0000
  H   H42       1.0  0.09209  0.41639  0.05003  1.0000
  H   H43       1.0  0.22440  0.40164  0.42051  1.0000
  H   H44       1.0  0.22007  0.42079  0.37877  1.0000
  H   H45       1.0  0.24034  0.39117  0.34782  1.0000
  H   H46       1.0  0.24018  0.35280  0.35108  1.0000
  H   H47       1.0  0.22356  0.32912  0.38828  1.0000
  H   H48       1.0  0.21845  0.35160  0.42446  1.0000
  H   H49       1.0  0.02596  0.17481  0.36617  1.0000
  H   H50       1.0  0.11853  0.44289  0.05581  1.0000
  H   H51       1.0  0.22505  0.35834  0.29632  1.0000
  H   H52       1.0  0.21470  0.33157  0.32101  1.0000
  H   H53       1.0  0.24617  0.35897  0.42185  1.0000
  H   H54       1.0  0.25046  0.39593  0.41087  1.0000
  H   H55       1.0  0.00155  0.13884  0.44997  1.0000
  H   H56       1.0  0.19939  0.45406  0.40370  1.0000
  H   H57       1.0  0.19973  0.05585  0.41025  1.0000
  N   N3        1.0  0.22227  0.07647  0.35658  1.0000
  H   H58       1.0  0.20523  0.07791  0.24462  1.0000
  H   H59       1.0  0.20324  0.33615  0.25651  1.0000
  H   H60       1.0  0.20373  0.29565  0.41819  1.0000
  H   H61       1.0  0.24188  0.29631  0.01376  1.0000
  C   C21       1.0  0.21455  0.05356  0.29316  1.0000
  H   H62       1.0  0.03246  0.17548  0.46425  1.0000
  H   H63       1.0  0.08477  0.43682  0.08720  1.0000
  H   H64       1.0  0.27577  0.36698  0.41591  1.0000
  H   H65       1.0  0.26746  0.34166  0.38239  1.0000
  H   H66       1.0  0.27125  0.37856  0.36929  1.0000
  C   C22       1.0  0.27968  0.00470  0.18895  1.0000
  H   H67       1.0  0.18824  0.00715  0.40666  1.0000
  Fe  Fe4       1.0  0.21078  0.48549  0.11019  1.0000
  H   H68       1.0  0.28222  0.21916  0.10934  1.0000
  S   S8        1.0  0.22914  0.46953  0.07216  1.0000
  H   H69       1.0  0.17274  0.08651  0.05291  1.0000
  H   H70       1.0  0.22575  0.12107  0.37316  1.0000
  C   C23       1.0  0.23509  0.06451  0.48530  1.0000
  H   H71       1.0  0.28062  0.48877  0.06673  1.0000
  C   C24       1.0  0.23174  0.33660  0.03303  1.0000
  C   C25       1.0  0.30003  0.31984  0.06927  1.0000
  C   C26       1.0  0.99681  0.22696  0.36828  1.0000
  H   H72       1.0  0.27765  0.02850  0.18979  1.0000
  C   C27       1.0  0.31580  0.48960  0.28848  1.0000
  H   H73       1.0  0.27578  0.49159  0.17300  1.0000
  H   H74       1.0  0.23069  0.42573  0.25257  1.0000
  C   C28       1.0  0.08304  0.00647  0.04196  1.0000
  C   C29       1.0  0.20301  0.05716  0.25847  1.0000
  C   C30       1.0  0.29312  0.48300  0.24131  1.0000
  H   H75       1.0  0.28789  0.21303  0.06357  1.0000
  C   C31       1.0  0.09244  0.43773  0.06361  1.0000
  H   H76       1.0  0.19841  0.37387  0.26309  1.0000
  H   H77       1.0  0.18551  0.14323  0.40906  1.0000
  C   C32       1.0  0.21860  0.12302  0.01732  1.0000
  H   H78       1.0  0.20686  0.15289  0.40989  1.0000
  H   H79       1.0  0.18163  0.28363  0.00125  1.0000
  H   H80       1.0  0.08636  0.48239  0.05412  1.0000
  H   H81       1.0  0.99639  0.19164  0.43691  1.0000
  H   H82       1.0  0.06798  0.41191  0.01544  1.0000
  C   C33       1.0  0.22016  0.04827  0.37620  1.0000
  C   C34       1.0  0.27035  0.08419  0.36783  1.0000
  H   H83       1.0  0.25071  0.10351  0.39489  1.0000
  H   H84       1.0  0.99878  0.23465  0.39686  1.0000
  Fe  Fe5       1.0  0.21046  0.00650  0.03038  1.0000
  C   C35       1.0  0.28268  0.33025  0.05360  1.0000
  C   C36       1.0  0.29766  0.26846  0.04887  1.0000
  H   H85       1.0  0.05871  0.47636  0.06500  1.0000
  H   H86       1.0  0.22466  0.02973  0.36025  1.0000
  C   C37       1.0  0.02672  0.14503  0.32192  1.0000
  Fe  Fe6       1.0  0.18152  0.47821  0.05014  1.0000
  H   H87       1.0  0.27348  0.34289  0.10552  1.0000
  C   C38       1.0  0.21054  0.25850  0.02851  1.0000
  H   H88       1.0  0.22292  0.09687  0.40970  1.0000
  C   C39       1.0  0.22633  0.49039  0.20771  1.0000
  C   C40       1.0  0.22782  0.99573  0.19661  1.0000
  Fe  Fe7       1.0  0.25093  0.47017  0.37643  1.0000
  C   C41       1.0  0.29492  0.25490  0.08651  1.0000
  H   H89       1.0  0.03773  0.15503  0.31162  1.0000
  H   H90       1.0  0.27947  0.08560  0.39191  1.0000
  H   H91       1.0  0.19156  0.09619  0.38134  1.0000
  H   H92       1.0  0.01404  0.18567  0.32440  1.0000
  C   C42       1.0  0.24749  0.08378  0.47827  1.0000
  H   H93       1.0  0.21095  0.13657  0.03326  1.0000
  H   H94       1.0  0.24155  0.09575  0.32779  1.0000
  H   H95       1.0  0.18418  0.43978  0.43138  1.0000
  C   C43       1.0  0.05676  0.45834  0.04520  1.0000
  S   S9        1.0  0.24179  0.45066  0.32129  1.0000
  H   H96       1.0  0.21214  0.03212  0.30496  1.0000
  N   N4        1.0  0.30792  0.29532  0.04947  1.0000
  C   C44       1.0  0.24007  0.07801  0.34779  1.0000
  H   H97       1.0  0.19740  0.12540  0.35353  1.0000
  H   H98       1.0  0.00344  0.00732  0.04517  1.0000
  H   H99       1.0  0.28950  0.27089  0.10472  1.0000
  C   C45       1.0  0.08620  0.46251  0.03720  1.0000
  C   C46       1.0  0.02222  0.16221  0.47279  1.0000
  H   H100      1.0  0.31520  0.44776  0.38894  1.0000
  H   H101      1.0  0.19874  0.25654  0.04135  1.0000
  H   H102      1.0  0.09097  0.04481  0.07248  1.0000
  H   H103      1.0  0.99336  0.15068  0.33170  1.0000
  C   C47       1.0  0.29591  0.43442  0.29632  1.0000
  C   C48       1.0  0.22615  0.46052  0.21356  1.0000
  H   H104      1.0  0.19846  0.07858  0.32500  1.0000
  C   C49       1.0  0.29080  0.46599  0.30507  1.0000
  C   C50       1.0  0.00158  0.15451  0.35679  1.0000
  H   H105      1.0  0.22226  0.44640  0.19122  1.0000
  C   C51       1.0  0.25298  0.08291  0.38059  1.0000
  C   C52       1.0  0.21177  0.07823  0.32078  1.0000
  H   H106      1.0  0.02889  0.43449  0.07285  1.0000
  H   H107      1.0  0.11129  0.46348  0.09330  1.0000
  H   H108      1.0  0.30353  0.25138  0.03272  1.0000
  H   H109      1.0  0.24658  0.02048  0.22656  1.0000
  C   C53       1.0  0.03848  0.45997  0.02951  1.0000
  H   H110      1.0  0.28349  0.34097  0.02678  1.0000
  C   C54       1.0  0.21863  0.10192  0.38070  1.0000
  C   C55       1.0  0.11025  0.44263  0.07843  1.0000
  H   H111      1.0  0.27465  0.41544  0.31888  1.0000
  C   C56       1.0  0.28322  0.22952  0.08235  1.0000
  H   H112      1.0  0.21385  0.09915  0.30694  1.0000
  H   H113      1.0  0.09555  0.46597  0.01735  1.0000
  H   H114      1.0  0.29301  0.41662  0.35021  1.0000
  H   H115      1.0  0.18792  0.34636  0.28707  1.0000
  H   H116      1.0  0.19593  0.39072  0.42664  1.0000
  S   S10       1.0  0.19217  0.01815  0.07095  1.0000
  H   H117      1.0  0.29509  0.46958  0.33421  1.0000
  H   H118      1.0  0.27073  0.23711  0.07163  1.0000
  H   H119      1.0  0.27152  0.10352  0.35033  1.0000
  Fe  Fe8       1.0  0.28207  0.48845  0.42266  1.0000
  C   C57       1.0  0.19876  0.40696  0.40588  1.0000
  H   H120      1.0  0.25815  0.07608  0.46521  1.0000
  S   S11       1.0  0.23593  0.02704  0.47306  1.0000
  C   C58       1.0  0.01738  0.16739  0.34334  1.0000
  C   C59       1.0  0.23096  0.44886  0.24844  1.0000
  C   C60       1.0  0.01123  0.15242  0.43957  1.0000
  H   H121      1.0  0.26322  0.36051  0.06599  1.0000
  C   C61       1.0  0.27463  0.47805  0.22971  1.0000
  N   N5        1.0  0.06943  0.45871  0.01744  1.0000
  C   C62       1.0  0.99076  0.24475  0.47629  1.0000
  H   H122      1.0  0.27817  0.99759  0.16005  1.0000
  H   H123      1.0  0.31404  0.32764  0.01017  1.0000
  H   H124      1.0  0.05829  0.43829  0.06203  1.0000
  H   H125      1.0  0.27878  0.45306  0.18089  1.0000
  H   H126      1.0  0.27326  0.06453  0.35213  1.0000
  C   C63       1.0  0.22841  0.07493  0.00148  1.0000
  H   H127      1.0  0.26309  0.48859  0.09355  1.0000
  C   C64       1.0  0.15633  0.24956  0.00777  1.0000
  H   H128      1.0  0.22732  0.05341  0.28472  1.0000
  H   H129      1.0  0.18774  0.06125  0.00744  1.0000
  H   H130      1.0  0.19605  0.37673  0.33980  1.0000
  H   H131      1.0  0.22859  0.00745  0.17132  1.0000
  H   H132      1.0  0.19539  0.32607  0.36256  1.0000
  N   N6        1.0  0.05247  0.00236  0.01577  1.0000
  H   H133      1.0  0.03551  0.48140  0.01683  1.0000
  H   H134      1.0  0.29944  0.31438  0.09860  1.0000
  H   H135      1.0  0.18994  0.05646  0.26492  1.0000
  H   H136      1.0  0.00466  0.13255  0.36811  1.0000
  H   H137      1.0  0.25855  0.46943  0.18110  1.0000
  C   C65       1.0  0.17342  0.09697  0.02584  1.0000
  C   C66       1.0  0.19463  0.31384  0.41866  1.0000
  C   C67       1.0  0.03528  0.00948  0.02647  1.0000
  C   C68       1.0  0.27537  0.35263  0.07855  1.0000
  H   H138      1.0  0.28354  0.37148  0.08245  1.0000
  C   C69       1.0  0.02678  0.45594  0.05948  1.0000
  C   C70       1.0  0.23968  0.31906  0.00818  1.0000
  H   H139      1.0  0.30947  0.43122  0.30036  1.0000
  H   H140      1.0  0.00906  0.22241  0.35858  1.0000
  H   H141      1.0  0.29166  0.39061  0.31384  1.0000
  C   C71       1.0  0.01245  0.00136  0.06838  1.0000
  H   H142      1.0  0.22026  0.21756  0.05182  1.0000
  C   C72       1.0  0.20094  0.01068  0.39892  1.0000
  H   H143      1.0  0.99700  0.27091  0.34752  1.0000
  H   H144      1.0  0.16155  0.10857  0.01842  1.0000
  C   C73       1.0  0.00355  0.17880  0.41784  1.0000
  H   H145      1.0  0.10689  0.01782  0.06786  1.0000
  S   S12       1.0  0.19843  0.46140  0.00915  1.0000
  H   H146      1.0  0.20531  0.03920  0.23937  1.0000
  H   H147      1.0  0.01893  0.13899  0.42235  1.0000
  C   C74       1.0  0.30872  0.03785  0.35681  1.0000
  H   H148      1.0  0.21422  0.28132  0.03015  1.0000
  C   C75       1.0  0.06447  0.00962  0.04778  1.0000
  N   N7        1.0  0.99267  0.17226  0.38371  1.0000
  C   C76       1.0  0.21848  0.09270  0.02170  1.0000
  C   C77       1.0  0.19694  0.43667  0.42332  1.0000
  H   H149      1.0  0.29957  0.03849  0.37756  1.0000
  H   H150      1.0  0.18351  0.11277  0.02807  1.0000
  C   C78       1.0  0.31098  0.30430  0.01099  1.0000
  C   C79       1.0  0.06607  0.48332  0.99065  1.0000
  C   C80       1.0  0.06864  0.43062  0.99658  1.0000
  C   C81       1.0  0.23806  0.00298  0.22800  1.0000
  H   H151      1.0  0.01508  0.02087  0.08520  1.0000
  H   H152      1.0  0.30283  0.03177  0.24215  1.0000
  H   H153      1.0  0.30597  0.00523  0.18771  1.0000
  H   H154      1.0  0.16599  0.05928  0.99645  1.0000
  S   S13       1.0  0.15371  0.48881  0.04010  1.0000
  C   C82       1.0  0.13924  0.48697  0.00092  1.0000
  C   C83       1.0  0.31795  0.01062  0.30224  1.0000
  H   H155      1.0  0.04285  0.06123  0.99701  1.0000
  C   C84       1.0  0.30401  0.01496  0.32806  1.0000
  H   H156      1.0  0.02627  0.00970  0.00191  1.0000
  S   S14       1.0  0.22848  0.03654  0.00503  1.0000
  C   C85       1.0  0.17658  0.07387  0.99746  1.0000
  H   H157      1.0  0.02844  0.47325  0.08025  1.0000
  H   H158      1.0  0.14960  0.22961  0.01345  1.0000
  H   H159      1.0  0.20338  0.99567  0.37635  1.0000
  H   H160      1.0  0.06254  0.99566  0.07162  1.0000
  S   S15       1.0  0.26318  0.23166  0.98997  1.0000
  H   H161      1.0  0.17909  0.22644  0.00332  1.0000
  H   H162      1.0  0.11725  0.03638  0.99061  1.0000
  C   C86       1.0  0.22877  0.13598  0.99304  1.0000
  C   C87       1.0  0.30024  0.00833  0.24486  1.0000
  H   H163      1.0  0.02758  0.14305  0.48805  1.0000
  H   H164      1.0  0.28852  0.00787  0.25826  1.0000
  S   S16       1.0  0.25100  0.99750  0.29939  1.0000
  S   S17       1.0  0.25856  0.40262  0.48752  1.0000
  S   S18       1.0  0.30769  0.19783  0.99233  1.0000
  C   C88       1.0  0.29691  0.99629  0.20558  1.0000
  H   H165      1.0  0.22235  0.40240  0.48857  1.0000
  H   H166      1.0  0.14773  0.26466  0.99176  1.0000
  H   H167      1.0  0.20505  0.22465  0.99066  1.0000
  Fe  Fe9       1.0  0.20757  0.25827  0.55097  1.0000
  S   S19       1.0  0.22874  0.23234  0.57844  1.0000
  S   S20       1.0  0.20769  0.30426  0.52553  1.0000
  Fe  Fe10      1.0  0.18217  0.21277  0.57273  1.0000
  S   S21       1.0  0.20200  0.18419  0.60186  1.0000
  S   S22       1.0  0.15504  0.19907  0.56558  1.0000
  Fe  Fe11      1.0  0.21276  0.22569  0.62500  1.0000
  S   S23       1.0  0.21926  0.24085  0.68400  1.0000
  Fe  Fe12      1.0  0.21654  0.19250  0.55299  1.0000
  S   S24       1.0  0.23268  0.16070  0.52174  1.0000
  S   S25       1.0  0.19193  0.25335  0.59845  1.0000
  S   S26       1.0  0.19623  0.21917  0.52276  1.0000
  Fe  Fe13      1.0  0.06223  0.23629  0.63349  1.0000
  S   S27       1.0  0.05251  0.23909  0.68909  1.0000
  S   S28       1.0  0.09006  0.24459  0.63681  1.0000
  Fe  Fe14      1.0  0.02691  0.23163  0.59487  1.0000
  S   S29       1.0  0.01541  0.23412  0.64868  1.0000
  S   S30       1.0  0.01320  0.23566  0.53668  1.0000
  Fe  Fe15      1.0  0.03312  0.26969  0.66450  1.0000
  S   S31       1.0  0.02420  0.31236  0.68921  1.0000
  Fe  Fe16      1.0  0.03579  0.20298  0.67065  1.0000
  S   S32       1.0  0.03185  0.17133  0.71766  1.0000
  S   S33       1.0  0.04361  0.26923  0.60969  1.0000
  S   S34       1.0  0.04651  0.19822  0.61591  1.0000
  C   C89       1.0  0.31575  0.20070  0.84971  1.0000
  C   C90       1.0  0.11832  0.01533  0.97823  1.0000
  Fe  Fe17      1.0  0.26195  0.21212  0.88649  1.0000
  S   S35       1.0  0.23995  0.23027  0.91229  1.0000
  S   S36       1.0  0.26207  0.19528  0.82798  1.0000
  H   H168      1.0  0.06697  0.01482  0.97117  1.0000
  H   H169      1.0  0.18756  0.03307  0.57460  1.0000
  Fe  Fe18      1.0  0.24717  0.19939  0.95884  1.0000
  H   H170      1.0  0.98769  0.24686  0.82842  1.0000
  Fe  Fe19      1.0  0.25779  0.26074  0.94136  1.0000
  H   H171      1.0  0.13319  0.45830  0.91551  1.0000
  S   S37       1.0  0.26810  0.17948  0.93154  1.0000
  S   S38       1.0  0.27962  0.24448  0.91241  1.0000
  Fe  Fe20      1.0  0.04712  0.44314  0.83969  1.0000
  C   C91       1.0  0.30791  0.13794  0.91573  1.0000
  S   S39       1.0  0.04882  0.39527  0.82185  1.0000
  C   C92       1.0  0.05506  0.02024  0.98234  1.0000
  S   S40       1.0  0.05015  0.01826  0.87689  1.0000
  H   H172      1.0  0.05000  0.35603  0.67462  1.0000
  H   H173      1.0  0.99431  0.32168  0.73435  1.0000
  H   H174      1.0  0.21187  0.06055  0.50897  1.0000
  C   C93       1.0  0.16537  0.04701  0.92732  1.0000
  S   S41       1.0  0.04746  0.03942  0.76755  1.0000
  S   S42       1.0  0.05370  0.45027  0.89993  1.0000
  S   S43       1.0  0.06631  0.47398  0.82407  1.0000
  H   H175      1.0  0.10948  0.35569  0.64906  1.0000
  H   H176      1.0  0.08104  0.09662  0.70222  1.0000
  C   C94       1.0  0.07469  0.43389  0.68950  1.0000
  C   C95       1.0  0.14615  0.01142  0.89406  1.0000
  H   H177      1.0  0.29267  0.08726  0.93833  1.0000
  H   H178      1.0  0.00821  0.25706  0.83913  1.0000
  C   C96       1.0  0.07974  0.33851  0.69995  1.0000
  H   H179      1.0  0.31391  0.12820  0.84172  1.0000
  Fe  Fe21      1.0  0.07203  0.48282  0.88399  1.0000
  H   H180      1.0  0.08322  0.34985  0.60795  1.0000
  H   H181      1.0  0.28034  0.11889  0.94757  1.0000
  C   C97       1.0  0.00069  0.24030  0.82464  1.0000
  C   C98       1.0  0.20010  0.02775  0.90540  1.0000
  C   C99       1.0  0.29301  0.12151  0.89743  1.0000
  H   H182      1.0  0.07911  0.39317  0.63689  1.0000
  H   H183      1.0  0.25888  0.26509  0.57678  1.0000
  H   H184      1.0  0.18295  0.32042  0.93653  1.0000
  C   C100      1.0  0.06885  0.40271  0.68840  1.0000
  C   C101      1.0  0.19528  0.31404  0.92812  1.0000
  C   C102      1.0  0.99384  0.32196  0.76449  1.0000
  H   H185      1.0  0.07390  0.44336  0.66160  1.0000
  H   H186      1.0  0.20614  0.09486  0.89449  1.0000
  C   C103      1.0  0.24407  0.37522  0.49600  1.0000
  C   C104      1.0  0.23300  0.12354  0.50778  1.0000
  C   C105      1.0  0.03655  0.13462  0.73092  1.0000
  C   C106      1.0  0.03257  0.12509  0.76553  1.0000
  C   C107      1.0  0.03582  0.09624  0.77733  1.0000
  C   C108      1.0  0.04307  0.07632  0.75454  1.0000
  C   C109      1.0  0.04704  0.08589  0.71991  1.0000
  C   C110      1.0  0.04389  0.11479  0.70819  1.0000
  H   H187      1.0  0.02685  0.14009  0.78339  1.0000
  H   H188      1.0  0.03263  0.08935  0.80395  1.0000
  H   H189      1.0  0.05246  0.07066  0.70186  1.0000
  H   H190      1.0  0.04689  0.12155  0.68139  1.0000
  C   C111      1.0  0.03170  0.33543  0.72560  1.0000
  C   C112      1.0  0.02557  0.36409  0.72679  1.0000
  C   C113      1.0  0.03089  0.38297  0.75540  1.0000
  C   C114      1.0  0.04224  0.37327  0.78367  1.0000
  C   C115      1.0  0.04838  0.34461  0.78237  1.0000
  C   C116      1.0  0.04326  0.32593  0.75348  1.0000
  H   H191      1.0  0.01658  0.37178  0.70551  1.0000
  H   H192      1.0  0.02597  0.40484  0.75597  1.0000
  H   H193      1.0  0.05709  0.33677  0.80411  1.0000
  H   H194      1.0  0.04791  0.30397  0.75330  1.0000
  H   H195      1.0  0.19365  0.10522  0.83170  1.0000
  C   C117      1.0  0.13707  0.21301  0.58475  1.0000
  C   C118      1.0  0.13782  0.23383  0.61233  1.0000
  C   C119      1.0  0.12328  0.24342  0.62751  1.0000
  C   C120      1.0  0.10779  0.23264  0.61511  1.0000
  C   C121      1.0  0.10700  0.21210  0.58721  1.0000
  C   C122      1.0  0.12156  0.20221  0.57239  1.0000
  H   H196      1.0  0.14963  0.24228  0.62227  1.0000
  H   H197      1.0  0.12410  0.25919  0.64920  1.0000
  H   H198      1.0  0.09521  0.20381  0.57709  1.0000
  H   H199      1.0  0.12081  0.18618  0.55097  1.0000
  H   H200      1.0  0.07489  0.13777  0.54474  1.0000
  C   C123      1.0  0.10391  0.33437  0.64321  1.0000
  H   H201      1.0  0.08910  0.18397  0.76906  1.0000
  C   C124      1.0  0.99645  0.26725  0.76668  1.0000
  C   C125      1.0  0.19276  0.12121  0.85399  1.0000
  C   C126      1.0  0.23110  0.22722  0.72364  1.0000
  C   C127      1.0  0.23059  0.24245  0.75669  1.0000
  C   C128      1.0  0.23982  0.23290  0.78885  1.0000
  C   C129      1.0  0.24986  0.20801  0.78835  1.0000
  C   C130      1.0  0.25044  0.19284  0.75526  1.0000
  C   C131      1.0  0.24108  0.20227  0.72316  1.0000
  H   H202      1.0  0.22295  0.26181  0.75744  1.0000
  H   H203      1.0  0.23927  0.24492  0.81392  1.0000
  H   H204      1.0  0.25816  0.17360  0.75443  1.0000
  H   H205      1.0  0.24168  0.19033  0.69802  1.0000
  H   H206      1.0  0.01548  0.20025  0.83711  1.0000
  H   H207      1.0  0.16875  0.02534  0.87438  1.0000
  C   C132      1.0  0.98599  0.18397  0.71203  1.0000
  H   H208      1.0  0.29057  0.30852  0.92338  1.0000
  H   H209      1.0  0.99405  0.16573  0.72289  1.0000
  H   H210      1.0  0.00534  0.21480  0.71603  1.0000
  C   C133      1.0  0.19172  0.49266  0.92321  1.0000
  C   C134      1.0  0.22052  0.10430  0.51452  1.0000
  H   H211      1.0  0.31545  0.12176  0.93227  1.0000
  H   H212      1.0  0.29645  0.20635  0.80539  1.0000
  C   C135      1.0  0.20020  0.02384  0.58035  1.0000
  C   C136      1.0  0.17877  0.08763  0.95959  1.0000
  H   H213      1.0  0.30005  0.18936  0.89189  1.0000
  C   C137      1.0  0.21740  0.01466  0.91330  1.0000
  H   H214      1.0  0.17198  0.28135  0.95666  1.0000
  H   H215      1.0  0.18756  0.20655  0.94271  1.0000
  C   C138      1.0  0.11481  0.48361  0.94092  1.0000
  H   H216      1.0  0.99948  0.34229  0.77497  1.0000
  H   H217      1.0  0.15443  0.46112  0.96793  1.0000
  C   C139      1.0  0.20468  0.34186  0.92356  1.0000
  H   H218      1.0  0.16825  0.10311  0.95331  1.0000
  C   C140      1.0  0.24451  0.33098  0.97585  1.0000
  H   H219      1.0  0.30989  0.23660  0.81239  1.0000
  H   H220      1.0  0.05765  0.09289  0.95686  1.0000
  H   H221      1.0  0.29665  0.27483  0.97501  1.0000
  H   H222      1.0  0.29747  0.16766  0.85219  1.0000
  H   H223      1.0  0.14138  0.00345  0.86684  1.0000
  H   H224      1.0  0.99458  0.22611  0.89594  1.0000
  H   H225      1.0  0.19781  0.35604  0.90292  1.0000
  S   S44       1.0  0.09989  0.47990  0.90278  1.0000
  S   S45       1.0  0.22817  0.17427  0.98792  1.0000
  H   H226      1.0  0.31246  0.30588  0.93538  1.0000
  H   H227      1.0  0.18913  0.46925  0.92504  1.0000
  C   C141      1.0  0.18046  0.26935  0.97685  1.0000
  H   H228      1.0  0.08103  0.37743  0.97212  1.0000
  H   H229      1.0  0.20055  0.00683  0.52634  1.0000
  C   C142      1.0  0.10549  0.00563  0.95329  1.0000
  H   H230      1.0  0.09499  0.05568  0.64604  1.0000
  C   C143      1.0  0.00588  0.21558  0.88665  1.0000
  H   H231      1.0  0.05704  0.42992  0.97843  1.0000
  C   C144      1.0  0.00137  0.48737  0.96825  1.0000
  C   C145      1.0  0.19596  0.04969  0.93515  1.0000
  H   H232      1.0  0.19963  0.03798  0.87806  1.0000
  C   C146      1.0  0.19394  0.10607  0.89116  1.0000
  C   C147      1.0  0.05736  0.34795  0.65255  1.0000
  C   C148      1.0  0.15883  0.03481  0.88968  1.0000
  C   C149      1.0  0.17116  0.24190  0.98646  1.0000
  H   H233      1.0  0.30064  0.33730  0.94854  1.0000
  H   H234      1.0  0.19003  0.10086  0.96357  1.0000
  H   H235      1.0  0.19269  0.18114  0.88602  1.0000
  H   H236      1.0  0.16802  0.02842  0.94648  1.0000
  H   H237      1.0  0.17993  0.07043  0.86928  1.0000
  H   H238      1.0  0.09084  0.39213  0.93408  1.0000
  C   C150      1.0  0.13256  0.99809  0.98709  1.0000
  H   H239      1.0  0.22123  0.24636  0.97818  1.0000
  H   H240      1.0  0.08352  0.44142  0.95100  1.0000
  H   H241      1.0  0.20863  0.20842  0.93291  1.0000
  C   C151      1.0  0.99114  0.46464  0.95660  1.0000
  H   H242      1.0  0.22855  0.00378  0.55250  1.0000
  H   H243      1.0  0.04649  0.06527  0.93166  1.0000
  N   N8        1.0  0.18004  0.06676  0.92828  1.0000
  H   H244      1.0  0.20538  0.30620  0.98296  1.0000
  H   H245      1.0  0.05578  0.40325  0.67728  1.0000
  C   C152      1.0  0.24993  0.34710  0.50553  1.0000
  H   H246      1.0  0.15265  0.05240  0.87270  1.0000
  C   C153      1.0  0.08295  0.42439  0.97199  1.0000
  H   H247      1.0  0.19372  0.30366  0.90094  1.0000
  C   C154      1.0  0.00339  0.29602  0.78205  1.0000
  H   H248      1.0  0.10060  0.05541  0.69483  1.0000
  H   H249      1.0  0.06673  0.44710  0.70651  1.0000
  C   C155      1.0  0.08071  0.39555  0.95220  1.0000
  S   S46       1.0  0.02685  0.47764  0.83680  1.0000
  H   H250      1.0  0.18097  0.13369  0.84947  1.0000
  H   H251      1.0  0.19353  0.12314  0.91223  1.0000
  C   C156      1.0  0.29717  0.29841  0.98042  1.0000
  S   S47       1.0  0.00853  0.00506  0.92426  1.0000
  H   H252      1.0  0.24385  0.30353  0.52095  1.0000
  H   H253      1.0  0.21826  0.00225  0.93933  1.0000
  C   C157      1.0  0.05707  0.06926  0.95192  1.0000
  H   H254      1.0  0.19141  0.00959  0.90496  1.0000
  H   H255      1.0  0.19593  0.03709  0.96079  1.0000
  C   C158      1.0  0.13049  0.47037  0.93955  1.0000
  C   C159      1.0  0.08467  0.29375  0.73975  1.0000
  H   H256      1.0  0.15449  0.05851  0.93752  1.0000
  H   H257      1.0  0.09256  0.34375  0.71019  1.0000
  H   H258      1.0  0.07185  0.34805  0.72030  1.0000
  H   H259      1.0  0.06938  0.39482  0.71700  1.0000
  H   H260      1.0  0.09819  0.29683  0.74319  1.0000
  H   H261      1.0  0.07881  0.30489  0.76224  1.0000
  H   H262      1.0  0.08230  0.27027  0.74147  1.0000
  H   H263      1.0  0.05270  0.38576  0.61585  1.0000
  C   C160      1.0  0.99367  0.21492  0.76771  1.0000
  N   N9        1.0  0.23648  0.33691  0.62972  1.0000
  C   C161      1.0  0.24143  0.30820  0.61395  1.0000
  C   C162      1.0  0.21796  0.34039  0.62485  1.0000
  C   C163      1.0  0.24359  0.36044  0.60741  1.0000
  C   C164      1.0  0.24278  0.34027  0.66934  1.0000
  C   C165      1.0  0.24435  0.31236  0.69322  1.0000
  C   C166      1.0  0.26017  0.30390  0.61001  1.0000
  C   C167      1.0  0.23837  0.39198  0.61591  1.0000
  C   C168      1.0  0.20788  0.31865  0.64537  1.0000
  C   C169      1.0  0.18945  0.32271  0.63455  1.0000
  C   C170      1.0  0.24800  0.31946  0.73360  1.0000
  C   C171      1.0  0.26479  0.27233  0.60339  1.0000
  C   C172      1.0  0.24880  0.41367  0.59701  1.0000
  H   H264      1.0  0.23500  0.30526  0.58634  1.0000
  H   H265      1.0  0.23722  0.28982  0.63001  1.0000
  H   H266      1.0  0.21395  0.36188  0.63461  1.0000
  H   H267      1.0  0.21373  0.33949  0.59521  1.0000
  H   H268      1.0  0.24024  0.35698  0.57782  1.0000
  H   H269      1.0  0.25728  0.35959  0.61094  1.0000
  H   H270      1.0  0.25528  0.34976  0.67156  1.0000
  H   H271      1.0  0.23486  0.35615  0.68294  1.0000
  H   H272      1.0  0.25458  0.29822  0.68511  1.0000
  H   H273      1.0  0.23308  0.29944  0.69065  1.0000
  H   H274      1.0  0.26377  0.31651  0.58624  1.0000
  H   H275      1.0  0.26760  0.31139  0.63468  1.0000
  H   H276      1.0  0.23969  0.39623  0.64568  1.0000
  H   H277      1.0  0.22537  0.39629  0.60544  1.0000
  H   H278      1.0  0.21135  0.29606  0.63934  1.0000
  H   H279      1.0  0.20969  0.32232  0.67522  1.0000
  H   H280      1.0  0.18247  0.30671  0.64939  1.0000
  H   H281      1.0  0.18515  0.34477  0.64163  1.0000
  H   H282      1.0  0.18677  0.31925  0.60475  1.0000
  H   H283      1.0  0.23765  0.33222  0.74382  1.0000
  H   H284      1.0  0.24953  0.29905  0.74965  1.0000
  H   H285      1.0  0.25955  0.33178  0.73793  1.0000
  H   H286      1.0  0.27834  0.27000  0.60248  1.0000
  H   H287      1.0  0.26096  0.25827  0.62564  1.0000
  N   N10       1.0  0.31808  0.15430  0.89028  1.0000
  H   H288      1.0  0.24760  0.41039  0.56697  1.0000
  H   H289      1.0  0.24455  0.43604  0.60267  1.0000
  H   H290      1.0  0.26199  0.41133  0.60712  1.0000
  N   N11       1.0  0.09687  0.14450  0.66826  1.0000
  C   C173      1.0  0.09057  0.15378  0.70401  1.0000
  C   C174      1.0  0.11233  0.16015  0.66088  1.0000
  C   C175      1.0  0.12697  0.15704  0.69043  1.0000
  C   C176      1.0  0.08869  0.18681  0.70969  1.0000
  C   C177      1.0  0.08123  0.19331  0.74568  1.0000
  C   C178      1.0  0.14103  0.17669  0.68180  1.0000
  H   H291      1.0  0.08272  0.17561  0.63391  1.0000
  H   H292      1.0  0.07818  0.14463  0.70687  1.0000
  H   H293      1.0  0.09853  0.14473  0.72753  1.0000
  H   H294      1.0  0.10959  0.18356  0.65642  1.0000
  H   H295      1.0  0.11708  0.15256  0.63496  1.0000
  H   H296      1.0  0.10973  0.10749  0.69383  1.0000
  H   H297      1.0  0.13191  0.13451  0.69143  1.0000
  H   H298      1.0  0.12332  0.16293  0.71788  1.0000
  H   H299      1.0  0.10076  0.19754  0.71053  1.0000
  H   H300      1.0  0.08047  0.19670  0.68740  1.0000
  H   H301      1.0  0.06867  0.18432  0.74546  1.0000
  H   H302      1.0  0.15167  0.17332  0.70234  1.0000
  H   H303      1.0  0.14517  0.17185  0.65433  1.0000
  H   H304      1.0  0.13701  0.19975  0.68260  1.0000
  H   H305      1.0  0.02545  0.36858  0.63277  1.0000
  H   H306      1.0  0.16638  0.23106  0.96099  1.0000
  H   H307      1.0  0.24567  0.37021  0.94446  1.0000
  H   H308      1.0  0.08758  0.43491  0.70182  1.0000
  C   C179      1.0  0.11224  0.32099  0.61128  1.0000
  C   C180      1.0  0.30051  0.31349  0.94481  1.0000
  H   H309      1.0  0.02701  0.36876  0.58409  1.0000
  Fe  Fe22      1.0  0.03471  0.48658  0.89638  1.0000
  H   H310      1.0  0.18369  0.25733  0.90960  1.0000
  H   H311      1.0  0.10692  0.10528  0.64584  1.0000
  H   H312      1.0  0.20310  0.13641  0.85287  1.0000
  C   C181      1.0  0.07764  0.30537  0.70264  1.0000
  H   H313      1.0  0.09263  0.38598  0.67597  1.0000
  C   C182      1.0  0.03178  0.35841  0.61022  1.0000
  C   C183      1.0  0.19598  0.21640  0.92434  1.0000
  C   C184      1.0  0.21624  0.35883  0.50377  1.0000
  S   S48       1.0  0.25324  0.30951  0.94214  1.0000
  C   C185      1.0  0.10069  0.11249  0.67022  1.0000
  N   N12       1.0  0.00343  0.23969  0.78454  1.0000
  H   H314      1.0  0.20038  0.21347  0.86669  1.0000
  H   H315      1.0  0.13559  0.02017  0.90820  1.0000
  H   H316      1.0  0.10694  0.29960  0.60416  1.0000
  C   C186      1.0  0.08382  0.15176  0.63787  1.0000
  H   H317      1.0  0.10684  0.32008  0.66724  1.0000
  N   N13       1.0  0.07545  0.35183  0.66279  1.0000
  H   H318      1.0  0.24667  0.12779  0.95422  1.0000
  H   H319      1.0  0.08028  0.21705  0.74944  1.0000
  C   C187      1.0  0.02138  0.23519  0.77749  1.0000
  H   H320      1.0  0.08401  0.29362  0.68159  1.0000
  C   C188      1.0  0.07965  0.38345  0.66471  1.0000
  C   C189      1.0  0.99441  0.22876  0.50885  1.0000
  H   H321      1.0  0.22677  0.03183  0.91518  1.0000
  H   H322      1.0  0.06440  0.30001  0.69924  1.0000
  H   H323      1.0  0.09825  0.14642  0.58987  1.0000
  C   C190      1.0  0.19168  0.20509  0.88580  1.0000
  C   C191      1.0  0.08577  0.09291  0.67510  1.0000
  H   H324      1.0  0.11065  0.33534  0.58692  1.0000
  H   H325      1.0  0.05602  0.35213  0.59269  1.0000
  H   H326      1.0  0.05307  0.25444  0.76753  1.0000
  H   H327      1.0  0.08019  0.31563  0.62732  1.0000
  H   H328      1.0  0.05465  0.21975  0.79041  1.0000
  C   C192      1.0  0.08662  0.13876  0.59988  1.0000
  Fe  Fe23      1.0  0.04455  0.00913  0.81680  1.0000
  Fe  Fe24      1.0  0.28397  0.21349  0.95963  1.0000
  H   H329      1.0  0.21011  0.11191  0.52860  1.0000
  H   H330      1.0  0.28380  0.13670  0.88360  1.0000
  H   H331      1.0  0.06102  0.25206  0.81457  1.0000
  C   C193      1.0  0.09069  0.06095  0.67321  1.0000
  C   C194      1.0  0.05186  0.24315  0.79377  1.0000
  H   H332      1.0  0.03429  0.23629  0.83261  1.0000
  C   C195      1.0  0.19532  0.24996  0.92521  1.0000
  H   H333      1.0  0.06065  0.13973  0.57977  1.0000
  H   H334      1.0  0.17889  0.21159  0.87594  1.0000
  C   C196      1.0  0.08503  0.33752  0.63405  1.0000
  H   H335      1.0  0.07987  0.04750  0.67756  1.0000
  C   C197      1.0  0.03451  0.24755  0.80601  1.0000
  H   H336      1.0  0.07143  0.14519  0.64527  1.0000
  H   H337      1.0  0.21705  0.33695  0.91413  1.0000
  H   H338      1.0  0.12563  0.31778  0.61890  1.0000
  H   H339      1.0  0.20541  0.25663  0.90837  1.0000
  H   H340      1.0  0.30318  0.15306  0.93618  1.0000
  C   C198      1.0  0.20283  0.99847  0.55474  1.0000
  C   C199      1.0  0.17971  0.08446  0.89363  1.0000
  C   C200      1.0  0.07263  0.14749  0.57151  1.0000
  H   H341      1.0  0.08711  0.11481  0.60083  1.0000
  H   H342      1.0  0.05454  0.32461  0.65004  1.0000
  H   H343      1.0  0.02449  0.21170  0.77569  1.0000
  H   H344      1.0  0.02372  0.24415  0.75023  1.0000
  C   C201      1.0  0.30701  0.17747  0.87152  1.0000
  H   H345      1.0  0.20651  0.06438  0.94023  1.0000
  H   H346      1.0  0.27325  0.09411  0.91233  1.0000
  H   H347      1.0  0.99895  0.19385  0.77833  1.0000
  H   H348      1.0  0.00775  0.19429  0.90057  1.0000
  H   H349      1.0  0.03254  0.27088  0.81081  1.0000
  C   C202      1.0  0.05039  0.36225  0.61616  1.0000
  C   C203      1.0  0.22211  0.33075  0.51354  1.0000
  C   C204      1.0  0.20455  0.29376  0.95709  1.0000
  H   H350      1.0  0.07190  0.17135  0.56808  1.0000
  H   H351      1.0  0.16786  0.09700  0.88974  1.0000
  H   H352      1.0  0.07555  0.09706  0.65383  1.0000
  H   H353      1.0  0.07557  0.48359  0.97063  1.0000
  H   H354      1.0  0.06885  0.39546  0.93501  1.0000
  C   C205      1.0  0.23881  0.11822  0.97306  1.0000
  H   H355      1.0  0.04552  0.01493  0.95994  1.0000
  H   H356      1.0  0.01495  0.17516  0.49148  1.0000
  H   H357      1.0  0.99865  0.26765  0.73716  1.0000
  C   C206      1.0  0.24639  0.11301  0.48928  1.0000
  H   H358      1.0  0.09474  0.01924  0.94643  1.0000
  H   H359      1.0  0.02878  0.33509  0.60898  1.0000
  H   H360      1.0  0.09507  0.42322  0.98800  1.0000
  H   H361      1.0  0.22022  0.99961  0.89107  1.0000
  C   C207      1.0  0.14261  0.47199  0.96926  1.0000
  C   C208      1.0  0.23907  0.32497  0.51389  1.0000
  H   H362      1.0  0.20609  0.35378  0.94980  1.0000
  H   H363      1.0  0.01667  0.22912  0.89464  1.0000
  H   H364      1.0  0.29444  0.23022  0.84365  1.0000
  N   N14       1.0  0.19705  0.26452  0.96220  1.0000
  H   H365      1.0  0.01631  0.29799  0.77550  1.0000
  H   H366      1.0  0.00269  0.29789  0.81191  1.0000
  C   C209      1.0  0.30334  0.21957  0.82646  1.0000
  H   H367      1.0  0.21746  0.29096  0.94939  1.0000
  C   C210      1.0  0.22158  0.07508  0.50334  1.0000
  C   C211      1.0  0.99290  0.21284  0.72555  1.0000
  H   H368      1.0  0.20914  0.04114  0.57616  1.0000
  H   H369      1.0  0.24642  0.07441  0.96162  1.0000
  C   C212      1.0  0.22709  0.38086  0.49506  1.0000
  H   H370      1.0  0.06868  0.06200  0.94051  1.0000
  C   C213      1.0  0.28433  0.10445  0.92572  1.0000
  H   H371      1.0  0.99392  0.45227  0.93286  1.0000
  H   H372      1.0  0.26302  0.34238  0.50649  1.0000
  H   H373      1.0  0.20318  0.36370  0.50342  1.0000
  C   C214      1.0  0.00412  0.21121  0.84534  1.0000
  C   C215      1.0  0.23861  0.08791  0.97727  1.0000
  H   H374      1.0  0.29701  0.10581  0.87703  1.0000
  H   H375      1.0  0.99369  0.19642  0.83907  1.0000
  H   H376      1.0  0.20168  0.01658  0.60928  1.0000
  H   H377      1.0  0.05428  0.48014  0.97372  1.0000
  C   C216      1.0  0.24190  0.36075  0.96933  1.0000
  H   H378      1.0  0.98600  0.19440  0.54168  1.0000
  C   C217      1.0  0.20875  0.24747  0.98856  1.0000
  H   H379      1.0  0.28488  0.30562  0.98779  1.0000
  C   C218      1.0  0.05476  0.05349  0.98766  1.0000
  H   H380      1.0  0.23176  0.40106  0.98849  1.0000
  H   H381      1.0  0.27265  0.63902  0.42833  1.0000
  S   S49       1.0  0.27241  0.94131  0.37484  1.0000
  C   C219      1.0  0.20924  0.59151  0.10960  1.0000
  H   H382      1.0  0.23775  0.64478  0.45395  1.0000
  H   H383      1.0  0.21982  0.80385  0.48604  1.0000
  C   C220      1.0  0.98869  0.95658  0.00363  1.0000
  Fe  Fe25      1.0  0.25517  0.93272  0.41924  1.0000
  Fe  Fe26      1.0  0.24818  0.51037  0.44333  1.0000
  S   S50       1.0  0.21977  0.96576  0.06036  1.0000
  S   S51       1.0  0.31163  0.68890  0.99548  1.0000
  C   C221      1.0  0.28591  0.55890  0.33467  1.0000
  S   S52       1.0  0.26132  0.51359  0.39159  1.0000
  H   H384      1.0  0.28938  0.56650  0.36286  1.0000
  H   H385      1.0  0.17896  0.54444  0.00349  1.0000
  C   C222      1.0  0.22497  0.57371  0.10540  1.0000
  H   H386      1.0  0.07782  0.51962  0.02078  1.0000
  Fe  Fe27      1.0  0.19994  0.94289  0.02629  1.0000
  C   C223      1.0  0.24575  0.85797  0.01004  1.0000
  H   H387      1.0  0.24838  0.54832  0.05678  1.0000
  C   C224      1.0  0.26230  0.63160  0.44364  1.0000
  S   S53       1.0  0.18073  0.95106  0.06595  1.0000
  S   S54       1.0  0.19781  0.51532  0.06788  1.0000
  H   H388      1.0  0.25707  0.90503  0.07164  1.0000
  C   C225      1.0  0.19843  0.87418  0.09830  1.0000
  C   C226      1.0  0.23962  0.59323  0.09821  1.0000
  H   H389      1.0  0.28673  0.96917  0.30244  1.0000
  H   H390      1.0  0.28856  0.63209  0.04492  1.0000
  H   H391      1.0  0.26547  0.73408  0.47506  1.0000
  H   H392      1.0  0.20869  0.91111  0.42932  1.0000
  H   H393      1.0  0.26702  0.62675  0.47223  1.0000
  H   H394      1.0  0.23636  0.73914  0.41442  1.0000
  H   H395      1.0  0.20704  0.56988  0.02077  1.0000
  H   H396      1.0  0.21722  0.97706  0.48800  1.0000
  C   C227      1.0  0.12374  0.50092  0.00190  1.0000
  H   H397      1.0  0.26797  0.70212  0.40526  1.0000
  C   C228      1.0  0.27652  0.64289  0.04870  1.0000
  H   H398      1.0  0.24003  0.51082  0.29453  1.0000
  H   H399      1.0  0.27185  0.58428  0.21097  1.0000
  H   H400      1.0  0.20703  0.59006  0.47990  1.0000
  C   C229      1.0  0.99539  0.73545  0.47459  1.0000
  H   H401      1.0  0.24763  0.53481  0.10138  1.0000
  S   S55       1.0  0.25886  0.80399  0.99787  1.0000
  H   H402      1.0  0.25620  0.53936  0.15812  1.0000
  H   H403      1.0  0.07219  0.91847  0.00692  1.0000
  C   C230      1.0  0.25385  0.68141  0.46523  1.0000
  C   C231      1.0  0.24348  0.71835  0.41830  1.0000
  H   H404      1.0  0.19885  0.67501  0.48208  1.0000
  H   H405      1.0  0.00510  0.52066  0.00882  1.0000
  C   C232      1.0  0.21811  0.93091  0.47994  1.0000
  C   C233      1.0  0.26042  0.72235  0.40264  1.0000
  S   S56       1.0  0.19219  0.98246  0.99285  1.0000
  H   H406      1.0  0.25184  0.94070  0.08801  1.0000
  C   C234      1.0  0.05330  0.97050  0.00681  1.0000
  H   H407      1.0  0.26733  0.74003  0.41677  1.0000
  H   H408      1.0  0.19295  0.92597  0.45595  1.0000
  H   H409      1.0  0.26082  0.59258  0.04364  1.0000
  N   N15       1.0  0.25651  0.57885  0.09831  1.0000
  H   H410      1.0  0.27051  0.73337  0.35165  1.0000
  S   S57       1.0  0.26601  0.71860  0.01335  1.0000
  C   C235      1.0  0.21341  0.69388  0.44101  1.0000
  C   C236      1.0  0.26630  0.59541  0.07220  1.0000
  H   H411      1.0  0.25567  0.63934  0.08015  1.0000
  H   H412      1.0  0.18811  0.67952  0.43761  1.0000
  H   H413      1.0  0.17536  0.89741  0.10627  1.0000
  H   H414      1.0  0.17468  0.87407  0.06705  1.0000
  C   C237      1.0  0.20585  0.88013  0.13753  1.0000
  H   H415      1.0  0.04135  0.96373  0.99264  1.0000
  H   H416      1.0  0.27231  0.55675  0.33139  1.0000
  C   C238      1.0  0.15775  0.56584  0.05438  1.0000
  H   H417      1.0  0.15797  0.53690  0.99271  1.0000
  C   C239      1.0  0.19710  0.68950  0.45791  1.0000
  C   C240      1.0  0.02831  0.98883  0.05463  1.0000
  S   S58       1.0  0.20318  0.96315  0.15969  1.0000
  C   C241      1.0  0.28942  0.51768  0.29034  1.0000
  C   C242      1.0  0.29037  0.92379  0.29332  1.0000
  C   C243      1.0  0.17962  0.87624  0.09598  1.0000
  H   H418      1.0  0.21087  0.60592  0.13368  1.0000
  C   C244      1.0  0.31025  0.96236  0.27681  1.0000
  S   S59       1.0  0.26876  0.96177  0.46004  1.0000
  C   C245      1.0  0.24062  0.86546  0.46719  1.0000
  H   H419      1.0  0.27847  0.54083  0.05891  1.0000
  S   S60       1.0  0.22055  0.50636  0.16423  1.0000
  H   H420      1.0  0.27577  0.51584  0.28883  1.0000
  H   H421      1.0  0.99103  0.93580  0.01680  1.0000
  H   H422      1.0  0.20739  0.87777  0.21289  1.0000
  C   C246      1.0  0.22601  0.96573  0.26273  1.0000
  H   H423      1.0  0.23671  0.70284  0.40008  1.0000
  H   H424      1.0  0.25101  0.75092  0.35807  1.0000
  H   H425      1.0  0.25187  0.71296  0.34615  1.0000
  C   C247      1.0  0.21556  0.95884  0.23155  1.0000
  H   H426      1.0  0.15545  0.58358  0.07372  1.0000
  C   C248      1.0  0.25824  0.73037  0.36214  1.0000
  C   C249      1.0  0.16287  0.57842  0.01864  1.0000
  N   N16       1.0  0.24395  0.70905  0.45779  1.0000
  C   C250      1.0  0.20545  0.92947  0.44699  1.0000
  C   C251      1.0  0.29200  0.95527  0.28173  1.0000
  H   H427      1.0  0.23981  0.61136  0.11810  1.0000
  H   H428      1.0  0.02532  0.96766  0.04184  1.0000
  C   C252      1.0  0.24852  0.65462  0.44237  1.0000
  C   C253      1.0  0.16714  0.55425  0.99140  1.0000
  C   C254      1.0  0.23112  0.84046  0.46151  1.0000
  C   C255      1.0  0.21647  0.97356  0.19818  1.0000
  H   H429      1.0  0.20108  0.90177  0.14554  1.0000
  C   C256      1.0  0.26953  0.56190  0.20129  1.0000
  C   C257      1.0  0.25814  0.56218  0.16612  1.0000
  C   C258      1.0  0.26545  0.58007  0.13584  1.0000
  H   H430      1.0  0.27863  0.57365  0.13477  1.0000
  H   H431      1.0  0.25836  0.86377  0.01768  1.0000
  H   H432      1.0  0.26572  0.60272  0.14586  1.0000
  N   N17       1.0  0.22441  0.87890  0.14387  1.0000
  C   C259      1.0  0.23163  0.90063  0.11929  1.0000
  H   H433      1.0  0.20588  0.60472  0.08475  1.0000
  C   C260      1.0  0.22875  0.88817  0.18285  1.0000
  C   C261      1.0  0.23099  0.84843  0.13894  1.0000
  C   C262      1.0  0.23619  0.84007  0.10048  1.0000
  C   C263      1.0  0.25031  0.90605  0.12782  1.0000
  C   C264      1.0  0.22057  0.87111  0.21272  1.0000
  H   H434      1.0  0.21734  0.67290  0.43000  1.0000
  H   H435      1.0  0.19183  0.71055  0.46631  1.0000
  C   C265      1.0  0.23951  0.80754  0.09789  1.0000
  C   C266      1.0  0.25801  0.91968  0.09555  1.0000
  C   C267      1.0  0.22881  0.87716  0.25074  1.0000
  H   H436      1.0  0.22514  0.92195  0.12123  1.0000
  H   H437      1.0  0.22945  0.89458  0.09014  1.0000
  H   H438      1.0  0.14626  0.55344  0.04939  1.0000
  H   H439      1.0  0.20671  0.94187  0.23324  1.0000
  H   H440      1.0  0.22546  0.91147  0.18626  1.0000
  H   H441      1.0  0.24229  0.88635  0.18972  1.0000
  H   H442      1.0  0.24210  0.84399  0.15801  1.0000
  H   H443      1.0  0.22182  0.83245  0.14671  1.0000
  H   H444      1.0  0.24769  0.85106  0.09477  1.0000
  H   H445      1.0  0.22678  0.84614  0.07833  1.0000
  H   H446      1.0  0.25206  0.92112  0.15128  1.0000
  H   H447      1.0  0.25722  0.88571  0.13530  1.0000
  H   H448      1.0  0.22133  0.84747  0.20795  1.0000
  H   H449      1.0  0.23164  0.53149  0.23303  1.0000
  H   H450      1.0  0.05503  0.95743  0.03238  1.0000
  H   H451      1.0  0.22248  0.55890  0.08203  1.0000
  H   H452      1.0  0.28971  0.57529  0.31506  1.0000
  H   H453      1.0  0.00559  0.74746  0.46568  1.0000
  H   H454      1.0  0.24373  0.80228  0.07067  1.0000
  H   H455      1.0  0.24929  0.80038  0.11899  1.0000
  H   H456      1.0  0.22809  0.79543  0.10121  1.0000
  H   H457      1.0  0.24652  0.75421  0.47249  1.0000
  Fe  Fe28      1.0  0.28487  0.97249  0.41444  1.0000
  H   H458      1.0  0.27125  0.92361  0.10305  1.0000
  H   H459      1.0  0.22225  0.86568  0.27164  1.0000
  H   H460      1.0  0.24186  0.86946  0.25287  1.0000
  C   C268      1.0  0.25516  0.54822  0.08431  1.0000
  H   H461      1.0  0.22521  0.95404  0.28803  1.0000
  H   H462      1.0  0.26868  0.64231  0.02252  1.0000
  H   H463      1.0  0.20269  0.89016  0.07888  1.0000
  H   H464      1.0  0.19895  0.57674  0.11372  1.0000
  H   H465      1.0  0.27720  0.91917  0.29612  1.0000
  H   H466      1.0  0.29498  0.90893  0.27259  1.0000
  Fe  Fe29      1.0  0.20031  0.97601  0.09888  1.0000
  H   H467      1.0  0.20536  0.94968  0.43065  1.0000
  H   H468      1.0  0.22837  0.90066  0.25670  1.0000
  H   H469      1.0  0.28142  0.55084  0.19684  1.0000
  H   H470      1.0  0.26052  0.49826  0.04547  1.0000
  S   S61       1.0  0.24508  0.88700  0.42856  1.0000
  H   H471      1.0  0.12103  0.51291  0.02600  1.0000
  C   C269      1.0  0.27167  0.53144  0.08094  1.0000
  S   S62       1.0  0.30835  0.50495  0.41978  1.0000
  H   H472      1.0  0.16758  0.55133  0.06724  1.0000
  H   H473      1.0  0.27025  0.99390  0.20406  1.0000
  Fe  Fe30      1.0  0.25521  0.97857  0.35739  1.0000
  C   C270      1.0  0.29451  0.52984  0.32876  1.0000
  H   H474      1.0  0.22748  0.56038  0.13021  1.0000
  H   H475      1.0  0.00674  0.98505  0.08539  1.0000
  H   H476      1.0  0.27958  0.53168  0.10690  1.0000
  H   H477      1.0  0.23605  0.60346  0.07121  1.0000
  H   H478      1.0  0.31770  0.95521  0.30200  1.0000
  H   H479      1.0  0.24625  0.57207  0.17284  1.0000
  C   C271      1.0  0.25226  0.73273  0.48037  1.0000
  H   H480      1.0  0.22665  0.83480  0.43400  1.0000
  C   C272      1.0  0.21329  0.84340  0.98998  1.0000
  H   H481      1.0  0.27529  0.63239  0.10520  1.0000
  H   H482      1.0  0.29180  0.53444  0.26977  1.0000
  H   H483      1.0  0.20022  0.86413  0.15512  1.0000
  H   H484      1.0  0.17387  0.59187  0.02524  1.0000
  H   H485      1.0  0.03715  0.98488  0.07871  1.0000
  H   H486      1.0  0.17459  0.85869  0.11220  1.0000
  C   C273      1.0  0.24233  0.82956  0.99861  1.0000
  C   C274      1.0  0.22893  0.56458  0.99230  1.0000
  C   C275      1.0  0.21674  0.58079  0.00818  1.0000
  H   H487      1.0  0.24526  0.65973  0.41326  1.0000
  C   C276      1.0  0.06560  0.51405  0.00748  1.0000
  H   H488      1.0  0.27882  0.66585  0.05574  1.0000
  H   H489      1.0  0.27915  0.58677  0.07274  1.0000
  C   C277      1.0  0.26787  0.62839  0.07912  1.0000
  H   H490      1.0  0.26359  0.55003  0.22286  1.0000
  N   N18       1.0  0.31405  0.99332  0.26794  1.0000
  S   S63       1.0  0.23721  0.96816  0.39856  1.0000
  C   C278      1.0  0.22970  0.62589  0.99184  1.0000
  H   H491      1.0  0.21081  0.70919  0.41782  1.0000
  H   H492      1.0  0.20164  0.85201  0.08974  1.0000
  C   C279      1.0  0.22661  0.70637  0.46923  1.0000
  C   C280      1.0  0.23150  0.50836  0.23717  1.0000
  H   H493      1.0  0.30919  0.64747  0.10232  1.0000
  C   C281      1.0  0.99737  0.50303  0.99936  1.0000
  H   H494      1.0  0.30796  0.53323  0.33298  1.0000
  H   H495      1.0  0.28422  0.95828  0.25574  1.0000
  C   C282      1.0  0.23304  0.87898  0.01148  1.0000
  S   S64       1.0  0.23142  0.54764  0.46206  1.0000
  H   H496      1.0  0.25751  0.61131  0.43103  1.0000
  H   H497      1.0  0.26703  0.49722  0.23591  1.0000
  C   C283      1.0  0.23740  0.98781  0.26111  1.0000
  H   H498      1.0  0.20756  0.62363  0.01992  1.0000
  H   H499      1.0  0.23587  0.90087  0.01966  1.0000
  C   C284      1.0  0.23628  0.49670  0.27211  1.0000
  H   H500      1.0  0.31412  0.94753  0.25511  1.0000
  C   C285      1.0  0.21705  0.61126  0.00761  1.0000
  H   H501      1.0  0.23043  0.93247  0.46940  1.0000
  H   H502      1.0  0.29685  0.50136  0.22445  1.0000
  H   H503      1.0  0.29096  0.51480  0.35006  1.0000
  H   H504      1.0  0.26714  0.68512  0.46237  1.0000
  Fe  Fe31      1.0  0.21517  0.49741  0.02935  1.0000
  H   H505      1.0  0.29815  0.97238  0.20515  1.0000
  S   S65       1.0  0.22913  0.52617  0.99238  1.0000
  H   H506      1.0  0.31449  0.74012  0.04263  1.0000
  H   H507      1.0  0.30212  0.99445  0.34272  1.0000
  H   H508      1.0  0.08678  0.98327  0.04272  1.0000
  H   H509      1.0  0.22160  0.72810  0.47613  1.0000
  S   S66       1.0  0.31241  0.98258  0.42410  1.0000
  C   C286      1.0  0.26872  0.49984  0.07107  1.0000
  Fe  Fe32      1.0  0.17422  0.99199  0.03462  1.0000
  H   H510      1.0  0.05636  0.51583  0.02795  1.0000
  H   H511      1.0  0.29741  0.91961  0.32006  1.0000
  H   H512      1.0  0.15271  0.59290  0.00751  1.0000
  H   H513      1.0  0.06107  0.55873  0.99087  1.0000
  S   S67       1.0  0.22989  0.66424  0.99368  1.0000
  S   S68       1.0  0.20033  0.89773  0.00096  1.0000
  C   C287      1.0  0.21672  0.87178  0.00151  1.0000
  Fe  Fe33      1.0  0.21536  0.76612  0.57943  1.0000
  S   S69       1.0  0.23034  0.73253  0.61322  1.0000
  S   S70       1.0  0.22822  0.80862  0.56575  1.0000
  Fe  Fe34      1.0  0.18387  0.73045  0.58224  1.0000
  S   S71       1.0  0.19700  0.69447  0.61478  1.0000
  S   S72       1.0  0.15661  0.72851  0.56111  1.0000
  Fe  Fe35      1.0  0.20918  0.73004  0.64845  1.0000
  S   S73       1.0  0.20908  0.72518  0.71070  1.0000
  Fe  Fe36      1.0  0.21743  0.69883  0.57747  1.0000
  S   S74       1.0  0.23526  0.66211  0.56194  1.0000
  S   S75       1.0  0.19486  0.76591  0.61760  1.0000
  S   S76       1.0  0.20353  0.73268  0.54187  1.0000
  Fe  Fe37      1.0  0.06387  0.72607  0.63861  1.0000
  S   S77       1.0  0.05333  0.73568  0.69210  1.0000
  S   S78       1.0  0.09207  0.72439  0.64988  1.0000
  Fe  Fe38      1.0  0.02857  0.72477  0.59802  1.0000
  S   S79       1.0  0.01653  0.73386  0.65025  1.0000
  S   S80       1.0  0.01542  0.72758  0.53916  1.0000
  Fe  Fe39      1.0  0.03598  0.76736  0.66229  1.0000
  S   S81       1.0  0.03158  0.81584  0.67341  1.0000
  Fe  Fe40      1.0  0.03506  0.70108  0.67667  1.0000
  S   S82       1.0  0.03005  0.67109  0.72458  1.0000
  S   S83       1.0  0.04745  0.75969  0.60937  1.0000
  S   S84       1.0  0.04616  0.69004  0.62400  1.0000
  H   H514      1.0  0.23545  0.84748  0.91595  1.0000
  C   C288      1.0  0.22791  0.79898  0.88629  1.0000
  Fe  Fe41      1.0  0.26289  0.72244  0.90675  1.0000
  S   S85       1.0  0.24154  0.73404  0.93941  1.0000
  S   S86       1.0  0.26392  0.73046  0.84529  1.0000
  N   N19       1.0  0.22461  0.95827  0.54080  1.0000
  H   H515      1.0  0.98619  0.95713  0.77531  1.0000
  H   H516      1.0  0.27887  0.59854  0.59472  1.0000
  C   C289      1.0  0.12090  0.96119  0.94609  1.0000
  N   N20       1.0  0.16857  0.56309  0.95205  1.0000
  C   C290      1.0  0.98684  0.84371  0.66648  1.0000
  S   S87       1.0  0.26947  0.68100  0.93774  1.0000
  S   S88       1.0  0.28112  0.74781  0.94264  1.0000
  Fe  Fe42      1.0  0.03876  0.94386  0.83055  1.0000
  H   H517      1.0  0.20139  0.95826  0.50720  1.0000
  S   S89       1.0  0.03386  0.89605  0.81622  1.0000
  H   H518      1.0  0.25459  0.94205  0.58594  1.0000
  H   H519      1.0  0.27635  0.94507  0.54241  1.0000
  H   H520      1.0  0.06748  0.63783  0.65926  1.0000
  C   C291      1.0  0.24135  0.57921  0.97572  1.0000
  H   H521      1.0  0.26900  0.71534  0.62578  1.0000
  H   H522      1.0  0.22799  0.93453  0.59182  1.0000
  S   S90       1.0  0.04588  0.53874  0.77279  1.0000
  S   S91       1.0  0.04370  0.94938  0.89140  1.0000
  S   S92       1.0  0.06102  0.96894  0.81856  1.0000
  H   H523      1.0  0.09112  0.54742  0.72948  1.0000
  H   H524      1.0  0.14791  0.53725  0.93225  1.0000
  C   C292      1.0  0.21481  0.95741  0.50414  1.0000
  H   H525      1.0  0.20192  0.80412  0.86408  1.0000
  C   C293      1.0  0.11168  0.49950  0.97206  1.0000
  H   H526      1.0  0.00891  0.95178  0.96899  1.0000
  C   C294      1.0  0.26105  0.75491  0.54178  1.0000
  H   H527      1.0  0.21900  0.89047  0.93150  1.0000
  C   C295      1.0  0.25490  0.96154  0.56837  1.0000
  H   H528      1.0  0.99733  0.76374  0.59142  1.0000
  C   C296      1.0  0.24182  0.60968  0.97569  1.0000
  C   C297      1.0  0.99613  0.99242  0.95910  1.0000
  H   H529      1.0  0.02866  0.88238  0.91523  1.0000
  H   H530      1.0  0.08610  0.67847  0.77923  1.0000
  H   H531      1.0  0.07037  0.53670  0.95746  1.0000
  H   H532      1.0  0.10125  0.78500  0.60797  1.0000
  H   H533      1.0  0.25805  0.83156  0.84239  1.0000
  H   H534      1.0  0.11215  0.58835  0.92287  1.0000
  C   C298      1.0  0.99966  0.91071  0.89007  1.0000
  C   C299      1.0  0.99684  0.72268  0.50968  1.0000
  H   H535      1.0  0.26706  0.67698  0.79318  1.0000
  H   H536      1.0  0.25547  0.77598  0.53228  1.0000
  C   C300      1.0  0.27258  0.96435  0.55792  1.0000
  C   C301      1.0  0.22722  0.82278  0.49104  1.0000
  C   C302      1.0  0.03489  0.63429  0.73744  1.0000
  C   C303      1.0  0.03341  0.62552  0.77378  1.0000
  C   C304      1.0  0.03679  0.59661  0.78524  1.0000
  C   C305      1.0  0.04153  0.57580  0.76035  1.0000
  C   C306      1.0  0.04301  0.58458  0.72398  1.0000
  C   C307      1.0  0.03980  0.61356  0.71261  1.0000
  H   H537      1.0  0.02955  0.64121  0.79328  1.0000
  H   H538      1.0  0.03553  0.59036  0.81324  1.0000
  H   H539      1.0  0.04655  0.56874  0.70435  1.0000
  H   H540      1.0  0.04076  0.61969  0.68448  1.0000
  C   C308      1.0  0.03230  0.83761  0.71365  1.0000
  C   C309      1.0  0.03119  0.86793  0.70991  1.0000
  C   C310      1.0  0.03197  0.88618  0.74079  1.0000
  C   C311      1.0  0.03363  0.87433  0.77601  1.0000
  C   C312      1.0  0.03456  0.84400  0.77972  1.0000
  C   C313      1.0  0.03402  0.82576  0.74886  1.0000
  H   H541      1.0  0.02982  0.87742  0.68289  1.0000
  H   H542      1.0  0.03112  0.90940  0.73735  1.0000
  H   H543      1.0  0.03572  0.83450  0.80676  1.0000
  H   H544      1.0  0.03478  0.80254  0.75236  1.0000
  H   H545      1.0  0.01848  0.78440  0.57177  1.0000
  C   C314      1.0  0.13878  0.72808  0.58632  1.0000
  C   C315      1.0  0.13977  0.72995  0.62444  1.0000
  C   C316      1.0  0.12533  0.72915  0.64321  1.0000
  C   C317      1.0  0.10970  0.72645  0.62427  1.0000
  C   C318      1.0  0.10867  0.72485  0.58617  1.0000
  C   C319      1.0  0.12312  0.72567  0.56738  1.0000
  H   H546      1.0  0.15169  0.73183  0.63944  1.0000
  H   H547      1.0  0.12632  0.73040  0.67268  1.0000
  H   H548      1.0  0.09678  0.72276  0.57114  1.0000
  H   H549      1.0  0.12218  0.72426  0.53791  1.0000
  H   H550      1.0  0.26012  0.75326  0.57168  1.0000
  H   H551      1.0  0.25202  0.98083  0.58472  1.0000
  H   H552      1.0  0.19281  0.49825  0.89412  1.0000
  C   C320      1.0  0.23370  0.62993  0.53484  1.0000
  C   C321      1.0  0.06805  0.62850  0.58683  1.0000
  C   C322      1.0  0.22472  0.72594  0.74742  1.0000
  C   C323      1.0  0.22062  0.71883  0.78280  1.0000
  C   C324      1.0  0.23243  0.71995  0.81305  1.0000
  C   C325      1.0  0.24851  0.72828  0.80826  1.0000
  C   C326      1.0  0.25263  0.73528  0.77285  1.0000
  C   C327      1.0  0.24082  0.73419  0.74261  1.0000
  H   H553      1.0  0.20818  0.71257  0.78687  1.0000
  H   H554      1.0  0.22907  0.71446  0.84006  1.0000
  H   H555      1.0  0.26503  0.74185  0.76885  1.0000
  H   H556      1.0  0.24408  0.74026  0.71576  1.0000
  H   H557      1.0  0.18973  0.77473  0.90967  1.0000
  H   H558      1.0  0.27375  0.98409  0.54110  1.0000
  N   N21       1.0  0.25221  0.64805  0.68761  1.0000
  C   C328      1.0  0.26504  0.62701  0.67527  1.0000
  C   C329      1.0  0.25338  0.65006  0.72894  1.0000
  C   C330      1.0  0.23553  0.63622  0.67516  1.0000
  C   C331      1.0  0.25346  0.67756  0.67066  1.0000
  C   C332      1.0  0.27015  0.69271  0.67814  1.0000
  C   C333      1.0  0.26511  0.62239  0.63342  1.0000
  C   C334      1.0  0.22041  0.65283  0.68842  1.0000
  C   C335      1.0  0.27071  0.64626  0.74957  1.0000
  C   C336      1.0  0.99716  0.80716  0.54297  1.0000
  C   C337      1.0  0.27920  0.60188  0.62467  1.0000
  H   H559      1.0  0.27183  0.69915  0.70724  1.0000
  H   H560      1.0  0.26350  0.60545  0.68804  1.0000
  H   H561      1.0  0.27765  0.63352  0.68490  1.0000
  H   H562      1.0  0.24793  0.67102  0.73760  1.0000
  H   H563      1.0  0.24585  0.63306  0.74076  1.0000
  H   H564      1.0  0.23481  0.61322  0.68394  1.0000
  H   H565      1.0  0.23357  0.63630  0.64482  1.0000
  H   H566      1.0  0.25035  0.67665  0.64063  1.0000
  H   H567      1.0  0.24405  0.69265  0.68072  1.0000
  H   H568      1.0  0.28063  0.67867  0.67137  1.0000
  C   C338      1.0  0.09026  0.56496  0.74984  1.0000
  H   H569      1.0  0.25351  0.61259  0.62193  1.0000
  H   H570      1.0  0.26678  0.64309  0.61900  1.0000
  H   H571      1.0  0.21918  0.67424  0.67497  1.0000
  H   H572      1.0  0.21343  0.83323  0.82805  1.0000
  H   H573      1.0  0.27497  0.62336  0.74799  1.0000
  C   C339      1.0  0.23409  0.85152  0.88590  1.0000
  H   H574      1.0  0.06878  0.61420  0.56278  1.0000
  H   H575      1.0  0.07686  0.92094  0.95995  1.0000
  C   C340      1.0  0.23279  0.57898  0.49080  1.0000
  H   H576      1.0  0.20779  0.63403  0.51872  1.0000
  C   C341      1.0  0.22204  0.93188  0.56375  1.0000
  H   H577      1.0  0.28266  0.64970  0.80439  1.0000
  H   H578      1.0  0.10801  0.66042  0.62757  1.0000
  H   H579      1.0  0.22364  0.98309  0.59074  1.0000
  N   N22       1.0  0.08516  0.82307  0.69857  1.0000
  C   C342      1.0  0.08165  0.80524  0.66461  1.0000
  C   C343      1.0  0.07755  0.80869  0.72989  1.0000
  C   C344      1.0  0.07651  0.85209  0.69197  1.0000
  C   C345      1.0  0.10338  0.82770  0.70762  1.0000
  C   C346      1.0  0.11542  0.80332  0.69643  1.0000
  C   C347      1.0  0.08617  0.81964  0.62856  1.0000
  C   C348      1.0  0.07681  0.87286  0.72518  1.0000
  C   C349      1.0  0.08517  0.77926  0.74315  1.0000
  C   C350      1.0  0.07580  0.76698  0.77395  1.0000
  C   C351      1.0  0.13290  0.80790  0.71344  1.0000
  C   C352      1.0  0.08977  0.79740  0.59948  1.0000
  C   C353      1.0  0.07207  0.90381  0.71334  1.0000
  H   H580      1.0  0.06829  0.80024  0.66084  1.0000
  H   H581      1.0  0.08782  0.78373  0.66737  1.0000
  H   H582      1.0  0.07848  0.82257  0.75453  1.0000
  H   H583      1.0  0.06414  0.80569  0.72271  1.0000
  H   H584      1.0  0.06334  0.84908  0.68220  1.0000
  H   H585      1.0  0.08196  0.86397  0.66969  1.0000
  H   H586      1.0  0.10737  0.84776  0.69432  1.0000
  H   H587      1.0  0.10588  0.83162  0.73743  1.0000
  H   H588      1.0  0.11600  0.80309  0.66639  1.0000
  H   H589      1.0  0.11166  0.78154  0.70454  1.0000
  H   H590      1.0  0.07569  0.83370  0.61751  1.0000
  H   H591      1.0  0.09713  0.83341  0.63306  1.0000
  H   H592      1.0  0.08917  0.87317  0.74022  1.0000
  H   H593      1.0  0.06774  0.86598  0.74431  1.0000
  H   H594      1.0  0.08490  0.76320  0.72080  1.0000
  H   H595      1.0  0.09807  0.78199  0.75453  1.0000
  H   H596      1.0  0.06276  0.76306  0.76430  1.0000
  H   H597      1.0  0.08162  0.74619  0.78371  1.0000
  H   H598      1.0  0.07608  0.78214  0.79737  1.0000
  H   H599      1.0  0.13749  0.82916  0.70505  1.0000
  H   H600      1.0  0.13325  0.80682  0.74369  1.0000
  H   H601      1.0  0.14124  0.79066  0.70402  1.0000
  C   C354      1.0  0.22064  0.98585  0.56081  1.0000
  Fe  Fe43      1.0  0.28600  0.70776  0.97649  1.0000
  H   H602      1.0  0.13763  0.66587  0.62362  1.0000
  H   H603      1.0  0.05990  0.90449  0.69735  1.0000
  H   H604      1.0  0.07124  0.91759  0.73787  1.0000
  H   H605      1.0  0.08149  0.91285  0.69654  1.0000
  C   C355      1.0  0.02188  0.89213  0.93739  1.0000
  C   C356      1.0  0.06783  0.92739  0.97969  1.0000
  N   N23       1.0  0.09238  0.63090  0.68326  1.0000
  C   C357      1.0  0.09205  0.65494  0.71081  1.0000
  S   S93       1.0  0.05360  0.52000  0.88312  1.0000
  H   H606      1.0  0.21835  0.87987  0.84902  1.0000
  C   C358      1.0  0.07557  0.65954  0.72856  1.0000
  H   H607      1.0  0.02452  0.82420  0.50721  1.0000
  C   C359      1.0  0.07683  0.68402  0.75633  1.0000
  H   H608      1.0  0.09461  0.67590  0.69783  1.0000
  H   H609      1.0  0.10214  0.65196  0.73285  1.0000
  H   H610      1.0  0.11852  0.62363  0.69616  1.0000
  H   H611      1.0  0.08185  0.66133  0.64229  1.0000
  H   H612      1.0  0.09572  0.60958  0.75738  1.0000
  C   C360      1.0  0.26434  0.81507  0.89717  1.0000
  H   H613      1.0  0.06552  0.66557  0.70757  1.0000
  H   H614      1.0  0.07200  0.63988  0.74303  1.0000
  H   H615      1.0  0.14231  0.64111  0.66110  1.0000
  H   H616      1.0  0.99531  0.82870  0.52943  1.0000
  H   H617      1.0  0.08033  0.70431  0.74303  1.0000
  H   H618      1.0  0.06469  0.68764  0.76749  1.0000
  C   C361      1.0  0.27081  0.72028  0.65539  1.0000
  H   H619      1.0  0.20559  0.75413  0.88928  1.0000
  Fe  Fe44      1.0  0.04669  0.50922  0.82402  1.0000
  H   H620      1.0  0.28301  0.73035  0.66090  1.0000
  C   C362      1.0  0.08033  0.63856  0.65114  1.0000
  C   C363      1.0  0.24264  0.95881  0.53393  1.0000
  C   C364      1.0  0.08739  0.60263  0.69924  1.0000
  H   H621      1.0  0.27429  0.75433  0.53652  1.0000
  H   H622      1.0  0.02659  0.91406  0.94344  1.0000
  H   H623      1.0  0.20880  0.87697  0.57163  1.0000
  H   H624      1.0  0.28382  0.78949  0.87447  1.0000
  H   H625      1.0  0.20283  0.63283  0.64862  1.0000
  C   C365      1.0  0.20342  0.89446  0.58797  1.0000
  H   H626      1.0  0.09313  0.61953  0.60580  1.0000
  H   H627      1.0  0.20944  0.76899  0.93463  1.0000
  H   H628      1.0  0.07401  0.60306  0.70333  1.0000
  C   C366      1.0  0.08095  0.61884  0.61717  1.0000
  H   H629      1.0  0.22229  0.82340  0.75141  1.0000
  C   C367      1.0  0.25287  0.81590  0.86128  1.0000
  H   H630      1.0  0.17669  0.50321  0.96698  1.0000
  C   C368      1.0  0.17836  0.60501  0.91203  1.0000
  H   H631      1.0  0.13453  0.57337  0.96815  1.0000
  C   C369      1.0  0.20319  0.77290  0.90704  1.0000
  H   H632      1.0  0.07721  0.56797  0.75588  1.0000
  H   H633      1.0  0.25155  0.62061  0.96315  1.0000
  H   H634      1.0  0.29129  0.61109  0.63406  1.0000
  C   C370      1.0  0.11634  0.65370  0.65157  1.0000
  H   H635      1.0  0.05577  0.91800  0.97055  1.0000
  H   H636      1.0  0.09748  0.55821  0.77549  1.0000
  H   H637      1.0  0.05545  0.62722  0.59620  1.0000
  H   H638      1.0  0.07842  0.59611  0.62410  1.0000
  H   H639      1.0  0.16632  0.60934  0.96153  1.0000
  C   C371      1.0  0.24794  0.61262  0.53155  1.0000
  H   H640      1.0  0.25426  0.79419  0.84877  1.0000
  H   H641      1.0  0.19515  0.63846  0.93280  1.0000
  Fe  Fe45      1.0  0.02826  0.99007  0.88592  1.0000
  H   H642      1.0  0.02339  0.78516  0.50558  1.0000
  H   H643      1.0  0.08901  0.58470  0.67969  1.0000
  H   H644      1.0  0.20705  0.85980  0.88022  1.0000
  H   H645      1.0  0.24642  0.93884  0.51988  1.0000
  H   H646      1.0  0.11865  0.55160  0.91523  1.0000
  C   C372      1.0  0.13319  0.64670  0.63792  1.0000
  H   H647      1.0  0.23394  0.79787  0.91454  1.0000
  H   H648      1.0  0.26098  0.79710  0.91490  1.0000
  C   C373      1.0  0.15233  0.55972  0.92980  1.0000
  C   C374      1.0  0.23276  0.82983  0.52695  1.0000
  H   H649      1.0  0.06291  0.96824  0.95303  1.0000
  H   H650      1.0  0.11085  0.60787  0.65468  1.0000
  C   C375      1.0  0.00339  0.89372  0.92642  1.0000
  H   H651      1.0  0.20644  0.81857  0.90944  1.0000
  C   C376      1.0  0.20918  0.80076  0.89057  1.0000
  H   H652      1.0  0.23090  0.77770  0.87402  1.0000
  H   H653      1.0  0.26120  0.73612  0.66267  1.0000
  H   H654      1.0  0.20766  0.91124  0.89621  1.0000
  H   H655      1.0  0.14459  0.95738  0.97730  1.0000
  H   H656      1.0  0.25077  0.56689  0.96308  1.0000
  H   H657      1.0  0.28108  0.96608  0.58297  1.0000
  H   H658      1.0  0.22084  0.78083  0.81556  1.0000
  H   H659      1.0  0.19361  0.54687  0.95004  1.0000
  H   H660      1.0  0.01982  0.82286  0.57336  1.0000
  C   C377      1.0  0.18109  0.54316  0.93630  1.0000
  S   S94       1.0  0.02180  0.98335  0.82544  1.0000
  C   C378      1.0  0.20451  0.63665  0.67852  1.0000
  H   H661      1.0  0.22842  0.91266  0.55276  1.0000
  Fe  Fe46      1.0  0.24926  0.69405  0.97290  1.0000
  C   C379      1.0  0.18375  0.63647  0.91422  1.0000
  H   H662      1.0  0.22317  0.80051  0.98038  1.0000
  C   C380      1.0  0.09691  0.59317  0.73578  1.0000
  H   H663      1.0  0.12482  0.58036  0.88603  1.0000
  C   C381      1.0  0.02642  0.80396  0.52344  1.0000
  H   H664      1.0  0.27796  0.58052  0.63793  1.0000
  H   H665      1.0  0.17389  0.65056  0.92424  1.0000
  C   C382      1.0  0.17778  0.51029  0.93847  1.0000
  H   H666      1.0  0.22989  0.91074  0.89938  1.0000
  H   H667      1.0  0.07950  0.78215  0.59489  1.0000
  H   H668      1.0  0.22137  0.65618  0.71837  1.0000
  H   H669      1.0  0.26365  0.83542  0.91289  1.0000
  H   H670      1.0  0.16719  0.60400  0.89274  1.0000
  N   N24       1.0  0.23493  0.82324  0.86528  1.0000
  H   H671      1.0  0.23925  0.73037  0.53073  1.0000
  C   C383      1.0  0.22652  0.82649  0.82727  1.0000
  H   H672      1.0  0.12199  0.94009  0.93381  1.0000
  H   H673      1.0  0.09150  0.80852  0.57331  1.0000
  C   C384      1.0  0.21862  0.87137  0.87737  1.0000
  H   H674      1.0  0.07026  0.65105  0.57823  1.0000
  H   H675      1.0  0.20471  0.61560  0.69314  1.0000
  H   H676      1.0  0.19384  0.64981  0.68659  1.0000
  C   C385      1.0  0.10969  0.62747  0.67186  1.0000
  C   C386      1.0  0.22660  0.79933  0.80262  1.0000
  C   C387      1.0  0.24235  0.85470  0.53260  1.0000
  H   H677      1.0  0.00120  0.80865  0.62166  1.0000
  Fe  Fe47      1.0  0.25997  0.75740  0.97692  1.0000
  H   H678      1.0  0.18854  0.59254  0.90074  1.0000
  H   H679      1.0  0.29022  0.80931  0.91516  1.0000
  H   H680      1.0  0.25946  0.61896  0.54558  1.0000
  H   H681      1.0  0.19672  0.92148  0.54184  1.0000
  C   C388      1.0  0.13784  0.57915  0.94041  1.0000
  H   H682      1.0  0.24464  0.86537  0.88022  1.0000
  C   C389      1.0  0.21887  0.89753  0.90267  1.0000
  H   H683      1.0  0.21731  0.78579  0.74838  1.0000
  H   H684      1.0  0.18662  0.59503  0.96795  1.0000
  H   H685      1.0  0.00462  0.93060  0.82185  1.0000
  H   H686      1.0  0.28647  0.82824  0.87230  1.0000
  H   H687      1.0  0.11785  0.67240  0.67027  1.0000
  H   H688      1.0  0.18191  0.54777  0.90683  1.0000
  C   C390      1.0  0.13377  0.97095  0.97078  1.0000
  H   H689      1.0  0.15382  0.56280  0.90024  1.0000
  H   H690      1.0  0.26122  0.64045  0.80303  1.0000
  H   H691      1.0  0.03962  0.80194  0.53354  1.0000
  H   H692      1.0  0.23931  0.79295  0.79677  1.0000
  H   H693      1.0  0.23231  0.84425  0.81259  1.0000
  C   C391      1.0  0.27031  0.65378  0.78997  1.0000
  H   H694      1.0  0.13235  0.62848  0.61829  1.0000
  C   C392      1.0  0.21689  0.80524  0.76589  1.0000
  C   C393      1.0  0.12248  0.57453  0.91446  1.0000
  C   C394      1.0  0.28230  0.81025  0.88910  1.0000
  H   H695      1.0  0.20378  0.81042  0.76977  1.0000
  H   H696      1.0  0.99546  0.86115  0.66073  1.0000
  H   H697      1.0  0.02429  0.87861  0.96233  1.0000
  H   H698      1.0  0.00564  0.93218  0.89284  1.0000
  H   H699      1.0  0.14084  0.60238  0.93936  1.0000
  C   C395      1.0  0.25203  0.72991  0.52247  1.0000
  H   H700      1.0  0.24691  0.86026  0.56009  1.0000
  H   H701      1.0  0.11017  0.58952  0.73218  1.0000
  H   H702      1.0  0.28000  0.65996  0.73810  1.0000
  C   C396      1.0  0.01579  0.80441  0.55584  1.0000
  Fe  Fe48      1.0  0.06520  0.97671  0.87904  1.0000
  H   H703      1.0  0.99469  0.89753  0.80995  1.0000
  H   H704      1.0  0.00658  0.89887  0.86982  1.0000
  C   C397      1.0  0.17491  0.59348  0.95028  1.0000
  H   H705      1.0  0.19043  0.88908  0.59163  1.0000
  H   H706      1.0  0.25818  0.70958  0.53279  1.0000
  H   H707      1.0  0.18640  0.64418  0.88670  1.0000
  S   S95       1.0  0.09090  0.96446  0.90590  1.0000
  C   C398      1.0  0.10667  0.97837  0.93715  1.0000
  C   C399      1.0  0.06645  0.96034  0.98107  1.0000
  H   H708      1.0  0.24489  0.97695  0.51515  1.0000
  H   H709      1.0  0.19810  0.93994  0.58532  1.0000
  H   H710      1.0  0.99385  0.82614  0.68194  1.0000
  H   H711      1.0  0.25403  0.89078  0.50801  1.0000
  H   H712      1.0  0.21032  0.89514  0.61529  1.0000
  H   H713      1.0  0.99757  0.92791  0.75607  1.0000
  C   C400      1.0  0.99887  0.96555  0.97638  1.0000
  H   H714      1.0  0.15184  0.99283  0.91000  1.0000
  C   C401      1.0  0.20403  0.92361  0.56842  1.0000
  H   H715      1.0  0.19349  0.98212  0.55922  1.0000
  C   C402      1.0  0.21854  0.59626  0.49425  1.0000
  C   C403      1.0  0.21894  0.62140  0.51617  1.0000
  H   H716      1.0  0.99485  0.79084  0.52100  1.0000
  H   H717      1.0  0.16629  0.50469  0.92199  1.0000
  H   H718      1.0  0.21752  0.91034  0.49521  1.0000
  H   H719      1.0  0.10001  0.51078  0.97313  1.0000
  H   H720      1.0  0.20070  0.83765  0.98204  1.0000
  S   S96       1.0  0.01931  0.49709  0.94558  1.0000
  C   C404      1.0  0.24632  0.87226  0.50307  1.0000
  C   C405      1.0  0.24751  0.58731  0.50991  1.0000
  C   C406      1.0  0.99133  0.82105  0.60511  1.0000
  C   C407      1.0  0.99266  0.92109  0.81245  1.0000
  C   C408      1.0  0.06118  0.53699  0.97820  1.0000
  H   H721      1.0  0.99720  0.84118  0.59630  1.0000
  C   C409      1.0  0.98773  0.93324  0.77436  1.0000
  H   H722      1.0  0.20364  0.49676  0.93907  1.0000
  H   H723      1.0  0.99741  0.90387  0.94931  1.0000
  H   H724      1.0  0.25860  0.57440  0.50771  1.0000
  H   H725      1.0  0.99909  0.87118  0.92349  1.0000
  H   H726      1.0  0.04873  0.53322  0.96459  1.0000
  H   H727      1.0  0.22669  0.69318  0.49462  1.0000
  H   H728      1.0  0.99275  0.85910  0.85810  1.0000
  H   H729      1.0  0.25337  0.67457  0.49414  1.0000
  C   C410      1.0  0.22600  0.82234  0.98871  1.0000
  H   H730      1.0  0.07884  0.96857  0.98882  1.0000
  Fe  Fe49      1.0  0.40194  0.23241  0.07345  1.0000
  S   S97       1.0  0.42180  0.26553  0.08332  1.0000
  S   S98       1.0  0.37959  0.24753  0.03505  1.0000
  Fe  Fe50      1.0  0.42149  0.18774  0.12347  1.0000
  S   S99       1.0  0.44268  0.21799  0.13549  1.0000
  S   S100      1.0  0.41715  0.14196  0.14669  1.0000
  Fe  Fe51      1.0  0.42320  0.25273  0.14240  1.0000
  S   S101      1.0  0.42488  0.28054  0.19470  1.0000
  Fe  Fe52      1.0  0.44025  0.22932  0.07501  1.0000
  S   S102      1.0  0.46172  0.24466  0.04179  1.0000
  S   S103      1.0  0.40213  0.22198  0.13327  1.0000
  S   S104      1.0  0.42019  0.19676  0.06222  1.0000
  Fe  Fe53      1.0  0.39693  0.46567  0.33500  1.0000
  S   S105      1.0  0.40238  0.47682  0.27763  1.0000
  S   S106      1.0  0.37102  0.45134  0.34725  1.0000
  Fe  Fe54      1.0  0.43393  0.46819  0.36444  1.0000
  H   H731      1.0  0.63140  0.18063  0.04553  1.0000
  S   S107      1.0  0.44948  0.45795  0.41959  1.0000
  H   H732      1.0  0.39451  0.24211  0.23828  1.0000
  S   S108      1.0  0.43425  0.05468  0.28265  1.0000
  Fe  Fe55      1.0  0.42382  0.44498  0.28580  1.0000
  S   S109      1.0  0.42805  0.41563  0.23613  1.0000
  C   C411      1.0  0.34900  0.24734  0.99685  1.0000
  S   S110      1.0  0.41752  0.43214  0.34199  1.0000
  H   H733      1.0  0.38992  0.20236  0.29053  1.0000
  C   C412      1.0  0.51253  0.44602  0.44122  1.0000
  C   C413      1.0  0.46453  0.47062  0.45451  1.0000
  H   H734      1.0  0.53305  0.39236  0.43697  1.0000
  C   C414      1.0  0.32436  0.28783  0.06985  1.0000
  H   H735      1.0  0.40725  0.21776  0.31392  1.0000
  H   H736      1.0  0.42445  0.23171  0.24269  1.0000
  C   C415      1.0  0.42481  0.31832  0.20543  1.0000
  C   C416      1.0  0.42359  0.33993  0.17857  1.0000
  C   C417      1.0  0.42425  0.36944  0.18856  1.0000
  C   C418      1.0  0.42592  0.37798  0.22549  1.0000
  C   C419      1.0  0.42673  0.35634  0.25235  1.0000
  C   C420      1.0  0.42626  0.32681  0.24235  1.0000
  H   H737      1.0  0.42218  0.33391  0.15011  1.0000
  H   H738      1.0  0.42328  0.38586  0.16751  1.0000
  H   H739      1.0  0.42806  0.36237  0.28083  1.0000
  H   H740      1.0  0.42715  0.31042  0.26348  1.0000
  C   C421      1.0  0.42263  0.11726  0.18385  1.0000
  C   C422      1.0  0.43593  0.12172  0.20974  1.0000
  C   C423      1.0  0.43926  0.10234  0.23944  1.0000
  C   C424      1.0  0.42965  0.07770  0.24351  1.0000
  C   C425      1.0  0.41655  0.07289  0.21727  1.0000
  C   C426      1.0  0.41307  0.09254  0.18785  1.0000
  H   H741      1.0  0.44382  0.13982  0.20653  1.0000
  H   H742      1.0  0.44950  0.10627  0.25920  1.0000
  H   H743      1.0  0.40900  0.05415  0.21976  1.0000
  H   H744      1.0  0.40282  0.08857  0.16802  1.0000
  C   C427      1.0  0.37104  0.46643  0.47570  1.0000
  H   H745      1.0  0.43348  0.22027  0.28615  1.0000
  H   H746      1.0  0.45685  0.04595  0.35596  1.0000
  H   H747      1.0  0.41120  0.16560  0.21932  1.0000
  C   C428      1.0  0.38067  0.16331  0.19111  1.0000
  C   C429      1.0  0.35386  0.20922  0.04163  1.0000
  C   C430      1.0  0.35956  0.23348  0.02410  1.0000
  H   H748      1.0  0.51015  0.42313  0.43422  1.0000
  C   C431      1.0  0.46929  0.45268  0.48486  1.0000
  H   H749      1.0  0.36179  0.19827  0.06257  1.0000
  H   H750      1.0  0.55398  0.37615  0.39635  1.0000
  H   H751      1.0  0.37064  0.24337  0.27689  1.0000
  H   H752      1.0  0.50785  0.30069  0.04492  1.0000
  H   H753      1.0  0.48247  0.06768  0.44037  1.0000
  C   C432      1.0  0.33977  0.44996  0.37057  1.0000
  C   C433      1.0  0.35376  0.46690  0.36741  1.0000
  C   C434      1.0  0.41837  0.16878  0.28815  1.0000
  C   C435      1.0  0.44168  0.19680  0.23963  1.0000
  H   H754      1.0  0.33171  0.01594  0.23769  1.0000
  H   H755      1.0  0.33981  0.42791  0.36087  1.0000
  H   H756      1.0  0.48165  0.02939  0.44097  1.0000
  C   C436      1.0  0.42789  0.21220  0.25950  1.0000
  S   S111      1.0  0.44169  0.47916  0.30808  1.0000
  C   C437      1.0  0.48542  0.25463  0.99291  1.0000
  H   H757      1.0  0.38354  0.25924  0.31384  1.0000
  H   H758      1.0  0.46504  0.20625  0.21824  1.0000
  C   C438      1.0  0.43383  0.32055  0.01955  1.0000
  H   H759      1.0  0.51053  0.02388  0.43054  1.0000
  H   H760      1.0  0.64131  0.19123  0.10893  1.0000
  H   H761      1.0  0.45068  0.23638  0.21692  1.0000
  H   H762      1.0  0.48516  0.00200  0.38420  1.0000
  H   H763      1.0  0.38862  0.37933  0.42058  1.0000
  H   H764      1.0  0.36708  0.16119  0.18876  1.0000
  H   H765      1.0  0.46141  0.22524  0.25979  1.0000
  C   C439      1.0  0.32558  0.48957  0.39937  1.0000
  H   H766      1.0  0.32288  0.28450  0.09939  1.0000
  H   H767      1.0  0.46318  0.09602  0.34414  1.0000
  H   H768      1.0  0.42888  0.04876  0.40261  1.0000
  H   H769      1.0  0.50199  0.02270  0.37212  1.0000
  H   H770      1.0  0.48991  0.03402  0.31227  1.0000
  H   H771      1.0  0.49886  0.43104  0.37074  1.0000
  H   H772      1.0  0.39227  0.41375  0.47184  1.0000
  H   H773      1.0  0.61824  0.25470  0.00830  1.0000
  N   N25       1.0  0.40305  0.46894  0.47374  1.0000
  H   H774      1.0  0.50694  0.07519  0.48244  1.0000
  H   H775      1.0  0.49715  0.33286  0.02751  1.0000
  H   H776      1.0  0.46551  0.42822  0.17043  1.0000
  C   C440      1.0  0.64747  0.11246  0.01452  1.0000
  C   C441      1.0  0.41216  0.12392  0.32384  1.0000
  H   H777      1.0  0.34185  0.31243  0.03938  1.0000
  H   H778      1.0  0.48614  0.13006  0.33668  1.0000
  H   H779      1.0  0.41103  0.40751  0.45050  1.0000
  Fe  Fe56      1.0  0.42701  0.00843  0.29904  1.0000
  H   H780      1.0  0.47217  0.07072  0.31490  1.0000
  C   C442      1.0  0.40499  0.14725  0.29722  1.0000
  H   H781      1.0  0.45963  0.42895  0.12207  1.0000
  C   C443      1.0  0.54319  0.43599  0.44830  1.0000
  H   H782      1.0  0.40258  0.10788  0.32851  1.0000
  C   C444      1.0  0.40496  0.18558  0.22835  1.0000
  H   H783      1.0  0.35106  0.30060  0.12091  1.0000
  H   H784      1.0  0.49507  0.10437  0.30635  1.0000
  H   H785      1.0  0.43138  0.33081  0.99225  1.0000
  C   C445      1.0  0.47574  0.23363  0.00848  1.0000
  C   C446      1.0  0.48344  0.11217  0.31716  1.0000
  H   H786      1.0  0.42734  0.15532  0.27415  1.0000
  C   C447      1.0  0.51052  0.05264  0.47584  1.0000
  H   H787      1.0  0.36364  0.31647  0.08830  1.0000
  H   H788      1.0  0.32196  0.29258  0.00184  1.0000
  C   C448      1.0  0.39682  0.24354  0.26839  1.0000
  C   C449      1.0  0.48833  0.02190  0.36945  1.0000
  H   H789      1.0  0.48680  0.09360  0.38943  1.0000
  C   C450      1.0  0.46232  0.04517  0.38459  1.0000
  H   H790      1.0  0.42495  0.17592  0.31427  1.0000
  H   H791      1.0  0.37929  0.20164  0.22343  1.0000
  C   C451      1.0  0.38155  0.25692  0.28373  1.0000
  H   H792      1.0  0.51114  0.39861  0.48467  1.0000
  C   C452      1.0  0.48388  0.01744  0.32819  1.0000
  C   C453      1.0  0.38607  0.18058  0.22524  1.0000
  H   H793      1.0  0.54886  0.45206  0.43075  1.0000
  H   H794      1.0  0.48397  0.27700  0.00051  1.0000
  H   H795      1.0  0.44553  0.41601  0.15379  1.0000
  C   C454      1.0  0.33791  0.19890  0.03180  1.0000
  H   H796      1.0  0.49572  0.46764  0.35431  1.0000
  H   H797      1.0  0.51977  0.49214  0.47845  1.0000
  C   C455      1.0  0.33819  0.31030  0.06768  1.0000
  C   C456      1.0  0.40036  0.45082  0.43974  1.0000
  C   C457      1.0  0.45865  0.41662  0.14775  1.0000
  H   H798      1.0  0.40706  0.20190  0.20705  1.0000
  H   H799      1.0  0.43859  0.29816  0.01565  1.0000
  H   H800      1.0  0.51108  0.33447  0.06852  1.0000
  C   C458      1.0  0.45555  0.21750  0.23336  1.0000
  H   H801      1.0  0.39466  0.15809  0.30991  1.0000
  C   C459      1.0  0.48612  0.07564  0.36927  1.0000
  C   C460      1.0  0.40146  0.21355  0.28595  1.0000
  H   H802      1.0  0.44741  0.17851  0.25591  1.0000
  H   H803      1.0  0.41645  0.13358  0.35047  1.0000
  H   H804      1.0  0.32822  0.00020  0.31967  1.0000
  H   H805      1.0  0.33428  0.33190  0.07705  1.0000
  H   H806      1.0  0.38955  0.45874  0.42193  1.0000
  H   H807      1.0  0.42204  0.31966  0.03266  1.0000
  H   H808      1.0  0.49892  0.07291  0.36101  1.0000
  H   H809      1.0  0.43237  0.07330  0.36561  1.0000
  N   N26       1.0  0.41278  0.19477  0.26509  1.0000
  C   C461      1.0  0.35361  0.30101  0.09169  1.0000
  H   H810      1.0  0.40710  0.25873  0.27427  1.0000
  C   C462      1.0  0.51114  0.46380  0.40521  1.0000
  H   H811      1.0  0.43671  0.18882  0.21258  1.0000
  H   H812      1.0  0.52405  0.04993  0.48181  1.0000
  H   H813      1.0  0.37903  0.27872  0.27154  1.0000
  C   C463      1.0  0.39857  0.41791  0.44677  1.0000
  C   C464      1.0  0.47510  0.08745  0.33568  1.0000
  H   H814      1.0  0.38429  0.17427  0.16618  1.0000
  N   N27       1.0  0.46308  0.33892  0.10614  1.0000
  C   C465      1.0  0.45034  0.32406  0.08097  1.0000
  C   C466      1.0  0.46573  0.32282  0.14211  1.0000
  C   C467      1.0  0.45633  0.36883  0.11373  1.0000
  C   C468      1.0  0.47915  0.34235  0.08895  1.0000
  C   C469      1.0  0.48755  0.31435  0.07596  1.0000
  C   C470      1.0  0.44644  0.33808  0.04277  1.0000
  C   C471      1.0  0.46586  0.38604  0.14474  1.0000
  C   C472      1.0  0.46498  0.28932  0.14105  1.0000
  C   C473      1.0  0.47195  0.27602  0.17726  1.0000
  C   C474      1.0  0.50178  0.32119  0.05287  1.0000
  H   H815      1.0  0.63712  0.11233  0.03228  1.0000
  H   H816      1.0  0.43858  0.32274  0.09434  1.0000
  H   H817      1.0  0.45394  0.30130  0.07592  1.0000
  H   H818      1.0  0.47767  0.32896  0.15669  1.0000
  H   H819      1.0  0.45610  0.32929  0.16055  1.0000
  H   H820      1.0  0.44333  0.36757  0.12101  1.0000
  H   H821      1.0  0.45592  0.38261  0.08880  1.0000
  H   H822      1.0  0.47753  0.35771  0.06551  1.0000
  H   H823      1.0  0.48843  0.35249  0.10844  1.0000
  H   H824      1.0  0.47889  0.30083  0.05908  1.0000
  H   H825      1.0  0.49284  0.30166  0.09990  1.0000
  H   H826      1.0  0.44120  0.36024  0.04501  1.0000
  H   H827      1.0  0.45769  0.33897  0.02772  1.0000
  H   H828      1.0  0.47902  0.38808  0.13980  1.0000
  H   H829      1.0  0.46511  0.37536  0.17163  1.0000
  H   H830      1.0  0.45194  0.28279  0.13629  1.0000
  H   H831      1.0  0.47178  0.27962  0.11916  1.0000
  H   H832      1.0  0.48503  0.28190  0.18330  1.0000
  H   H833      1.0  0.46463  0.28351  0.19982  1.0000
  H   H834      1.0  0.47138  0.25212  0.17553  1.0000
  C   C475      1.0  0.54019  0.40894  0.42390  1.0000
  H   H835      1.0  0.63850  0.31092  0.99891  1.0000
  H   H836      1.0  0.56391  0.41057  0.40035  1.0000
  H   H837      1.0  0.31939  0.49079  0.31829  1.0000
  H   H838      1.0  0.41089  0.45308  0.42241  1.0000
  C   C476      1.0  0.43465  0.06929  0.39544  1.0000
  H   H839      1.0  0.42265  0.11229  0.31247  1.0000
  H   H840      1.0  0.34880  0.49225  0.27645  1.0000
  C   C477      1.0  0.38891  0.40291  0.41513  1.0000
  C   C478      1.0  0.32742  0.21264  0.00440  1.0000
  S   S112      1.0  0.42067  0.99974  0.35706  1.0000
  H   H841      1.0  0.33374  0.17995  0.04537  1.0000
  H   H842      1.0  0.38638  0.14128  0.19268  1.0000
  C   C479      1.0  0.45309  0.06790  0.40691  1.0000
  H   H843      1.0  0.39476  0.40627  0.38929  1.0000
  H   H844      1.0  0.38194  0.16878  0.24888  1.0000
  C   C480      1.0  0.50584  0.04612  0.43561  1.0000
  H   H845      1.0  0.40027  0.13597  0.27197  1.0000
  H   H846      1.0  0.36933  0.48051  0.45132  1.0000
  H   H847      1.0  0.55305  0.43040  0.47012  1.0000
  H   H848      1.0  0.46377  0.43171  0.48665  1.0000
  C   C481      1.0  0.48689  0.04790  0.42671  1.0000
  H   H849      1.0  0.48504  0.45551  0.39233  1.0000
  H   H850      1.0  0.42843  0.45328  0.47882  1.0000
  H   H851      1.0  0.51220  0.06162  0.41878  1.0000
  H   H852      1.0  0.47517  0.12071  0.29393  1.0000
  H   H853      1.0  0.37602  0.41143  0.41186  1.0000
  N   N28       1.0  0.48081  0.04806  0.38669  1.0000
  H   H854      1.0  0.42873  0.08710  0.41014  1.0000
  C   C482      1.0  0.32576  0.46118  0.38639  1.0000
  H   H855      1.0  0.45904  0.02341  0.39462  1.0000
  H   H856      1.0  0.45809  0.08980  0.40387  1.0000
  H   H857      1.0  0.45453  0.06209  0.43638  1.0000
  H   H858      1.0  0.36960  0.99667  0.39353  1.0000
  C   C483      1.0  0.55647  0.39491  0.41462  1.0000
  H   H859      1.0  0.63914  0.14839  0.06982  1.0000
  C   C484      1.0  0.65030  0.18761  0.08818  1.0000
  H   H860      1.0  0.35799  0.27921  0.08378  1.0000
  H   H861      1.0  0.32149  0.46898  0.27972  1.0000
  C   C485      1.0  0.53120  0.48112  0.47048  1.0000
  H   H862      1.0  0.34459  0.00739  0.42622  1.0000
  H   H863      1.0  0.32238  0.03237  0.29493  1.0000
  H   H864      1.0  0.53321  0.41514  0.39775  1.0000
  N   N29       1.0  0.52841  0.44913  0.46500  1.0000
  H   H865      1.0  0.50189  0.45284  0.45650  1.0000
  H   H866      1.0  0.32930  0.26691  0.05973  1.0000
  H   H867      1.0  0.56367  0.38707  0.43982  1.0000
  H   H868      1.0  0.47044  0.01865  0.32108  1.0000
  H   H869      1.0  0.36916  0.44392  0.46618  1.0000
  H   H870      1.0  0.61645  0.14616  0.01856  1.0000
  C   C486      1.0  0.47778  0.20483  0.99762  1.0000
  H   H871      1.0  0.50876  0.48698  0.41123  1.0000
  C   C487      1.0  0.64263  0.16892  0.05733  1.0000
  C   C488      1.0  0.49682  0.45378  0.37914  1.0000
  H   H872      1.0  0.64853  0.07206  0.07171  1.0000
  N   N30       1.0  0.64963  0.14208  0.99840  1.0000
  H   H873      1.0  0.52265  0.46212  0.39110  1.0000
  H   H874      1.0  0.47058  0.18826  0.00918  1.0000
  H   H875      1.0  0.64398  0.09693  0.99221  1.0000
  H   H876      1.0  0.36186  0.99893  0.22892  1.0000
  H   H877      1.0  0.32096  0.03267  0.37115  1.0000
  H   H878      1.0  0.35004  0.99615  0.28898  1.0000
  H   H879      1.0  0.53391  0.49156  0.44438  1.0000
  H   H880      1.0  0.34513  0.47115  0.48454  1.0000
  C   C489      1.0  0.61733  0.14250  0.98907  1.0000
  S   S113      1.0  0.65170  0.46672  0.55444  1.0000
  Fe  Fe57      1.0  0.57048  0.22579  0.87217  1.0000
  S   S114      1.0  0.55249  0.25881  0.89215  1.0000
  S   S115      1.0  0.59825  0.21693  0.88687  1.0000
  Fe  Fe58      1.0  0.54483  0.20273  0.81288  1.0000
  S   S116      1.0  0.52548  0.23529  0.82836  1.0000
  S   S117      1.0  0.53872  0.17254  0.76351  1.0000
  Fe  Fe59      1.0  0.54560  0.26828  0.83195  1.0000
  S   S118      1.0  0.54321  0.31653  0.81489  1.0000
  Fe  Fe60      1.0  0.53325  0.22385  0.88710  1.0000
  S   S119      1.0  0.51367  0.20710  0.92471  1.0000
  S   S120      1.0  0.56434  0.23673  0.81254  1.0000
  S   S121      1.0  0.55197  0.19002  0.87113  1.0000
  H   H881      1.0  0.58074  0.31720  0.73685  1.0000
  S   S122      1.0  0.51327  0.47594  0.65282  1.0000
  S   S123      1.0  0.54302  0.03731  0.72338  1.0000
  Fe  Fe61      1.0  0.53535  0.44507  0.65720  1.0000
  S   S124      1.0  0.54274  0.45629  0.60074  1.0000
  S   S125      1.0  0.53665  0.39610  0.66986  1.0000
  H   H882      1.0  0.32299  0.21519  0.86866  1.0000
  H   H883      1.0  0.47476  0.18913  0.86042  1.0000
  H   H884      1.0  0.44098  0.46872  0.57908  1.0000
  C   C490      1.0  0.59340  0.43479  0.67906  1.0000
  S   S126      1.0  0.55200  0.47783  0.68464  1.0000
  H   H885      1.0  0.63241  0.06059  0.61518  1.0000
  C   C491      1.0  0.49738  0.06817  0.78363  1.0000
  H   H886      1.0  0.59651  0.39111  0.73114  1.0000
  C   C492      1.0  0.49109  0.21396  0.77384  1.0000
  C   C493      1.0  0.54127  0.33804  0.77399  1.0000
  C   C494      1.0  0.54042  0.32600  0.73896  1.0000
  C   C495      1.0  0.53901  0.34409  0.70764  1.0000
  C   C496      1.0  0.53843  0.37447  0.71066  1.0000
  C   C497      1.0  0.53941  0.38652  0.74565  1.0000
  C   C498      1.0  0.54078  0.36844  0.77695  1.0000
  H   H887      1.0  0.54078  0.30276  0.73600  1.0000
  H   H888      1.0  0.53826  0.33439  0.68084  1.0000
  H   H889      1.0  0.53896  0.40975  0.74867  1.0000
  H   H890      1.0  0.54141  0.37811  0.80378  1.0000
  C   C499      1.0  0.54027  0.13483  0.75293  1.0000
  C   C500      1.0  0.54704  0.11422  0.77809  1.0000
  C   C501      1.0  0.54764  0.08463  0.76856  1.0000
  C   C502      1.0  0.54188  0.07513  0.73348  1.0000
  C   C503      1.0  0.53542  0.09580  0.70805  1.0000
  C   C504      1.0  0.53454  0.12534  0.71783  1.0000
  H   H891      1.0  0.55182  0.12106  0.80492  1.0000
  H   H892      1.0  0.55272  0.06896  0.78851  1.0000
  H   H893      1.0  0.53090  0.08901  0.68099  1.0000
  H   H894      1.0  0.52934  0.14100  0.69798  1.0000
  C   C505      1.0  0.49910  0.21829  0.95675  1.0000
  H   H895      1.0  0.52885  0.39854  0.56182  1.0000
  H   H896      1.0  0.53015  0.14650  0.84033  1.0000
  H   H897      1.0  0.60228  0.48600  0.74773  1.0000
  H   H898      1.0  0.32851  0.09531  0.89443  1.0000
  C   C506      1.0  0.58631  0.35387  0.70317  1.0000
  C   C507      1.0  0.60328  0.47464  0.57598  1.0000
  H   H899      1.0  0.50292  0.11795  0.88127  1.0000
  C   C508      1.0  0.64258  0.23001  0.94396  1.0000
  C   C509      1.0  0.63013  0.22323  0.91651  1.0000
  C   C510      1.0  0.61334  0.22798  0.92171  1.0000
  C   C511      1.0  0.60920  0.23990  0.95480  1.0000
  H   H900      1.0  0.64363  0.34857  0.93096  1.0000
  C   C512      1.0  0.63348  0.47617  0.57609  1.0000
  H   H901      1.0  0.63351  0.21427  0.89094  1.0000
  H   H902      1.0  0.48456  0.44718  0.53582  1.0000
  H   H903      1.0  0.50363  0.21348  0.76396  1.0000
  H   H904      1.0  0.61060  0.48405  0.70374  1.0000
  H   H905      1.0  0.35798  0.45959  0.52444  1.0000
  H   H906      1.0  0.63399  0.14379  0.94755  1.0000
  H   H907      1.0  0.51533  0.37139  0.54224  1.0000
  H   H908      1.0  0.63663  0.06363  0.66377  1.0000
  H   H909      1.0  0.51681  0.44827  0.51568  1.0000
  H   H910      1.0  0.48596  0.12508  0.78048  1.0000
  H   H911      1.0  0.61669  0.02985  0.56341  1.0000
  C   C513      1.0  0.62165  0.24601  0.98260  1.0000
  H   H912      1.0  0.61353  0.33839  0.94092  1.0000
  H   H913      1.0  0.57237  0.41554  0.54999  1.0000
  N   N31       1.0  0.58857  0.08345  0.68948  1.0000
  C   C514      1.0  0.57613  0.07603  0.65836  1.0000
  H   H914      1.0  0.58891  0.10673  0.76560  1.0000
  C   C515      1.0  0.58261  0.11108  0.70655  1.0000
  C   C516      1.0  0.60563  0.08803  0.67730  1.0000
  C   C517      1.0  0.61078  0.06987  0.64434  1.0000
  C   C518      1.0  0.57212  0.10061  0.62994  1.0000
  C   C519      1.0  0.59222  0.12054  0.74262  1.0000
  C   C520      1.0  0.59991  0.47851  0.71916  1.0000
  H   H915      1.0  0.58767  0.02204  0.68160  1.0000
  C   C521      1.0  0.56338  0.08936  0.59463  1.0000
  C   C522      1.0  0.58788  0.15174  0.75230  1.0000
  H   H916      1.0  0.56424  0.06995  0.66908  1.0000
  H   H917      1.0  0.58002  0.05651  0.64359  1.0000
  C   C523      1.0  0.33213  0.16913  0.91177  1.0000
  H   H918      1.0  0.47376  0.18551  0.79471  1.0000
  H   H919      1.0  0.56946  0.10934  0.71231  1.0000
  H   H920      1.0  0.58299  0.12950  0.68713  1.0000
  H   H921      1.0  0.60717  0.11102  0.66939  1.0000
  H   H922      1.0  0.61505  0.08410  0.70058  1.0000
  S   S127      1.0  0.54376  0.02093  0.61397  1.0000
  H   H923      1.0  0.49062  0.22956  0.79667  1.0000
  H   H924      1.0  0.56380  0.11704  0.64122  1.0000
  H   H925      1.0  0.58345  0.11162  0.62312  1.0000
  H   H926      1.0  0.60572  0.11888  0.74064  1.0000
  H   H927      1.0  0.59107  0.15019  0.97632  1.0000
  H   H928      1.0  0.63228  0.09576  0.63596  1.0000
  H   H929      1.0  0.58307  0.37203  0.63396  1.0000
  C   C524      1.0  0.64102  0.38215  0.68324  1.0000
  H   H930      1.0  0.35330  0.26605  0.98299  1.0000
  H   H931      1.0  0.47573  0.12223  0.85992  1.0000
  H   H932      1.0  0.56151  0.10724  0.57442  1.0000
  H   H933      1.0  0.57082  0.07189  0.58272  1.0000
  H   H934      1.0  0.55112  0.08103  0.59993  1.0000
  H   H935      1.0  0.59439  0.15750  0.77894  1.0000
  H   H936      1.0  0.59162  0.16694  0.73120  1.0000
  H   H937      1.0  0.57443  0.15439  0.75467  1.0000
  H   H938      1.0  0.48316  0.16667  0.89758  1.0000
  H   H939      1.0  0.57594  0.39611  0.71268  1.0000
  H   H940      1.0  0.59613  0.41212  0.59688  1.0000
  H   H941      1.0  0.64462  0.39243  0.65777  1.0000
  H   H942      1.0  0.60794  0.02939  0.70282  1.0000
  H   H943      1.0  0.34695  0.11450  0.88559  1.0000
  H   H944      1.0  0.46982  0.00299  0.52602  1.0000
  N   N32       1.0  0.59389  0.40240  0.67340  1.0000
  Fe  Fe62      1.0  0.54205  0.00788  0.67246  1.0000
  C   C525      1.0  0.61808  0.46704  0.56042  1.0000
  C   C526      1.0  0.58885  0.05998  0.71815  1.0000
  H   H945      1.0  0.60324  0.18212  0.97544  1.0000
  C   C527      1.0  0.58192  0.39528  0.64123  1.0000
  H   H946      1.0  0.34171  0.17523  0.89333  1.0000
  C   C528      1.0  0.47420  0.16748  0.87325  1.0000
  S   S128      1.0  0.58808  0.00538  0.59137  1.0000
  H   H947      1.0  0.59637  0.24369  0.95930  1.0000
  H   H948      1.0  0.53615  0.14084  0.90868  1.0000
  H   H949      1.0  0.51107  0.17121  0.80621  1.0000
  C   C529      1.0  0.58345  0.41292  0.60567  1.0000
  C   C530      1.0  0.63407  0.15203  0.97605  1.0000
  C   C531      1.0  0.53619  0.12215  0.88974  1.0000
  H   H950      1.0  0.59514  0.34195  0.75897  1.0000
  H   H951      1.0  0.49088  0.17489  0.96470  1.0000
  H   H952      1.0  0.57900  0.00632  0.74223  1.0000
  C   C532      1.0  0.59728  0.44595  0.71865  1.0000
  H   H953      1.0  0.63964  0.35855  0.67879  1.0000
  H   H954      1.0  0.41519  0.43410  0.50583  1.0000
  H   H955      1.0  0.62736  0.41904  0.69936  1.0000
  C   C533      1.0  0.48646  0.18386  0.78607  1.0000
  H   H956      1.0  0.55920  0.40042  0.58200  1.0000
  H   H957      1.0  0.62223  0.38530  0.72060  1.0000
  H   H958      1.0  0.60334  0.15645  0.93847  1.0000
  H   H959      1.0  0.59954  0.01312  0.76257  1.0000
  H   H960      1.0  0.45484  0.18247  0.90611  1.0000
  H   H961      1.0  0.50438  0.03753  0.49369  1.0000
  H   H962      1.0  0.38940  0.45131  0.51692  1.0000
  H   H963      1.0  0.32768  0.18988  0.92331  1.0000
  H   H964      1.0  0.60170  0.44560  0.66082  1.0000
  H   H965      1.0  0.51046  0.07001  0.77746  1.0000
  H   H966      1.0  0.57990  0.43590  0.60963  1.0000
  C   C534      1.0  0.57207  0.40123  0.57422  1.0000
  C   C535      1.0  0.62499  0.39578  0.69471  1.0000
  H   H967      1.0  0.59158  0.46807  0.56298  1.0000
  H   H968      1.0  0.57534  0.34886  0.68445  1.0000
  C   C536      1.0  0.48869  0.48833  0.51119  1.0000
  H   H969      1.0  0.54901  0.11816  0.88244  1.0000
  H   H970      1.0  0.60835  0.43544  0.73264  1.0000
  H   H971      1.0  0.57349  0.35146  0.75294  1.0000
  N   N33       1.0  0.49489  0.14287  0.83261  1.0000
  C   C537      1.0  0.35727  0.47397  0.50010  1.0000
  H   H972      1.0  0.59731  0.34325  0.69289  1.0000
  H   H973      1.0  0.61069  0.36936  0.65558  1.0000
  H   H974      1.0  0.63533  0.30038  0.95163  1.0000
  H   H975      1.0  0.56903  0.39860  0.64865  1.0000
  H   H976      1.0  0.44744  0.16636  0.86341  1.0000
  C   C538      1.0  0.49348  0.08883  0.81431  1.0000
  C   C539      1.0  0.62916  0.07274  0.63967  1.0000
  C   C540      1.0  0.58379  0.34037  0.74026  1.0000
  C   C541      1.0  0.58821  0.38708  0.70637  1.0000
  C   C542      1.0  0.49694  0.24712  0.96732  1.0000
  H   H977      1.0  0.60827  0.04662  0.64711  1.0000
  H   H978      1.0  0.58672  0.44160  0.73511  1.0000
  C   C543      1.0  0.59222  0.00736  0.73691  1.0000
  H   H979      1.0  0.58874  0.48993  0.70673  1.0000
  H   H980      1.0  0.58088  0.44379  0.67082  1.0000
  H   H981      1.0  0.60395  0.07743  0.61861  1.0000
  C   C544      1.0  0.61084  0.39230  0.66449  1.0000
  H   H982      1.0  0.32535  0.07976  0.82975  1.0000
  H   H983      1.0  0.59732  0.06543  0.74225  1.0000
  C   C545      1.0  0.45703  0.16472  0.88664  1.0000
  H   H984      1.0  0.48646  0.16975  0.76174  1.0000
  H   H985      1.0  0.61569  0.11906  0.98373  1.0000
  C   C546      1.0  0.60292  0.15880  0.96848  1.0000
  C   C547      1.0  0.48936  0.19729  0.97220  1.0000
  H   H986      1.0  0.48928  0.07297  0.75846  1.0000
  C   C548      1.0  0.63840  0.24079  0.97755  1.0000
  H   H987      1.0  0.48053  0.08545  0.82045  1.0000
  H   H988      1.0  0.50732  0.40718  0.55018  1.0000
  H   H989      1.0  0.46826  0.14417  0.82265  1.0000
  C   C549      1.0  0.47786  0.14303  0.84595  1.0000
  H   H990      1.0  0.63371  0.17604  0.97350  1.0000
  H   H991      1.0  0.61761  0.45437  0.53569  1.0000
  H   H992      1.0  0.57641  0.05825  0.72840  1.0000
  H   H993      1.0  0.48224  0.22156  0.75108  1.0000
  C   C550      1.0  0.62068  0.00973  0.57667  1.0000
  C   C551      1.0  0.38837  0.46925  0.49653  1.0000
  C   C552      1.0  0.54535  0.48930  0.49924  1.0000
  H   H994      1.0  0.53796  0.43777  0.52014  1.0000
  H   H995      1.0  0.32531  0.24743  0.96534  1.0000
  H   H996      1.0  0.45595  0.14380  0.90106  1.0000
  H   H997      1.0  0.53277  0.39011  0.49629  1.0000
  H   H998      1.0  0.50159  0.08257  0.83882  1.0000
  H   H999      1.0  0.33278  0.15413  0.96849  1.0000
  C   C553      1.0  0.49880  0.17202  0.81732  1.0000
  C   C554      1.0  0.50720  0.13598  0.86456  1.0000
  H   H1000     1.0  0.57616  0.37913  0.56678  1.0000
  H   H1001     1.0  0.52538  0.10888  0.83780  1.0000
  H   H1002     1.0  0.50823  0.15467  0.88351  1.0000
  C   C555      1.0  0.51818  0.39474  0.54173  1.0000
  H   H1003     1.0  0.61475  0.40448  0.64068  1.0000
  C   C556      1.0  0.52497  0.12839  0.85513  1.0000
  H   H1004     1.0  0.53206  0.10270  0.90392  1.0000
  H   H1005     1.0  0.50754  0.12241  0.78954  1.0000
  H   H1006     1.0  0.50002  0.18850  0.83937  1.0000
  H   H1007     1.0  0.49538  0.04553  0.79208  1.0000
  C   C557      1.0  0.59459  0.02947  0.70688  1.0000
  C   C558      1.0  0.49574  0.12069  0.80278  1.0000
  C   C559      1.0  0.48116  0.46141  0.51294  1.0000
  C   C560      1.0  0.64732  0.34241  0.95987  1.0000
  H   H1008     1.0  0.36622  0.16261  0.93684  1.0000
  C   C561      1.0  0.63743  0.00085  0.57713  1.0000
  Fe  Fe63      1.0  0.55834  0.49068  0.62851  1.0000
  H   H1009     1.0  0.64612  0.01412  0.56434  1.0000
  H   H1010     1.0  0.42948  0.43679  0.56702  1.0000
  C   C562      1.0  0.60368  0.49151  0.60757  1.0000
  C   C563      1.0  0.33731  0.08786  0.84196  1.0000
  Fe  Fe64      1.0  0.52145  0.48873  0.59763  1.0000
  C   C564      1.0  0.43601  0.45527  0.55590  1.0000
  C   C565      1.0  0.41788  0.45616  0.49609  1.0000
  C   C566      1.0  0.35725  0.16620  0.95765  1.0000
  H   H1011     1.0  0.34511  0.06899  0.85176  1.0000
  C   C567      1.0  0.33459  0.10799  0.87394  1.0000
  H   H1012     1.0  0.34365  0.09929  0.82065  1.0000
  H   H1013     1.0  0.44653  0.44692  0.54133  1.0000
  C   C568      1.0  0.63527  0.31891  0.97072  1.0000
  C   C569      1.0  0.61756  0.33067  0.96894  1.0000
  H   H1014     1.0  0.60924  0.31318  0.97613  1.0000
  H   H1015     1.0  0.33237  0.14738  0.84373  1.0000
  C   C570      1.0  0.42428  0.47356  0.53024  1.0000
  H   H1016     1.0  0.38828  0.48930  0.51323  1.0000
  H   H1017     1.0  0.64473  0.36188  0.97610  1.0000
  H   H1018     1.0  0.50418  0.26368  0.95586  1.0000
  H   H1019     1.0  0.32422  0.19088  0.83096  1.0000
  C   C571      1.0  0.32433  0.13514  0.86099  1.0000
  H   H1020     1.0  0.41399  0.48140  0.54585  1.0000
  C   C572      1.0  0.52643  0.43597  0.50203  1.0000
  H   H1021     1.0  0.35575  0.18979  0.96210  1.0000
  C   C573      1.0  0.34073  0.15280  0.94534  1.0000
  H   H1022     1.0  0.34305  0.12966  0.94019  1.0000
  H   H1023     1.0  0.54187  0.48455  0.52717  1.0000
  H   H1024     1.0  0.43131  0.49245  0.52180  1.0000
  H   H1025     1.0  0.55690  0.47722  0.49467  1.0000
  H   H1026     1.0  0.65106  0.38542  0.70504  1.0000
  C   C574      1.0  0.63387  0.49267  0.60799  1.0000
  H   H1027     1.0  0.36233  0.15612  0.98375  1.0000
  C   C575      1.0  0.52208  0.40362  0.50328  1.0000
  H   H1028     1.0  0.61642  0.34866  0.98859  1.0000
  C   C576      1.0  0.33308  0.23694  0.98691  1.0000
  Fe  Fe65      1.0  0.40012  0.73083  0.09760  1.0000
  S   S129      1.0  0.42003  0.76344  0.09241  1.0000
  S   S130      1.0  0.37275  0.74406  0.08991  1.0000
  Fe  Fe66      1.0  0.42465  0.68447  0.12925  1.0000
  S   S131      1.0  0.44651  0.71355  0.12639  1.0000
  S   S132      1.0  0.42532  0.63597  0.14369  1.0000
  Fe  Fe67      1.0  0.43024  0.74885  0.14793  1.0000
  S   S133      1.0  0.43967  0.77876  0.19458  1.0000
  Fe  Fe68      1.0  0.43543  0.72708  0.07047  1.0000
  S   S134      1.0  0.44840  0.73812  0.01831  1.0000
  S   S135      1.0  0.40942  0.71850  0.15505  1.0000
  S   S136      1.0  0.41452  0.69569  0.07155  1.0000
  Fe  Fe69      1.0  0.40318  0.96593  0.33275  1.0000
  S   S137      1.0  0.40828  0.97725  0.27497  1.0000
  S   S138      1.0  0.37625  0.95258  0.33818  1.0000
  Fe  Fe70      1.0  0.44058  0.96477  0.35900  1.0000
  C   C577      1.0  0.60626  0.63409  0.09867  1.0000
  S   S139      1.0  0.46326  0.95873  0.40204  1.0000
  H   H1029     1.0  0.38611  0.65779  0.15626  1.0000
  S   S140      1.0  0.41850  0.55855  0.28728  1.0000
  Fe  Fe71      1.0  0.42809  0.94231  0.28122  1.0000
  S   S141      1.0  0.42918  0.91347  0.23008  1.0000
  H   H1030     1.0  0.38417  0.62187  0.19591  1.0000
  S   S142      1.0  0.42267  0.93013  0.33832  1.0000
  C   C578      1.0  0.63691  0.91493  0.42051  1.0000
  H   H1031     1.0  0.63977  0.69847  0.00454  1.0000
  C   C579      1.0  0.47397  0.96759  0.44547  1.0000
  H   H1032     1.0  0.35978  0.59077  0.14053  1.0000
  H   H1033     1.0  0.38082  0.79084  0.14368  1.0000
  C   C580      1.0  0.48073  0.71621  0.01510  1.0000
  H   H1034     1.0  0.33956  0.52852  0.40602  1.0000
  C   C581      1.0  0.43674  0.81637  0.20367  1.0000
  C   C582      1.0  0.43995  0.82646  0.23963  1.0000
  C   C583      1.0  0.43756  0.85591  0.24839  1.0000
  C   C584      1.0  0.43218  0.87587  0.22111  1.0000
  C   C585      1.0  0.42914  0.86581  0.18505  1.0000
  C   C586      1.0  0.43123  0.83626  0.17643  1.0000
  H   H1035     1.0  0.44425  0.81134  0.26099  1.0000
  H   H1036     1.0  0.44006  0.86322  0.27619  1.0000
  H   H1037     1.0  0.42502  0.88102  0.16367  1.0000
  H   H1038     1.0  0.42866  0.82896  0.14869  1.0000
  C   C587      1.0  0.42354  0.61504  0.18419  1.0000
  C   C588      1.0  0.42043  0.62755  0.21765  1.0000
  C   C589      1.0  0.41896  0.60992  0.24869  1.0000
  C   C590      1.0  0.42057  0.57955  0.24693  1.0000
  C   C591      1.0  0.42351  0.56705  0.21336  1.0000
  C   C592      1.0  0.42498  0.58467  0.18232  1.0000
  H   H1039     1.0  0.41927  0.65079  0.21970  1.0000
  H   H1040     1.0  0.41667  0.61990  0.27442  1.0000
  H   H1041     1.0  0.42475  0.54380  0.21137  1.0000
  H   H1042     1.0  0.42736  0.57466  0.15666  1.0000
  H   H1043     1.0  0.37041  0.96920  0.25647  1.0000
  C   C593      1.0  0.37101  0.70193  0.18741  1.0000
  H   H1044     1.0  0.61782  0.62103  0.10381  1.0000
  H   H1045     1.0  0.49638  0.94560  0.43293  1.0000
  H   H1046     1.0  0.38249  0.69445  0.20333  1.0000
  C   C594      1.0  0.35821  0.70524  0.03948  1.0000
  C   C595      1.0  0.35613  0.72924  0.06182  1.0000
  H   H1047     1.0  0.37601  0.83430  0.10355  1.0000
  H   H1048     1.0  0.63151  0.89325  0.41598  1.0000
  H   H1049     1.0  0.37036  0.69578  0.03790  1.0000
  H   H1050     1.0  0.46860  0.51181  0.42995  1.0000
  C   C596      1.0  0.34452  0.69343  0.01908  1.0000
  H   H1051     1.0  0.38672  0.66008  0.07349  1.0000
  C   C597      1.0  0.36425  0.61101  0.15403  1.0000
  H   H1052     1.0  0.35875  0.66179  0.18976  1.0000
  C   C598      1.0  0.35879  0.96136  0.36289  1.0000
  C   C599      1.0  0.34441  0.94509  0.35643  1.0000
  C   C600      1.0  0.38856  0.82478  0.10972  1.0000
  H   H1053     1.0  0.33292  0.80054  0.20315  1.0000
  H   H1054     1.0  0.60303  0.64418  0.12462  1.0000
  C   C601      1.0  0.63608  0.73907  0.10126  1.0000
  Fe  Fe72      1.0  0.41963  0.51003  0.30271  1.0000
  H   H1055     1.0  0.59017  0.75186  0.99823  1.0000
  C   C602      1.0  0.37920  0.60264  0.18120  1.0000
  C   C603      1.0  0.49012  0.98791  0.31597  1.0000
  C   C604      1.0  0.33001  0.97392  0.39982  1.0000
  H   H1056     1.0  0.50185  0.77831  0.00861  1.0000
  H   H1057     1.0  0.48095  0.89099  0.14133  1.0000
  H   H1058     1.0  0.51849  0.80311  0.01648  1.0000
  H   H1059     1.0  0.41862  0.82799  0.06328  1.0000
  H   H1060     1.0  0.33214  0.61444  0.12212  1.0000
  C   C605      1.0  0.62167  0.67885  0.08274  1.0000
  C   C606      1.0  0.61351  0.71944  0.03981  1.0000
  H   H1061     1.0  0.63241  0.66654  0.09620  1.0000
  C   C607      1.0  0.47198  0.49760  0.45288  1.0000
  H   H1062     1.0  0.39260  0.61949  0.11931  1.0000
  H   H1063     1.0  0.46476  0.90447  0.10849  1.0000
  H   H1064     1.0  0.37398  0.71844  0.16710  1.0000
  H   H1065     1.0  0.40938  0.62407  0.06667  1.0000
  H   H1066     1.0  0.35104  0.62242  0.07780  1.0000
  H   H1067     1.0  0.32308  0.67368  0.08675  1.0000
  H   H1068     1.0  0.61870  0.73999  0.03013  1.0000
  H   H1069     1.0  0.31926  0.93845  0.36957  1.0000
  H   H1070     1.0  0.38525  0.57542  0.22878  1.0000
  C   C608      1.0  0.36239  0.67654  0.16820  1.0000
  H   H1071     1.0  0.62471  0.67179  0.00567  1.0000
  H   H1072     1.0  0.36275  0.71217  0.20647  1.0000
  H   H1073     1.0  0.35263  0.66001  0.08622  1.0000
  S   S143      1.0  0.44722  0.97431  0.30158  1.0000
  H   H1074     1.0  0.32085  0.63935  0.06378  1.0000
  C   C609      1.0  0.38053  0.62075  0.10287  1.0000
  C   C610      1.0  0.46767  0.88967  0.13208  1.0000
  C   C611      1.0  0.33011  0.95138  0.37457  1.0000
  H   H1075     1.0  0.64926  0.90394  0.47231  1.0000
  C   C612      1.0  0.39780  0.62370  0.04848  1.0000
  C   C613      1.0  0.63436  0.68282  0.02312  1.0000
  H   H1076     1.0  0.57875  0.72693  0.02403  1.0000
  S   S144      1.0  0.64959  0.76655  0.99056  1.0000
  H   H1077     1.0  0.34438  0.92730  0.33741  1.0000
  C   C614      1.0  0.34025  0.74172  0.06262  1.0000
  H   H1078     1.0  0.38918  0.59215  0.16686  1.0000
  H   H1079     1.0  0.32334  0.51079  0.23900  1.0000
  H   H1080     1.0  0.39102  0.80944  0.08751  1.0000
  H   H1081     1.0  0.32723  0.98058  0.22136  1.0000
  H   H1082     1.0  0.50149  0.83481  0.05281  1.0000
  C   C615      1.0  0.60825  0.65722  0.06967  1.0000
  C   C616      1.0  0.37432  0.58112  0.20987  1.0000
  C   C617      1.0  0.34444  0.99004  0.40655  1.0000
  H   H1083     1.0  0.37761  0.59811  0.09478  1.0000
  N   N34       1.0  0.38429  0.81591  0.21499  1.0000
  C   C618      1.0  0.39478  0.78871  0.22042  1.0000
  C   C619      1.0  0.38655  0.82938  0.17817  1.0000
  C   C620      1.0  0.39020  0.83706  0.24434  1.0000
  C   C621      1.0  0.36636  0.81029  0.21904  1.0000
  C   C622      1.0  0.35805  0.78822  0.19227  1.0000
  C   C623      1.0  0.39417  0.77274  0.25740  1.0000
  C   C624      1.0  0.38341  0.86868  0.24001  1.0000
  C   C625      1.0  0.38966  0.80863  0.14616  1.0000
  C   C626      1.0  0.33507  0.63736  0.11688  1.0000
  H   H1084     1.0  0.34929  0.53017  0.26526  1.0000
  C   C627      1.0  0.40552  0.74595  0.25919  1.0000
  C   C628      1.0  0.38979  0.88729  0.27227  1.0000
  H   H1085     1.0  0.40784  0.79391  0.21753  1.0000
  H   H1086     1.0  0.39173  0.77251  0.19889  1.0000
  H   H1087     1.0  0.37585  0.84390  0.16953  1.0000
  H   H1088     1.0  0.39744  0.84357  0.18011  1.0000
  H   H1089     1.0  0.40390  0.83821  0.24602  1.0000
  H   H1090     1.0  0.38703  0.82959  0.27165  1.0000
  H   H1091     1.0  0.36458  0.80339  0.24745  1.0000
  H   H1092     1.0  0.35892  0.83059  0.21498  1.0000
  H   H1093     1.0  0.36525  0.76772  0.19166  1.0000
  H   H1094     1.0  0.35649  0.79762  0.16435  1.0000
  H   H1095     1.0  0.39839  0.78671  0.28062  1.0000
  H   H1096     1.0  0.38151  0.76549  0.26108  1.0000
  H   H1097     1.0  0.36978  0.86958  0.23874  1.0000
  H   H1098     1.0  0.38738  0.87897  0.21495  1.0000
  H   H1099     1.0  0.40222  0.79875  0.15047  1.0000
  H   H1100     1.0  0.59622  0.61938  0.08907  1.0000
  H   H1101     1.0  0.50372  0.98601  0.32101  1.0000
  H   H1102     1.0  0.40502  0.73489  0.28591  1.0000
  C   C629      1.0  0.48390  0.50628  0.48085  1.0000
  C   C630      1.0  0.39962  0.54700  0.43133  1.0000
  C   C631      1.0  0.32923  0.99352  0.24673  1.0000
  H   H1103     1.0  0.41847  0.75214  0.25630  1.0000
  H   H1104     1.0  0.34345  0.95982  0.27921  1.0000
  H   H1105     1.0  0.40168  0.73053  0.23719  1.0000
  H   H1106     1.0  0.50540  0.69908  0.01091  1.0000
  H   H1107     1.0  0.38536  0.87925  0.29816  1.0000
  H   H1108     1.0  0.40347  0.88726  0.27486  1.0000
  H   H1109     1.0  0.38531  0.90999  0.26802  1.0000
  N   N35       1.0  0.47001  0.81674  0.07854  1.0000
  C   C632      1.0  0.47854  0.81071  0.04434  1.0000
  C   C633      1.0  0.45186  0.81157  0.07051  1.0000
  C   C634      1.0  0.47307  0.84757  0.08997  1.0000
  C   C635      1.0  0.47646  0.79701  0.10949  1.0000
  C   C636      1.0  0.47765  0.76439  0.10027  1.0000
  C   C637      1.0  0.49762  0.81216  0.04822  1.0000
  C   C638      1.0  0.46322  0.85866  0.12181  1.0000
  C   C639      1.0  0.44264  0.83209  0.04185  1.0000
  C   C640      1.0  0.42431  0.82548  0.03700  1.0000
  C   C641      1.0  0.48444  0.74689  0.13369  1.0000
  H   H1110     1.0  0.38982  0.55875  0.41407  1.0000
  H   H1111     1.0  0.47440  0.82654  0.02256  1.0000
  H   H1112     1.0  0.47491  0.78929  0.03278  1.0000
  H   H1113     1.0  0.44993  0.78930  0.06013  1.0000
  H   H1114     1.0  0.44538  0.81243  0.09602  1.0000
  H   H1115     1.0  0.47056  0.86260  0.06638  1.0000
  H   H1116     1.0  0.48634  0.85032  0.09879  1.0000
  H   H1117     1.0  0.48882  0.80381  0.12108  1.0000
  H   H1118     1.0  0.46844  0.79874  0.13260  1.0000
  H   H1119     1.0  0.48595  0.76010  0.07837  1.0000
  H   H1120     1.0  0.46536  0.75611  0.09111  1.0000
  H   H1121     1.0  0.50317  0.79878  0.07123  1.0000
  H   H1122     1.0  0.46586  0.84509  0.14660  1.0000
  H   H1123     1.0  0.44978  0.85858  0.11419  1.0000
  H   H1124     1.0  0.44372  0.85504  0.05004  1.0000
  H   H1125     1.0  0.44754  0.82943  0.01474  1.0000
  C   C642      1.0  0.32124  0.65020  0.09078  1.0000
  C   C643      1.0  0.34539  0.98128  0.26699  1.0000
  H   H1126     1.0  0.48494  0.72358  0.12662  1.0000
  H   H1127     1.0  0.49709  0.75372  0.14286  1.0000
  H   H1128     1.0  0.47637  0.74973  0.15647  1.0000
  H   H1129     1.0  0.41797  0.84067  0.01679  1.0000
  H   H1130     1.0  0.45407  0.99149  0.46708  1.0000
  H   H1131     1.0  0.46039  0.89694  0.15483  1.0000
  H   H1132     1.0  0.35125  0.68558  0.15246  1.0000
  N   N36       1.0  0.62731  0.69899  0.05418  1.0000
  H   H1133     1.0  0.35545  0.96227  0.21896  1.0000
  H   H1134     1.0  0.62673  0.75502  0.08963  1.0000
  H   H1135     1.0  0.41075  0.54523  0.41584  1.0000
  N   N37       1.0  0.36736  0.63325  0.12533  1.0000
  C   C644      1.0  0.64099  0.71698  0.07208  1.0000
  H   H1136     1.0  0.36470  0.59068  0.22619  1.0000
  H   H1137     1.0  0.61649  0.69133  0.10508  1.0000
  H   H1138     1.0  0.33512  0.76545  0.18271  1.0000
  H   H1139     1.0  0.40265  0.55985  0.45638  1.0000
  H   H1140     1.0  0.35424  0.61812  0.17083  1.0000
  C   C645      1.0  0.38356  0.63743  0.06740  1.0000
  H   H1141     1.0  0.34625  0.67461  0.00231  1.0000
  C   C646      1.0  0.34089  0.78078  0.20292  1.0000
  H   H1142     1.0  0.42249  0.80310  0.02673  1.0000
  H   H1143     1.0  0.33492  0.64906  0.14302  1.0000
  C   C647      1.0  0.35194  0.63872  0.10013  1.0000
  H   H1144     1.0  0.39505  0.60101  0.04081  1.0000
  H   H1145     1.0  0.63944  0.92448  0.39382  1.0000
  H   H1146     1.0  0.39974  0.63611  0.02333  1.0000
  C   C648      1.0  0.32661  0.73032  0.04158  1.0000
  H   H1147     1.0  0.60577  0.72574  0.06225  1.0000
  C   C649      1.0  0.32863  0.70591  0.01984  1.0000
  C   C650      1.0  0.60190  0.70925  0.00691  1.0000
  H   H1148     1.0  0.37254  0.63751  0.04756  1.0000
  C   C651      1.0  0.37362  0.66116  0.14195  1.0000
  C   C652      1.0  0.49049  0.95815  0.45317  1.0000
  H   H1149     1.0  0.59769  0.68694  0.01001  1.0000
  H   H1150     1.0  0.34167  0.77035  0.23029  1.0000
  H   H1151     1.0  0.47963  0.70705  0.04188  1.0000
  H   H1152     1.0  0.61116  0.64600  0.04432  1.0000
  C   C653      1.0  0.58662  0.72895  0.00091  1.0000
  H   H1153     1.0  0.37547  0.67733  0.12029  1.0000
  H   H1154     1.0  0.36974  0.56094  0.19669  1.0000
  H   H1155     1.0  0.59620  0.66882  0.06490  1.0000
  C   C654      1.0  0.50488  0.80136  0.01353  1.0000
  C   C655      1.0  0.39356  0.51713  0.44121  1.0000
  C   C656      1.0  0.46670  0.98395  0.47219  1.0000
  H   H1156     1.0  0.39777  0.84217  0.11030  1.0000
  H   H1157     1.0  0.33847  0.76040  0.07959  1.0000
  H   H1158     1.0  0.62773  0.92905  0.43301  1.0000
  H   H1159     1.0  0.64168  0.64038  0.04694  1.0000
  H   H1160     1.0  0.36404  0.50882  0.37741  1.0000
  H   H1161     1.0  0.63113  0.72804  0.12471  1.0000
  H   H1162     1.0  0.64733  0.77199  0.13666  1.0000
  S   S145      1.0  0.41280  0.50067  0.36016  1.0000
  C   C657      1.0  0.46747  0.73211  0.99791  1.0000
  H   H1163     1.0  0.34500  0.51921  0.31045  1.0000
  H   H1164     1.0  0.48676  0.98517  0.28630  1.0000
  C   C658      1.0  0.65105  0.75607  0.11617  1.0000
  C   C659      1.0  0.33956  0.50652  0.39616  1.0000
  C   C660      1.0  0.32461  0.51394  0.26901  1.0000
  H   H1165     1.0  0.48439  0.97029  0.33085  1.0000
  H   H1166     1.0  0.55278  0.52795  0.47111  1.0000
  C   C661      1.0  0.49537  0.71168  0.99735  1.0000
  H   H1167     1.0  0.38300  0.52089  0.45795  1.0000
  C   C662      1.0  0.49953  0.96474  0.48671  1.0000
  C   C663      1.0  0.64749  0.65889  0.03406  1.0000
  C   C664      1.0  0.35904  0.97777  0.24106  1.0000
  H   H1168     1.0  0.48953  0.52714  0.47883  1.0000
  C   C665      1.0  0.35868  0.98399  0.38806  1.0000
  H   H1169     1.0  0.38925  0.50612  0.41562  1.0000
  C   C666      1.0  0.34302  0.51378  0.28104  1.0000
  H   H1170     1.0  0.64689  0.72953  0.05100  1.0000
  H   H1171     1.0  0.65091  0.70306  0.08582  1.0000
  H   H1172     1.0  0.41841  0.49862  0.44699  1.0000
  C   C667      1.0  0.40731  0.49924  0.46296  1.0000
  C   C668      1.0  0.35353  0.49535  0.38016  1.0000
  H   H1173     1.0  0.41065  0.51249  0.48749  1.0000
  H   H1174     1.0  0.31955  0.53562  0.27518  1.0000
  H   H1175     1.0  0.50000  0.81441  0.98948  1.0000
  C   C669      1.0  0.49160  0.90500  0.64726  1.0000
  Fe  Fe73      1.0  0.56463  0.72799  0.86581  1.0000
  S   S146      1.0  0.54781  0.76139  0.88829  1.0000
  S   S147      1.0  0.59237  0.71892  0.87789  1.0000
  Fe  Fe74      1.0  0.53675  0.70422  0.81249  1.0000
  S   S148      1.0  0.51804  0.73683  0.83128  1.0000
  S   S149      1.0  0.53184  0.67471  0.76237  1.0000
  Fe  Fe75      1.0  0.53822  0.76966  0.82941  1.0000
  S   S150      1.0  0.53492  0.81740  0.81133  1.0000
  Fe  Fe76      1.0  0.52876  0.72657  0.88869  1.0000
  S   S151      1.0  0.51585  0.71575  0.94098  1.0000
  S   S152      1.0  0.55603  0.73798  0.80732  1.0000
  S   S153      1.0  0.54642  0.69218  0.86963  1.0000
  C   C670      1.0  0.57386  0.64743  0.71619  1.0000
  C   C671      1.0  0.64280  0.97464  0.59361  1.0000
  S   S154      1.0  0.52738  0.53889  0.72669  1.0000
  Fe  Fe77      1.0  0.54490  0.94263  0.65374  1.0000
  S   S155      1.0  0.54752  0.95240  0.59391  1.0000
  S   S156      1.0  0.54595  0.89410  0.66921  1.0000
  C   C672      1.0  0.49220  0.98083  0.51360  1.0000
  C   C673      1.0  0.62364  0.57975  0.66763  1.0000
  H   H1176     1.0  0.53115  0.89102  0.58065  1.0000
  C   C674      1.0  0.50736  0.90286  0.55045  1.0000
  S   S157      1.0  0.56343  0.97586  0.67306  1.0000
  S   S158      1.0  0.52330  0.97354  0.65699  1.0000
  H   H1177     1.0  0.56834  0.80135  0.78638  1.0000
  H   H1178     1.0  0.61655  0.78693  0.97041  1.0000
  N   N38       1.0  0.57747  0.59905  0.68115  1.0000
  C   C675      1.0  0.53806  0.83812  0.77130  1.0000
  C   C676      1.0  0.54203  0.82545  0.73848  1.0000
  C   C677      1.0  0.54448  0.84293  0.70780  1.0000
  C   C678      1.0  0.54303  0.87332  0.70929  1.0000
  C   C679      1.0  0.53918  0.88599  0.74216  1.0000
  C   C680      1.0  0.53671  0.86852  0.77282  1.0000
  H   H1179     1.0  0.54306  0.80216  0.73663  1.0000
  H   H1180     1.0  0.54741  0.83278  0.68259  1.0000
  H   H1181     1.0  0.53797  0.90926  0.74391  1.0000
  H   H1182     1.0  0.53363  0.87867  0.79794  1.0000
  C   C681      1.0  0.53077  0.63676  0.75339  1.0000
  C   C682      1.0  0.53220  0.61584  0.78112  1.0000
  C   C683      1.0  0.53106  0.58614  0.77238  1.0000
  C   C684      1.0  0.52881  0.57677  0.73585  1.0000
  C   C685      1.0  0.52754  0.59770  0.70812  1.0000
  C   C686      1.0  0.52835  0.62741  0.71692  1.0000
  H   H1183     1.0  0.53411  0.62252  0.80927  1.0000
  H   H1184     1.0  0.53204  0.57023  0.79410  1.0000
  H   H1185     1.0  0.52560  0.59101  0.67996  1.0000
  H   H1186     1.0  0.52703  0.64333  0.69521  1.0000
  C   C687      1.0  0.49713  0.72311  0.96228  1.0000
  H   H1187     1.0  0.50183  0.89744  0.52275  1.0000
  H   H1188     1.0  0.64556  0.49984  0.62047  1.0000
  H   H1189     1.0  0.46977  0.88676  0.52532  1.0000
  H   H1190     1.0  0.47100  0.90989  0.59033  1.0000
  S   S159      1.0  0.53787  0.52435  0.62169  1.0000
  H   H1191     1.0  0.50964  0.92653  0.55013  1.0000
  C   C688      1.0  0.63413  0.75372  0.95777  1.0000
  C   C689      1.0  0.63665  0.72940  0.93625  1.0000
  C   C690      1.0  0.62379  0.71938  0.91172  1.0000
  C   C691      1.0  0.60821  0.73334  0.90847  1.0000
  C   C692      1.0  0.60576  0.75796  0.92954  1.0000
  H   H1192     1.0  0.56601  0.58741  0.55313  1.0000
  H   H1193     1.0  0.57593  0.79435  0.86331  1.0000
  H   H1194     1.0  0.62587  0.70042  0.89542  1.0000
  H   H1195     1.0  0.59388  0.76894  0.92740  1.0000
  H   H1196     1.0  0.57145  0.84969  0.90810  1.0000
  C   C693      1.0  0.61446  0.96676  0.60978  1.0000
  C   C694      1.0  0.56799  0.82771  0.89862  1.0000
  H   H1197     1.0  0.58958  0.75192  0.71935  1.0000
  S   S160      1.0  0.50471  0.50007  0.54459  1.0000
  H   H1198     1.0  0.51549  0.84667  0.60198  1.0000
  C   C695      1.0  0.57382  0.58421  0.71630  1.0000
  C   C696      1.0  0.58643  0.84978  0.77660  1.0000
  H   H1199     1.0  0.49969  0.84731  0.63276  1.0000
  H   H1200     1.0  0.48410  0.92537  0.64671  1.0000
  H   H1201     1.0  0.52922  0.89155  0.49667  1.0000
  H   H1202     1.0  0.56862  0.81304  0.92268  1.0000
  C   C697      1.0  0.50116  0.90244  0.68470  1.0000
  H   H1203     1.0  0.49251  0.90387  0.70649  1.0000
  H   H1204     1.0  0.58276  0.80325  0.73154  1.0000
  H   H1205     1.0  0.56887  0.55557  0.58142  1.0000
  C   C698      1.0  0.59032  0.88136  0.78778  1.0000
  H   H1206     1.0  0.55509  0.82844  0.88615  1.0000
  C   C699      1.0  0.56938  0.58340  0.64864  1.0000
  C   C700      1.0  0.58419  0.75830  0.74501  1.0000
  C   C701      1.0  0.48395  0.73933  0.94529  1.0000
  H   H1207     1.0  0.57432  0.68975  0.68990  1.0000
  H   H1208     1.0  0.61065  0.84118  0.83904  1.0000
  H   H1209     1.0  0.53753  0.53438  0.50369  1.0000
  C   C702      1.0  0.60721  0.82433  0.81836  1.0000
  C   C703      1.0  0.56755  0.67860  0.71070  1.0000
  C   C704      1.0  0.63117  0.95772  0.60989  1.0000
  H   H1210     1.0  0.63963  0.80534  0.83635  1.0000
  H   H1211     1.0  0.51452  0.89272  0.62431  1.0000
  H   H1212     1.0  0.58725  0.64817  0.72406  1.0000
  H   H1213     1.0  0.56776  0.63832  0.73949  1.0000
  H   H1214     1.0  0.50603  0.79779  0.61450  1.0000
  H   H1215     1.0  0.44844  0.92267  0.50060  1.0000
  H   H1216     1.0  0.55417  0.67915  0.70189  1.0000
  H   H1217     1.0  0.58524  0.59718  0.60622  1.0000
  H   H1218     1.0  0.60574  0.95342  0.62237  1.0000
  H   H1219     1.0  0.63085  0.55920  0.66649  1.0000
  H   H1220     1.0  0.58303  0.59023  0.73893  1.0000
  H   H1221     1.0  0.60147  0.61242  0.70374  1.0000
  H   H1222     1.0  0.59833  0.61641  0.65602  1.0000
  H   H1223     1.0  0.60204  0.79161  0.75480  1.0000
  H   H1224     1.0  0.48299  0.88674  0.64438  1.0000
  C   C705      1.0  0.57248  0.55079  0.71569  1.0000
  H   H1225     1.0  0.58920  0.74340  0.76715  1.0000
  Fe  Fe78      1.0  0.52648  0.98444  0.59763  1.0000
  C   C706      1.0  0.50215  0.84366  0.60387  1.0000
  H   H1226     1.0  0.61958  0.51315  0.64800  1.0000
  H   H1227     1.0  0.59635  0.98563  0.72816  1.0000
  H   H1228     1.0  0.51016  0.92005  0.68877  1.0000
  C   C707      1.0  0.54877  0.52162  0.49813  1.0000
  C   C708      1.0  0.48020  0.91428  0.57034  1.0000
  C   C709      1.0  0.58199  0.79928  0.79097  1.0000
  H   H1229     1.0  0.58403  0.78116  0.81068  1.0000
  C   C710      1.0  0.60585  0.57339  0.67502  1.0000
  Fe  Fe79      1.0  0.56465  0.98788  0.61415  1.0000
  C   C711      1.0  0.59579  0.60178  0.67890  1.0000
  H   H1230     1.0  0.59413  0.84460  0.75373  1.0000
  C   C712      1.0  0.57214  0.53843  0.75421  1.0000
  C   C713      1.0  0.53500  0.89700  0.52414  1.0000
  C   C714      1.0  0.58849  0.78955  0.75422  1.0000
  H   H1231     1.0  0.57062  0.75612  0.74079  1.0000
  C   C715      1.0  0.61361  0.79446  0.83396  1.0000
  C   C716      1.0  0.47573  0.99049  0.50576  1.0000
  C   C717      1.0  0.57194  0.59638  0.61061  1.0000
  H   H1232     1.0  0.59219  0.92373  0.76297  1.0000
  C   C718      1.0  0.61865  0.76807  0.95396  1.0000
  H   H1233     1.0  0.55021  0.57752  0.58211  1.0000
  H   H1234     1.0  0.48296  0.93774  0.57316  1.0000
  H   H1235     1.0  0.49129  0.85608  0.54988  1.0000
  H   H1236     1.0  0.57764  0.90054  0.73860  1.0000
  H   H1237     1.0  0.56647  0.61848  0.60761  1.0000
  H   H1238     1.0  0.61479  0.82899  0.79522  1.0000
  H   H1239     1.0  0.60063  0.55998  0.65218  1.0000
  N   N39       1.0  0.58903  0.82706  0.80637  1.0000
  H   H1240     1.0  0.56937  0.69054  0.73687  1.0000
  H   H1241     1.0  0.60635  0.56081  0.70082  1.0000
  H   H1242     1.0  0.56630  0.84124  0.82767  1.0000
  C   C719      1.0  0.56373  0.57803  0.58005  1.0000
  H   H1243     1.0  0.56171  0.59188  0.72501  1.0000
  C   C720      1.0  0.57938  0.83685  0.83766  1.0000
  C   C721      1.0  0.57001  0.62928  0.68105  1.0000
  H   H1244     1.0  0.60538  0.78486  0.85294  1.0000
  H   H1245     1.0  0.57370  0.56058  0.64781  1.0000
  Fe  Fe80      1.0  0.53082  0.50996  0.67661  1.0000
  H   H1246     1.0  0.57341  0.84985  0.76460  1.0000
  H   H1247     1.0  0.59220  0.81572  0.88551  1.0000
  C   C722      1.0  0.57969  0.81649  0.87113  1.0000
  H   H1248     1.0  0.55634  0.62845  0.67643  1.0000
  H   H1249     1.0  0.57410  0.64217  0.65796  1.0000
  C   C723      1.0  0.52430  0.88697  0.55390  1.0000
  C   C724      1.0  0.58991  0.90111  0.75425  1.0000
  H   H1250     1.0  0.58409  0.85761  0.84895  1.0000
  H   H1251     1.0  0.50142  0.80678  0.56699  1.0000
  H   H1252     1.0  0.61464  0.77877  0.81143  1.0000
  H   H1253     1.0  0.48500  0.74833  0.91841  1.0000
  C   C725      1.0  0.61907  0.50028  0.62349  1.0000
  N   N40       1.0  0.49200  0.64531  0.87682  1.0000
  C   C726      1.0  0.48726  0.66873  0.84902  1.0000
  C   C727      1.0  0.48385  0.65110  0.91183  1.0000
  C   C728      1.0  0.51043  0.64639  0.88543  1.0000
  C   C729      1.0  0.48804  0.61551  0.86246  1.0000
  C   C730      1.0  0.47012  0.61076  0.84673  1.0000
  C   C731      1.0  0.49542  0.66643  0.81243  1.0000
  C   C732      1.0  0.51779  0.62587  0.91638  1.0000
  C   C733      1.0  0.46656  0.66610  0.90854  1.0000
  C   C734      1.0  0.63062  0.79665  0.85446  1.0000
  C   C735      1.0  0.46834  0.58076  0.82971  1.0000
  C   C736      1.0  0.48728  0.68741  0.78390  1.0000
  C   C737      1.0  0.53614  0.63109  0.92512  1.0000
  H   H1254     1.0  0.49040  0.69030  0.86094  1.0000
  H   H1255     1.0  0.47377  0.66983  0.84216  1.0000
  H   H1256     1.0  0.48304  0.63072  0.92773  1.0000
  H   H1257     1.0  0.49157  0.66563  0.93003  1.0000
  H   H1258     1.0  0.51403  0.66881  0.89284  1.0000
  H   H1259     1.0  0.51706  0.64090  0.86098  1.0000
  H   H1260     1.0  0.49643  0.60914  0.84125  1.0000
  H   H1261     1.0  0.49055  0.59908  0.88446  1.0000
  H   H1262     1.0  0.46616  0.62671  0.82507  1.0000
  H   H1263     1.0  0.46167  0.61202  0.86886  1.0000
  H   H1264     1.0  0.50860  0.67199  0.81679  1.0000
  H   H1265     1.0  0.49455  0.64444  0.80069  1.0000
  H   H1266     1.0  0.51648  0.60295  0.90803  1.0000
  H   H1267     1.0  0.51170  0.62912  0.94202  1.0000
  H   H1268     1.0  0.46778  0.68930  0.90146  1.0000
  H   H1269     1.0  0.45806  0.65630  0.88729  1.0000
  H   H1270     1.0  0.64848  0.71819  0.93865  1.0000
  H   H1271     1.0  0.56999  0.51483  0.75269  1.0000
  H   H1272     1.0  0.44691  0.67794  0.94263  1.0000
  H   H1273     1.0  0.45535  0.57764  0.81907  1.0000
  H   H1274     1.0  0.47627  0.57840  0.80661  1.0000
  H   H1275     1.0  0.47180  0.56364  0.85034  1.0000
  H   H1276     1.0  0.48760  0.70993  0.79424  1.0000
  H   H1277     1.0  0.49402  0.68645  0.75881  1.0000
  H   H1278     1.0  0.47430  0.68147  0.77658  1.0000
  H   H1279     1.0  0.53807  0.65346  0.93534  1.0000
  H   H1280     1.0  0.54120  0.61575  0.94667  1.0000
  H   H1281     1.0  0.54299  0.62775  0.90047  1.0000
  H   H1282     1.0  0.55585  0.58223  0.65120  1.0000
  H   H1283     1.0  0.58087  0.89006  0.80521  1.0000
  C   C738      1.0  0.60906  0.99283  0.59298  1.0000
  H   H1284     1.0  0.60265  0.88264  0.80283  1.0000
  H   H1285     1.0  0.56086  0.54469  0.69990  1.0000
  H   H1286     1.0  0.59954  0.89438  0.73609  1.0000
  H   H1287     1.0  0.57933  0.72266  0.97538  1.0000
  H   H1288     1.0  0.52270  0.86342  0.55007  1.0000
  H   H1289     1.0  0.63498  0.77483  0.86417  1.0000
  H   H1290     1.0  0.58274  0.54015  0.70274  1.0000
  C   C739      1.0  0.45849  0.66471  0.94461  1.0000
  S   S161      1.0  0.58548  0.50327  0.62774  1.0000
  H   H1291     1.0  0.50765  0.92814  0.61395  1.0000
  H   H1292     1.0  0.48523  0.80771  0.59806  1.0000
  H   H1293     1.0  0.45919  0.75614  0.94928  1.0000
  C   C740      1.0  0.49129  0.86448  0.57826  1.0000
  H   H1294     1.0  0.62402  0.59105  0.64101  1.0000
  H   H1295     1.0  0.50787  0.88131  0.68740  1.0000
  H   H1296     1.0  0.55872  0.52680  0.51944  1.0000
  H   H1297     1.0  0.58404  0.54204  0.77032  1.0000
  H   H1298     1.0  0.46680  0.67336  0.96722  1.0000
  H   H1299     1.0  0.62958  0.59325  0.68970  1.0000
  C   C741      1.0  0.47120  0.91000  0.53188  1.0000
  C   C742      1.0  0.49842  0.81208  0.59519  1.0000
  H   H1300     1.0  0.53677  0.92072  0.52559  1.0000
  C   C743      1.0  0.50325  0.90560  0.61580  1.0000
  C   C744      1.0  0.45407  0.92432  0.52907  1.0000
  N   N41       1.0  0.49568  0.89611  0.57905  1.0000
  H   H1301     1.0  0.63510  0.93738  0.62265  1.0000
  H   H1302     1.0  0.63002  0.81078  0.87873  1.0000
  H   H1303     1.0  0.47843  0.86163  0.58576  1.0000
  H   H1304     1.0  0.56198  0.54863  0.76837  1.0000
  H   H1305     1.0  0.35807  0.49686  0.50899  1.0000
  C   C745      1.0  0.46929  0.74375  0.96297  1.0000
  H   H1306     1.0  0.45550  0.64207  0.95114  1.0000
  H   H1307     1.0  0.54729  0.88606  0.52785  1.0000
  H   H1308     1.0  0.51217  0.95727  0.49174  1.0000
  H   H1309     1.0  0.47816  0.92013  0.51067  1.0000
  H   H1310     1.0  0.44596  0.91346  0.54754  1.0000
  H   H1311     1.0  0.60853  0.70990  0.98171  1.0000
  S   S162      1.0  0.50279  0.98931  0.55732  1.0000
  H   H1312     1.0  0.45486  0.94757  0.53629  1.0000
  H   H1313     1.0  0.64613  0.63837  0.98047  1.0000
  Fe  Fe81      1.0  0.74796  0.22290  0.35014  1.0000
  S   S163      1.0  0.77014  0.20119  0.38015  1.0000
  S   S164      1.0  0.73868  0.19978  0.29772  1.0000
  Fe  Fe82      1.0  0.74484  0.26787  0.41193  1.0000
  S   S165      1.0  0.76683  0.24867  0.44505  1.0000
  S   S166      1.0  0.72770  0.30464  0.42998  1.0000
  Fe  Fe83      1.0  0.77897  0.24606  0.39186  1.0000
  S   S167      1.0  0.80452  0.26421  0.38431  1.0000
  Fe  Fe84      1.0  0.75604  0.20510  0.43039  1.0000
  H   H1314     1.0  0.69569  0.27730  0.45752  1.0000
  S   S168      1.0  0.75742  0.26783  0.35925  1.0000
  S   S169      1.0  0.73348  0.22420  0.39980  1.0000
  Fe  Fe85      1.0  0.92767  0.19739  0.29280  1.0000
  S   S170      1.0  0.91840  0.18541  0.34663  1.0000
  S   S171      1.0  0.93553  0.16846  0.24562  1.0000
  Fe  Fe86      1.0  0.92530  0.26272  0.31041  1.0000
  S   S172      1.0  0.91541  0.25450  0.36539  1.0000
  S   S173      1.0  0.93309  0.30831  0.29390  1.0000
  Fe  Fe87      1.0  0.93505  0.21937  0.37318  1.0000
  S   S174      1.0  0.94826  0.20771  0.43000  1.0000
  Fe  Fe88      1.0  0.89939  0.22132  0.33583  1.0000
  S   S175      1.0  0.87303  0.20718  0.34414  1.0000
  S   S176      1.0  0.94572  0.22896  0.31977  1.0000
  S   S177      1.0  0.90793  0.23186  0.28056  1.0000
  Fe  Fe89      1.0  0.92187  0.44262  0.13828  1.0000
  S   S178      1.0  0.94559  0.46705  0.13776  1.0000
  S   S179      1.0  0.91592  0.39758  0.16095  1.0000
  H   H1315     1.0  0.89586  0.46502  0.01300  1.0000
  C   C746      1.0  0.74849  0.46585  0.47499  1.0000
  H   H1316     1.0  0.80263  0.02813  0.01617  1.0000
  Fe  Fe90      1.0  0.93923  0.47490  0.07729  1.0000
  S   S180      1.0  0.95481  0.46477  0.02828  1.0000
  C   C747      1.0  0.96409  0.14983  0.36530  1.0000
  S   S181      1.0  0.92492  0.03581  0.19531  1.0000
  S   S182      1.0  0.91628  0.44803  0.07744  1.0000
  C   C748      1.0  0.86063  0.49103  0.04012  1.0000
  Fe  Fe91      1.0  0.71043  0.23762  0.08309  1.0000
  S   S183      1.0  0.72868  0.22248  0.04382  1.0000
  S   S184      1.0  0.71750  0.25508  0.14060  1.0000
  H   H1317     1.0  0.74508  0.06383  0.38357  1.0000
  H   H1318     1.0  0.70193  0.12204  0.47189  1.0000
  H   H1319     1.0  0.68685  0.33030  0.07313  1.0000
  Fe  Fe92      1.0  0.92533  0.00529  0.14504  1.0000
  C   C749      1.0  0.93549  0.47084  0.24601  1.0000
  S   S185      1.0  0.69145  0.20509  0.06421  1.0000
  S   S186      1.0  0.69878  0.27157  0.04445  1.0000
  H   H1320     1.0  0.73079  0.17424  0.22742  1.0000
  H   H1321     1.0  0.72574  0.28025  0.21058  1.0000
  C   C750      1.0  0.90571  0.47032  0.25374  1.0000
  C   C751      1.0  0.90644  0.16273  0.43520  1.0000
  H   H1322     1.0  0.71487  0.47595  0.46457  1.0000
  C   C752      1.0  0.88578  0.25160  0.43473  1.0000
  C   C753      1.0  0.71936  0.10679  0.32314  1.0000
  C   C754      1.0  0.84648  0.44982  0.01194  1.0000
  H   H1323     1.0  0.70594  0.46872  0.39816  1.0000
  H   H1324     1.0  0.80571  0.05346  0.05302  1.0000
  H   H1325     1.0  0.75066  0.09745  0.34165  1.0000
  H   H1326     1.0  0.67681  0.36763  0.02856  1.0000
  H   H1327     1.0  0.96611  0.44198  0.24378  1.0000
  H   H1328     1.0  0.87823  0.19619  0.41965  1.0000
  C   C755      1.0  0.73150  0.06386  0.38431  1.0000
  C   C756      1.0  0.75738  0.12305  0.38995  1.0000
  H   H1329     1.0  0.78766  0.03143  0.04967  1.0000
  H   H1330     1.0  0.93941  0.39510  0.34389  1.0000
  N   N42       1.0  0.92242  0.47774  0.27176  1.0000
  H   H1331     1.0  0.93356  0.47578  0.32748  1.0000
  C   C757      1.0  0.93194  0.13165  0.23180  1.0000
  C   C758      1.0  0.92448  0.11162  0.25355  1.0000
  C   C759      1.0  0.92241  0.08264  0.24182  1.0000
  C   C760      1.0  0.92745  0.07315  0.20790  1.0000
  C   C761      1.0  0.93475  0.09327  0.18600  1.0000
  C   C762      1.0  0.93711  0.12208  0.19805  1.0000
  H   H1332     1.0  0.92045  0.11833  0.27960  1.0000
  H   H1333     1.0  0.91680  0.06744  0.25917  1.0000
  H   H1334     1.0  0.93885  0.08647  0.16004  1.0000
  H   H1335     1.0  0.94312  0.13699  0.18108  1.0000
  C   C763      1.0  0.92805  0.33276  0.25663  1.0000
  C   C764      1.0  0.93747  0.35776  0.25369  1.0000
  C   C765      1.0  0.93404  0.37776  0.22474  1.0000
  C   C766      1.0  0.92098  0.37321  0.19834  1.0000
  C   C767      1.0  0.91153  0.34824  0.20134  1.0000
  C   C768      1.0  0.91501  0.32817  0.23021  1.0000
  H   H1336     1.0  0.94761  0.36158  0.27385  1.0000
  H   H1337     1.0  0.94159  0.39653  0.22267  1.0000
  H   H1338     1.0  0.90138  0.34446  0.18120  1.0000
  H   H1339     1.0  0.90751  0.30931  0.23216  1.0000
  C   C769      1.0  0.96584  0.21724  0.46033  1.0000
  H   H1340     1.0  0.96484  0.23810  0.25121  1.0000
  H   H1341     1.0  0.85587  0.23998  0.43080  1.0000
  H   H1342     1.0  0.78322  0.12637  0.40832  1.0000
  H   H1343     1.0  0.72247  0.19481  0.16587  1.0000
  C   C770      1.0  0.82315  0.24793  0.37119  1.0000
  C   C771      1.0  0.82510  0.21804  0.36713  1.0000
  C   C772      1.0  0.84038  0.20611  0.35844  1.0000
  C   C773      1.0  0.85389  0.22381  0.35338  1.0000
  C   C774      1.0  0.85182  0.25376  0.35655  1.0000
  C   C775      1.0  0.83658  0.26568  0.36562  1.0000
  H   H1344     1.0  0.81493  0.20407  0.37134  1.0000
  H   H1345     1.0  0.84181  0.18292  0.35592  1.0000
  H   H1346     1.0  0.86196  0.26772  0.35226  1.0000
  H   H1347     1.0  0.83521  0.28885  0.36848  1.0000
  C   C776      1.0  0.66264  0.09934  0.03765  1.0000
  H   H1348     1.0  0.71142  0.43093  0.40272  1.0000
  H   H1349     1.0  0.91991  0.41277  0.34963  1.0000
  C   C777      1.0  0.67358  0.33672  0.07034  1.0000
  H   H1350     1.0  0.96840  0.13858  0.34115  1.0000
  H   H1351     1.0  0.93812  0.17880  0.09148  1.0000
  H   H1352     1.0  0.66149  0.17678  0.10166  1.0000
  C   C778      1.0  0.88633  0.43432  0.22183  1.0000
  H   H1353     1.0  0.91985  0.15938  0.43285  1.0000
  H   H1354     1.0  0.89584  0.47588  0.27178  1.0000
  H   H1355     1.0  0.93636  0.44736  0.24061  1.0000
  C   C779      1.0  0.74619  0.11755  0.35454  1.0000
  C   C780      1.0  0.73292  0.21555  0.25422  1.0000
  C   C781      1.0  0.73157  0.24549  0.24913  1.0000
  C   C782      1.0  0.72688  0.25706  0.21417  1.0000
  C   C783      1.0  0.72344  0.23896  0.18387  1.0000
  C   C784      1.0  0.72498  0.20901  0.18891  1.0000
  C   C785      1.0  0.72967  0.19741  0.22390  1.0000
  H   H1356     1.0  0.73395  0.25974  0.27214  1.0000
  H   H1357     1.0  0.75489  0.14497  0.40041  1.0000
  H   H1358     1.0  0.68577  0.46359  0.44485  1.0000
  N   N43       1.0  0.72796  0.11625  0.35892  1.0000
  H   H1359     1.0  0.90305  0.48356  0.22851  1.0000
  C   C786      1.0  0.72194  0.14581  0.36971  1.0000
  C   C787      1.0  0.72433  0.09491  0.38819  1.0000
  C   C788      1.0  0.72024  0.45748  0.45003  1.0000
  C   C789      1.0  0.72411  0.12066  0.99161  1.0000
  C   C790      1.0  0.70307  0.14926  0.37237  1.0000
  H   H1360     1.0  0.75450  0.32876  0.47923  1.0000
  H   H1361     1.0  0.73356  0.05352  0.44252  1.0000
  C   C791      1.0  0.69820  0.18053  0.38029  1.0000
  H   H1362     1.0  0.71686  0.09651  0.24768  1.0000
  H   H1363     1.0  0.72055  0.16183  0.45780  1.0000
  H   H1364     1.0  0.72590  0.16265  0.35083  1.0000
  H   H1365     1.0  0.72787  0.15190  0.39678  1.0000
  H   H1366     1.0  0.72865  0.10306  0.41563  1.0000
  C   C792      1.0  0.71055  0.11657  0.25626  1.0000
  C   C793      1.0  0.86080  0.23295  0.45862  1.0000
  H   H1367     1.0  0.93202  0.48068  0.21868  1.0000
  H   H1368     1.0  0.94725  0.43384  0.30369  1.0000
  C   C794      1.0  0.88747  0.30340  0.41239  1.0000
  H   H1369     1.0  0.69906  0.13571  0.39484  1.0000
  H   H1370     1.0  0.69605  0.14304  0.34660  1.0000
  C   C795      1.0  0.72554  0.14262  0.47172  1.0000
  C   C796      1.0  0.98563  0.20007  0.36643  1.0000
  H   H1371     1.0  0.66552  0.30574  0.01078  1.0000
  C   C797      1.0  0.71940  0.12867  0.29100  1.0000
  H   H1372     1.0  0.70403  0.18740  0.40712  1.0000
  H   H1373     1.0  0.70194  0.19519  0.35855  1.0000
  H   H1374     1.0  0.68463  0.18246  0.38114  1.0000
  S   S187      1.0  0.92470  0.01372  0.08418  1.0000
  H   H1375     1.0  0.69753  0.11189  0.26062  1.0000
  C   C798      1.0  0.72264  0.36914  0.99661  1.0000
  H   H1376     1.0  0.77896  0.09900  0.37420  1.0000
  H   H1377     1.0  0.69158  0.42580  0.45067  1.0000
  H   H1378     1.0  0.68189  0.43870  0.40770  1.0000
  H   H1379     1.0  0.97284  0.26547  0.22242  1.0000
  H   H1380     1.0  0.94066  0.12824  0.35835  1.0000
  H   H1381     1.0  0.76160  0.46715  0.46885  1.0000
  H   H1382     1.0  0.87055  0.44759  0.04173  1.0000
  H   H1383     1.0  0.90257  0.14780  0.45644  1.0000
  C   C799      1.0  0.97654  0.23935  0.45254  1.0000
  H   H1384     1.0  0.72606  0.05360  0.35901  1.0000
  H   H1385     1.0  0.91003  0.19823  0.47204  1.0000
  C   C800      1.0  0.77558  0.12117  0.38284  1.0000
  C   C801      1.0  0.97291  0.00119  0.99707  1.0000
  H   H1386     1.0  0.89948  0.25200  0.43793  1.0000
  H   H1387     1.0  0.96438  0.46979  0.20880  1.0000
  C   C802      1.0  0.83273  0.46733  0.99991  1.0000
  C   C803      1.0  0.80101  0.03173  0.04553  1.0000
  H   H1388     1.0  0.97310  0.16472  0.41894  1.0000
  H   H1389     1.0  0.89978  0.15753  0.40850  1.0000
  H   H1390     1.0  0.73248  0.02257  0.41290  1.0000
  H   H1391     1.0  0.88589  0.44640  0.19563  1.0000
  H   H1392     1.0  0.73216  0.13359  0.28486  1.0000
  H   H1393     1.0  0.88246  0.24532  0.40586  1.0000
  C   C804      1.0  0.92557  0.46256  0.30824  1.0000
  H   H1394     1.0  0.94554  0.14225  0.40357  1.0000
  H   H1395     1.0  0.67325  0.09589  0.02094  1.0000
  H   H1396     1.0  0.92854  0.41793  0.28648  1.0000
  H   H1397     1.0  0.75547  0.10717  0.41175  1.0000
  H   H1398     1.0  0.89732  0.41241  0.00766  1.0000
  H   H1399     1.0  0.97451  0.20723  0.38001  1.0000
  H   H1400     1.0  0.98128  0.19639  0.33731  1.0000
  C   C805      1.0  0.72765  0.04490  0.41657  1.0000
  H   H1401     1.0  0.70411  0.25166  0.42673  1.0000
  C   C806      1.0  0.74245  0.14042  0.48199  1.0000
  C   C807      1.0  0.90288  0.43825  0.24380  1.0000
  S   S188      1.0  0.87789  0.00008  0.04991  1.0000
  H   H1402     1.0  0.90798  0.20791  0.42431  1.0000
  C   C808      1.0  0.70382  0.23621  0.48286  1.0000
  H   H1403     1.0  0.85712  0.25049  0.47721  1.0000
  C   C809      1.0  0.74402  0.44220  0.41552  1.0000
  H   H1404     1.0  0.86614  0.28551  0.43338  1.0000
  C   C810      1.0  0.70755  0.45037  0.41766  1.0000
  C   C811      1.0  0.69070  0.44426  0.43117  1.0000
  H   H1405     1.0  0.71303  0.32777  0.01107  1.0000
  C   C812      1.0  0.74427  0.41059  0.42986  1.0000
  H   H1406     1.0  0.97862  0.47367  0.24836  1.0000
  H   H1407     1.0  0.93891  0.42927  0.36736  1.0000
  H   H1408     1.0  0.71466  0.38134  0.01330  1.0000
  Fe  Fe93      1.0  0.71591  0.25499  0.00442  1.0000
  C   C813      1.0  0.75002  0.38951  0.40136  1.0000
  H   H1409     1.0  0.88305  0.29152  0.46692  1.0000
  N   N44       1.0  0.73730  0.46472  0.44026  1.0000
  H   H1410     1.0  0.73713  0.44295  0.38810  1.0000
  Fe  Fe94      1.0  0.70900  0.19167  0.02236  1.0000
  H   H1411     1.0  0.66648  0.11354  0.06094  1.0000
  H   H1412     1.0  0.80850  0.01377  0.09801  1.0000
  H   H1413     1.0  0.70635  0.10122  0.32660  1.0000
  C   C814      1.0  0.96630  0.46562  0.23858  1.0000
  N   N45       1.0  0.87939  0.22967  0.46042  1.0000
  S   S189      1.0  0.75639  0.16857  0.47320  1.0000
  H   H1414     1.0  0.71415  0.04395  0.41877  1.0000
  H   H1415     1.0  0.75285  0.40813  0.45474  1.0000
  H   H1416     1.0  0.73190  0.40384  0.43655  1.0000
  H   H1417     1.0  0.66610  0.31759  0.07576  1.0000
  C   C815      1.0  0.65869  0.06992  0.05342  1.0000
  C   C816      1.0  0.69647  0.25405  0.45023  1.0000
  C   C817      1.0  0.84742  0.00284  0.01135  1.0000
  C   C818      1.0  0.72869  0.33359  0.46238  1.0000
  C   C819      1.0  0.95077  0.13136  0.38008  1.0000
  C   C820      1.0  0.93401  0.43205  0.30818  1.0000
  H   H1418     1.0  0.88436  0.29655  0.38376  1.0000
  H   H1419     1.0  0.71301  0.14926  0.29716  1.0000
  H   H1420     1.0  0.65573  0.35652  0.03176  1.0000
  H   H1421     1.0  0.76265  0.39463  0.39434  1.0000
  H   H1422     1.0  0.75022  0.36712  0.41240  1.0000
  H   H1423     1.0  0.74145  0.39029  0.37626  1.0000
  S   S190      1.0  0.65357  0.24855  0.01375  1.0000
  H   H1424     1.0  0.72934  0.49153  0.39355  1.0000
  C   C821      1.0  0.88431  0.20004  0.44739  1.0000
  H   H1425     1.0  0.72514  0.08643  0.31377  1.0000
  H   H1426     1.0  0.82373  0.01101  0.06545  1.0000
  H   H1427     1.0  0.85099  0.19073  0.44234  1.0000
  H   H1428     1.0  0.75697  0.44698  0.41048  1.0000
  H   H1429     1.0  0.66711  0.15853  0.04052  1.0000
  C   C822      1.0  0.93297  0.41648  0.34459  1.0000
  H   H1430     1.0  0.82713  0.22556  0.44663  1.0000
  H   H1431     1.0  0.71081  0.09258  0.38911  1.0000
  H   H1432     1.0  0.90109  0.30329  0.41794  1.0000
  H   H1433     1.0  0.95587  0.10978  0.38883  1.0000
  H   H1434     1.0  0.77837  0.13685  0.36142  1.0000
  H   H1435     1.0  0.88472  0.41105  0.21534  1.0000
  N   N46       1.0  0.78411  0.24486  0.24172  1.0000
  C   C823      1.0  0.78116  0.22343  0.27142  1.0000
  C   C824      1.0  0.77789  0.27433  0.25252  1.0000
  C   C825      1.0  0.77383  0.23593  0.20758  1.0000
  C   C826      1.0  0.80200  0.24580  0.23343  1.0000
  C   C827      1.0  0.81524  0.23931  0.26554  1.0000
  C   C828      1.0  0.78360  0.19117  0.26123  1.0000
  C   C829      1.0  0.77286  0.25757  0.17510  1.0000
  C   C830      1.0  0.78641  0.28765  0.28751  1.0000
  C   C831      1.0  0.77787  0.31602  0.29713  1.0000
  C   C832      1.0  0.83252  0.24591  0.25486  1.0000
  C   C833      1.0  0.78489  0.17164  0.29491  1.0000
  C   C834      1.0  0.76586  0.24343  0.13978  1.0000
  H   H1436     1.0  0.76833  0.22602  0.27949  1.0000
  H   H1437     1.0  0.78896  0.22775  0.29690  1.0000
  H   H1438     1.0  0.77938  0.29049  0.23067  1.0000
  H   H1439     1.0  0.76440  0.27359  0.25577  1.0000
  H   H1440     1.0  0.76093  0.23184  0.21386  1.0000
  H   H1441     1.0  0.77856  0.21507  0.19712  1.0000
  H   H1442     1.0  0.80460  0.22996  0.21174  1.0000
  H   H1443     1.0  0.80467  0.26725  0.22164  1.0000
  H   H1444     1.0  0.81524  0.21612  0.27331  1.0000
  H   H1445     1.0  0.81312  0.25191  0.29029  1.0000
  H   H1446     1.0  0.77285  0.18398  0.24317  1.0000
  H   H1447     1.0  0.79484  0.18781  0.24650  1.0000
  H   H1448     1.0  0.78519  0.26597  0.17050  1.0000
  H   H1449     1.0  0.76449  0.27605  0.18054  1.0000
  H   H1450     1.0  0.78618  0.27300  0.31128  1.0000
  H   H1451     1.0  0.79934  0.29283  0.28320  1.0000
  H   H1452     1.0  0.77869  0.33228  0.27510  1.0000
  H   H1453     1.0  0.76470  0.31253  0.30129  1.0000
  H   H1454     1.0  0.78397  0.32467  0.32285  1.0000
  H   H1455     1.0  0.83541  0.23324  0.23047  1.0000
  H   H1456     1.0  0.83358  0.26934  0.24907  1.0000
  H   H1457     1.0  0.84174  0.23994  0.27770  1.0000
  H   H1458     1.0  0.79532  0.17802  0.31440  1.0000
  H   H1459     1.0  0.77324  0.17290  0.30857  1.0000
  H   H1460     1.0  0.78697  0.14889  0.28663  1.0000
  H   H1461     1.0  0.75360  0.23423  0.14334  1.0000
  H   H1462     1.0  0.76432  0.25985  0.11759  1.0000
  H   H1463     1.0  0.77428  0.22596  0.13136  1.0000
  H   H1464     1.0  0.91251  0.42965  0.22710  1.0000
  C   C835      1.0  0.86028  0.46150  0.03212  1.0000
  H   H1465     1.0  0.84636  0.42695  0.00594  1.0000
  Fe  Fe95      1.0  0.68129  0.23764  0.02211  1.0000
  H   H1466     1.0  0.91380  0.46066  0.32146  1.0000
  H   H1467     1.0  0.87600  0.44180  0.23762  1.0000
  H   H1468     1.0  0.71062  0.13274  0.23387  1.0000
  H   H1469     1.0  0.96299  0.01517  0.00481  1.0000
  C   C836      1.0  0.71430  0.35013  0.46724  1.0000
  H   H1470     1.0  0.82570  0.19351  0.47396  1.0000
  H   H1471     1.0  0.90259  0.42505  0.26896  1.0000
  H   H1472     1.0  0.95813  0.17063  0.35608  1.0000
  N   N47       1.0  0.92766  0.24602  0.16483  1.0000
  C   C837      1.0  0.92821  0.22549  0.13314  1.0000
  C   C838      1.0  0.92515  0.27641  0.15010  1.0000
  C   C839      1.0  0.94360  0.24277  0.18856  1.0000
  C   C840      1.0  0.91363  0.23939  0.18767  1.0000
  C   C841      1.0  0.89642  0.23669  0.16667  1.0000
  C   C842      1.0  0.92925  0.19283  0.14320  1.0000
  C   C843      1.0  0.94604  0.26456  0.22042  1.0000
  C   C844      1.0  0.93962  0.28900  0.13056  1.0000
  C   C845      1.0  0.93595  0.32042  0.11914  1.0000
  C   C846      1.0  0.88322  0.23080  0.19287  1.0000
  C   C847      1.0  0.92800  0.17407  0.10897  1.0000
  C   C848      1.0  0.96306  0.26058  0.24073  1.0000
  H   H1473     1.0  0.93913  0.22972  0.11779  1.0000
  H   H1474     1.0  0.91741  0.22932  0.11302  1.0000
  H   H1475     1.0  0.91418  0.27770  0.13004  1.0000
  H   H1476     1.0  0.92223  0.29161  0.17217  1.0000
  H   H1477     1.0  0.95436  0.24379  0.17182  1.0000
  H   H1478     1.0  0.94455  0.22095  0.20150  1.0000
  H   H1479     1.0  0.91628  0.21917  0.20381  1.0000
  H   H1480     1.0  0.91235  0.25664  0.20834  1.0000
  H   H1481     1.0  0.89626  0.21858  0.14695  1.0000
  H   H1482     1.0  0.89277  0.25691  0.15159  1.0000
  H   H1483     1.0  0.94122  0.18747  0.15859  1.0000
  H   H1484     1.0  0.91926  0.18642  0.16012  1.0000
  H   H1485     1.0  0.93674  0.26113  0.24034  1.0000
  H   H1486     1.0  0.94494  0.28729  0.21079  1.0000
  H   H1487     1.0  0.95123  0.28876  0.14853  1.0000
  H   H1488     1.0  0.94169  0.27651  0.10556  1.0000
  H   H1489     1.0  0.93468  0.33419  0.14352  1.0000
  H   H1490     1.0  0.94622  0.32880  0.10433  1.0000
  H   H1491     1.0  0.92442  0.32226  0.10087  1.0000
  H   H1492     1.0  0.87106  0.22871  0.17723  1.0000
  H   H1493     1.0  0.88611  0.21034  0.20821  1.0000
  H   H1494     1.0  0.88234  0.24887  0.21253  1.0000
  H   H1495     1.0  0.92897  0.15088  0.11696  1.0000
  H   H1496     1.0  0.91595  0.17783  0.09311  1.0000
  C   C849      1.0  0.97313  0.47371  0.00653  1.0000
  H   H1497     1.0  0.95599  0.47840  0.28824  1.0000
  H   H1498     1.0  0.67146  0.35337  0.09124  1.0000
  H   H1499     1.0  0.71290  0.08104  0.00678  1.0000
  H   H1500     1.0  0.74873  0.13528  0.33535  1.0000
  H   H1501     1.0  0.66976  0.06095  0.06958  1.0000
  C   C850      1.0  0.90304  0.19414  0.44546  1.0000
  H   H1502     1.0  0.96419  0.27562  0.26428  1.0000
  H   H1503     1.0  0.72065  0.43913  0.46980  1.0000
  H   H1504     1.0  0.84690  0.02473  0.02151  1.0000
  C   C851      1.0  0.97849  0.15459  0.39503  1.0000
  C   C852      1.0  0.95305  0.48140  0.25849  1.0000
  Fe  Fe96      1.0  0.90263  0.48894  0.08992  1.0000
  H   H1505     1.0  0.97395  0.25219  0.42806  1.0000
  H   H1506     1.0  0.75979  0.49291  0.39443  1.0000
  C   C853      1.0  0.72162  0.33875  0.99527  1.0000
  C   C854      1.0  0.66874  0.34902  0.03223  1.0000
  H   H1507     1.0  0.88274  0.32586  0.41550  1.0000
  H   H1508     1.0  0.70293  0.34483  0.45165  1.0000
  H   H1509     1.0  0.91255  0.00212  0.34358  1.0000
  S   S191      1.0  0.76977  0.48055  0.99194  1.0000
  H   H1510     1.0  0.98286  0.13267  0.40435  1.0000
  H   H1511     1.0  0.91405  0.45377  0.99158  1.0000
  H   H1512     1.0  0.65513  0.05452  0.03116  1.0000
  H   H1513     1.0  0.68465  0.32110  0.00463  1.0000
  S   S192      1.0  0.70967  0.14262  0.01350  1.0000
  H   H1514     1.0  0.87976  0.18271  0.46455  1.0000
  H   H1515     1.0  0.97686  0.25853  0.35595  1.0000
  H   H1516     1.0  0.70371  0.21306  0.47481  1.0000
  H   H1517     1.0  0.72993  0.23420  0.47603  1.0000
  C   C855      1.0  0.87970  0.28340  0.43904  1.0000
  C   C856      1.0  0.65465  0.16398  0.02733  1.0000
  H   H1518     1.0  0.65602  0.18555  0.01480  1.0000
  S   S193      1.0  0.90681  0.48242  0.15072  1.0000
  C   C857      1.0  0.83277  0.21351  0.47082  1.0000
  H   H1519     1.0  0.68387  0.24659  0.44177  1.0000
  C   C858      1.0  0.67125  0.32609  0.00259  1.0000
  C   C859      1.0  0.85079  0.20563  0.46601  1.0000
  C   C860      1.0  0.72261  0.09039  0.99248  1.0000
  C   C861      1.0  0.71496  0.12009  0.48011  1.0000
  H   H1520     1.0  0.65365  0.20900  0.07756  1.0000
  C   C862      1.0  0.81046  0.00868  0.06921  1.0000
  C   C863      1.0  0.74326  0.34088  0.48282  1.0000
  C   C864      1.0  0.73639  0.49347  0.42060  1.0000
  Fe  Fe97      1.0  0.70944  0.02469  0.54184  1.0000
  H   H1521     1.0  0.78460  0.03475  0.81025  1.0000
  N   N48       1.0  0.73551  0.06239  0.81252  1.0000
  C   C865      1.0  0.89355  0.42560  0.98297  1.0000
  S   S194      1.0  0.69446  0.44245  0.60396  1.0000
  C   C866      1.0  0.77057  0.27481  0.54039  1.0000
  Fe  Fe98      1.0  0.67904  0.47572  0.57084  1.0000
  H   H1522     1.0  0.75605  0.08266  0.78903  1.0000
  Fe  Fe99      1.0  0.71317  0.44747  0.56239  1.0000
  H   H1523     1.0  0.70467  0.03556  0.80997  1.0000
  S   S195      1.0  0.70023  0.02130  0.59825  1.0000
  H   H1524     1.0  0.97335  0.18117  0.72052  1.0000
  H   H1525     1.0  0.77462  0.26959  0.56928  1.0000
  H   H1526     1.0  0.98479  0.23024  0.71269  1.0000
  S   S196      1.0  0.70709  0.06697  0.50784  1.0000
  H   H1527     1.0  0.74831  0.28087  0.50572  1.0000
  H   H1528     1.0  0.74548  0.19034  0.57703  1.0000
  C   C867      1.0  0.76637  0.06028  0.83726  1.0000
  Fe  Fe100     1.0  0.75332  0.45182  0.95575  1.0000
  Fe  Fe101     1.0  0.78973  0.46845  0.95534  1.0000
  Fe  Fe102     1.0  0.76372  0.01265  0.93306  1.0000
  H   H1529     1.0  0.71875  0.32130  0.89291  1.0000
  S   S197      1.0  0.77358  0.43762  0.92163  1.0000
  H   H1530     1.0  0.69163  0.15509  0.94043  1.0000
  C   C868      1.0  0.71387  0.43506  0.88071  1.0000
  H   H1531     1.0  0.66145  0.28889  0.95095  1.0000
  H   H1532     1.0  0.89072  0.24345  0.57355  1.0000
  H   H1533     1.0  0.78992  0.38210  0.88654  1.0000
  H   H1534     1.0  0.77675  0.25954  0.52240  1.0000
  N   N49       1.0  0.72758  0.23745  0.53395  1.0000
  H   H1535     1.0  0.68214  0.28144  0.88139  1.0000
  H   H1536     1.0  0.72828  0.20536  0.59932  1.0000
  C   C869      1.0  0.73792  0.09310  0.50986  1.0000
  H   H1537     1.0  0.70610  0.08146  0.84339  1.0000
  C   C870      1.0  0.75183  0.27322  0.53390  1.0000
  C   C871      1.0  0.90044  0.45595  0.98775  1.0000
  S   S198      1.0  0.76039  0.06189  0.93376  1.0000
  H   H1538     1.0  0.71143  0.20089  0.53638  1.0000
  H   H1539     1.0  0.65829  0.39426  0.93648  1.0000
  H   H1540     1.0  0.72748  0.29839  0.85939  1.0000
  H   H1541     1.0  0.68582  0.40846  0.91787  1.0000
  C   C872      1.0  0.73183  0.19210  0.57598  1.0000
  H   H1542     1.0  0.68178  0.18037  0.90792  1.0000
  H   H1543     1.0  0.75483  0.36994  0.52262  1.0000
  H   H1544     1.0  0.70575  0.30710  0.85546  1.0000
  H   H1545     1.0  0.67908  0.25488  0.91623  1.0000
  H   H1546     1.0  0.89687  0.46363  0.92933  1.0000
  H   H1547     1.0  0.77450  0.29705  0.53437  1.0000
  C   C873      1.0  0.78372  0.05551  0.82515  1.0000
  H   H1548     1.0  0.69560  0.23891  0.50529  1.0000
  S   S199      1.0  0.69714  0.47857  0.52711  1.0000
  H   H1549     1.0  0.72630  0.25622  0.58758  1.0000
  C   C874      1.0  0.66334  0.13942  0.97311  1.0000
  C   C875      1.0  0.68585  0.29745  0.93717  1.0000
  H   H1550     1.0  0.71204  0.07365  0.78263  1.0000
  C   C876      1.0  0.74014  0.47721  0.72285  1.0000
  H   H1551     1.0  0.69123  0.28866  0.96368  1.0000
  C   C877      1.0  0.67565  0.35823  0.95008  1.0000
  H   H1552     1.0  0.75125  0.32507  0.93753  1.0000
  H   H1553     1.0  0.98553  0.18335  0.68175  1.0000
  H   H1554     1.0  0.76480  0.00815  0.72371  1.0000
  H   H1555     1.0  0.66118  0.12075  0.95433  1.0000
  C   C878      1.0  0.73405  0.38382  0.97693  1.0000
  H   H1556     1.0  0.73676  0.38593  0.71558  1.0000
  C   C879      1.0  0.88701  0.23589  0.49831  1.0000
  H   H1557     1.0  0.76149  0.11375  0.51002  1.0000
  H   H1558     1.0  0.75852  0.37763  0.72590  1.0000
  H   H1559     1.0  0.85579  0.19363  0.49063  1.0000
  H   H1560     1.0  0.70192  0.42886  0.86652  1.0000
  H   H1561     1.0  0.69675  0.29096  0.59560  1.0000
  C   C880      1.0  0.74925  0.47791  0.78818  1.0000
  H   H1562     1.0  0.71335  0.11351  0.82302  1.0000
  H   H1563     1.0  0.71627  0.09818  0.90490  1.0000
  S   S200      1.0  0.73042  0.41165  0.54190  1.0000
  H   H1564     1.0  0.74285  0.07415  0.52457  1.0000
  H   H1565     1.0  0.75059  0.23630  0.56805  1.0000
  H   H1566     1.0  0.66198  0.31190  0.91215  1.0000
  H   H1567     1.0  0.92419  0.47991  0.94306  1.0000
  H   H1568     1.0  0.90062  0.23773  0.49819  1.0000
  H   H1569     1.0  0.68857  0.35639  0.96257  1.0000
  C   C881      1.0  0.97719  0.45793  0.97556  1.0000
  H   H1570     1.0  0.70741  0.24261  0.56885  1.0000
  H   H1571     1.0  0.73732  0.07355  0.86992  1.0000
  H   H1572     1.0  0.70273  0.12475  0.88177  1.0000
  C   C882      1.0  0.67988  0.16063  0.92417  1.0000
  H   H1573     1.0  0.72880  0.09373  0.77002  1.0000
  H   H1574     1.0  0.71936  0.33592  0.81133  1.0000
  H   H1575     1.0  0.74670  0.28817  0.55376  1.0000
  H   H1576     1.0  0.75176  0.41360  0.71200  1.0000
  H   H1577     1.0  0.76377  0.04220  0.85537  1.0000
  H   H1578     1.0  0.71802  0.45527  0.86838  1.0000
  H   H1579     1.0  0.88272  0.25735  0.50766  1.0000
  H   H1580     1.0  0.98079  0.32193  0.77116  1.0000
  C   C883      1.0  0.71489  0.11359  0.88157  1.0000
  C   C884      1.0  0.74635  0.08381  0.95684  1.0000
  S   S201      1.0  0.73270  0.99939  0.55752  1.0000
  H   H1581     1.0  0.98281  0.26820  0.76793  1.0000
  H   H1582     1.0  0.78704  0.07355  0.80734  1.0000
  H   H1583     1.0  0.90691  0.21892  0.56093  1.0000
  H   H1584     1.0  0.67764  0.43382  0.94924  1.0000
  H   H1585     1.0  0.70329  0.38612  0.49496  1.0000
  H   H1586     1.0  0.76646  0.08040  0.85367  1.0000
  Fe  Fe103     1.0  0.76566  0.47560  0.88539  1.0000
  C   C885      1.0  0.71524  0.06234  0.71192  1.0000
  C   C886      1.0  0.73673  0.13241  0.97300  1.0000
  C   C887      1.0  0.66944  0.38979  0.95527  1.0000
  C   C888      1.0  0.71357  0.02625  0.83135  1.0000
  H   H1587     1.0  0.79199  0.40714  0.84934  1.0000
  C   C889      1.0  0.89462  0.47562  0.95480  1.0000
  C   C890      1.0  0.74592  0.24211  0.53967  1.0000
  C   C891      1.0  0.72651  0.05154  0.74460  1.0000
  C   C892      1.0  0.68666  0.27339  0.90894  1.0000
  H   H1588     1.0  0.71723  0.30566  0.60293  1.0000
  H   H1589     1.0  0.71207  0.43932  0.90986  1.0000
  C   C893      1.0  0.73167  0.03212  0.82422  1.0000
  C   C894      1.0  0.72528  0.07161  0.77815  1.0000
  H   H1590     1.0  0.72915  0.14738  0.55812  1.0000
  H   H1591     1.0  0.71097  0.03530  0.85830  1.0000
  H   H1592     1.0  0.70172  0.32401  0.57319  1.0000
  C   C895      1.0  0.72557  0.16150  0.58070  1.0000
  S   S202      1.0  0.70721  0.48358  0.69598  1.0000
  S   S203      1.0  0.81573  0.45124  0.97430  1.0000
  H   H1593     1.0  0.73105  0.15211  0.60686  1.0000
  H   H1594     1.0  0.71869  0.08439  0.70375  1.0000
  C   C896      1.0  0.74342  0.36440  0.50738  1.0000
  C   C897      1.0  0.73297  0.48348  0.79597  1.0000
  H   H1595     1.0  0.75256  0.22748  0.52141  1.0000
  H   H1596     1.0  0.65539  0.22683  0.93914  1.0000
  H   H1597     1.0  0.75608  0.04435  0.78548  1.0000
  H   H1598     1.0  0.73558  0.01618  0.80400  1.0000
  H   H1599     1.0  0.73908  0.02601  0.84991  1.0000
  H   H1600     1.0  0.71650  0.04763  0.68839  1.0000
  H   H1601     1.0  0.96134  0.18417  0.49953  1.0000
  H   H1602     1.0  0.71194  0.16170  0.58108  1.0000
  H   H1603     1.0  0.72279  0.02924  0.75076  1.0000
  H   H1604     1.0  0.70217  0.06258  0.71844  1.0000
  H   H1605     1.0  0.67660  0.14268  0.90514  1.0000
  H   H1606     1.0  0.74302  0.47467  0.69480  1.0000
  C   C898      1.0  0.71202  0.28533  0.54991  1.0000
  C   C899      1.0  0.71846  0.25442  0.56144  1.0000
  Fe  Fe104     1.0  0.70620  0.48063  0.63328  1.0000
  C   C900      1.0  0.70660  0.30240  0.58254  1.0000
  H   H1607     1.0  0.98085  0.03108  0.95703  1.0000
  H   H1608     1.0  0.87023  0.21609  0.53423  1.0000
  C   C901      1.0  0.74850  0.11563  0.50142  1.0000
  H   H1609     1.0  0.70118  0.28400  0.52970  1.0000
  S   S204      1.0  0.78042  0.99523  0.89141  1.0000
  C   C902      1.0  0.74453  0.36767  0.95608  1.0000
  C   C903      1.0  0.75277  0.47515  0.75146  1.0000
  H   H1610     1.0  0.88650  0.19174  0.52153  1.0000
  H   H1611     1.0  0.80091  0.37121  0.84809  1.0000
  H   H1612     1.0  0.72464  0.13003  0.88527  1.0000
  C   C904      1.0  0.74773  0.11408  0.95564  1.0000
  H   H1613     1.0  0.72128  0.29825  0.53711  1.0000
  H   H1614     1.0  0.74152  0.10251  0.84053  1.0000
  N   N50       1.0  0.74257  0.38177  0.83126  1.0000
  C   C905      1.0  0.74246  0.37659  0.79076  1.0000
  C   C906      1.0  0.73862  0.35390  0.84973  1.0000
  C   C907      1.0  0.73007  0.40533  0.83765  1.0000
  C   C908      1.0  0.75922  0.39132  0.84719  1.0000
  C   C909      1.0  0.77430  0.37300  0.83694  1.0000
  C   C910      1.0  0.74717  0.40280  0.76764  1.0000
  C   C911      1.0  0.72677  0.41091  0.87803  1.0000
  C   C912      1.0  0.72105  0.34232  0.84043  1.0000
  C   C913      1.0  0.71814  0.31566  0.86348  1.0000
  C   C914      1.0  0.79021  0.38410  0.85646  1.0000
  C   C915      1.0  0.74863  0.39429  0.72788  1.0000
  H   H1615     1.0  0.66968  0.18499  0.96654  1.0000
  H   H1616     1.0  0.72995  0.37051  0.77937  1.0000
  H   H1617     1.0  0.75059  0.35778  0.78512  1.0000
  H   H1618     1.0  0.74732  0.33635  0.84271  1.0000
  H   H1619     1.0  0.74060  0.35598  0.87987  1.0000
  H   H1620     1.0  0.71812  0.40123  0.82181  1.0000
  H   H1621     1.0  0.73416  0.42629  0.82696  1.0000
  H   H1622     1.0  0.76138  0.41414  0.83975  1.0000
  H   H1623     1.0  0.75964  0.39121  0.87749  1.0000
  H   H1624     1.0  0.77568  0.37416  0.80719  1.0000
  H   H1625     1.0  0.77316  0.35003  0.84481  1.0000
  H   H1626     1.0  0.73748  0.41999  0.76771  1.0000
  H   H1627     1.0  0.75907  0.41205  0.77815  1.0000
  H   H1628     1.0  0.73818  0.41766  0.89397  1.0000
  H   H1629     1.0  0.72214  0.39143  0.89116  1.0000
  H   H1630     1.0  0.71141  0.35864  0.84579  1.0000
  H   H1631     1.0  0.73923  0.05072  0.73586  1.0000
  C   C916      1.0  0.73333  0.08371  0.84302  1.0000
  H   H1632     1.0  0.83180  0.22701  0.49551  1.0000
  H   H1633     1.0  0.75357  0.37859  0.94139  1.0000
  C   C917      1.0  0.66777  0.30787  0.94029  1.0000
  C   C918      1.0  0.71595  0.09754  0.84551  1.0000
  C   C919      1.0  0.72483  0.20552  0.53908  1.0000
  H   H1634     1.0  0.89841  0.41486  0.95896  1.0000
  C   C920      1.0  0.75338  0.06252  0.80399  1.0000
  C   C921      1.0  0.66610  0.16629  0.94920  1.0000
  C   C922      1.0  0.72380  0.48212  0.73065  1.0000
  H   H1635     1.0  0.69380  0.31506  0.92890  1.0000
  C   C923      1.0  0.72176  0.24491  0.49501  1.0000
  C   C924      1.0  0.98348  0.20709  0.51704  1.0000
  S   S205      1.0  0.76549  0.47272  0.82310  1.0000
  S   S206      1.0  0.72969  0.28467  0.96789  1.0000
  H   H1636     1.0  0.69963  0.26563  0.90816  1.0000
  S   S207      1.0  0.72609  0.48338  0.59453  1.0000
  H   H1637     1.0  0.89047  0.20578  0.58603  1.0000
  C   C925      1.0  0.72105  0.09509  0.49915  1.0000
  H   H1638     1.0  0.79271  0.05457  0.84956  1.0000
  C   C926      1.0  0.74322  0.33732  0.95406  1.0000
  C   C927      1.0  0.89352  0.22114  0.56442  1.0000
  C   C928      1.0  0.88340  0.21432  0.52872  1.0000
  C   C929      1.0  0.75752  0.49080  0.53446  1.0000
  H   H1639     1.0  0.73248  0.48737  0.51249  1.0000
  H   H1640     1.0  0.65488  0.17227  0.93147  1.0000
  H   H1641     1.0  0.75752  0.47008  0.54984  1.0000
  S   S208      1.0  0.69778  0.22276  0.97954  1.0000
  C   C930      1.0  0.98314  0.01019  0.96994  1.0000
  C   C931      1.0  0.73369  0.07205  0.97535  1.0000
  H   H1642     1.0  0.66618  0.39406  0.98338  1.0000
  H   H1643     1.0  0.87988  0.42650  0.97936  1.0000
  H   H1644     1.0  0.75746  0.12343  0.94139  1.0000
  H   H1645     1.0  0.73029  0.19292  0.51710  1.0000
  H   H1646     1.0  0.70775  0.48937  0.77369  1.0000
  H   H1647     1.0  0.98072  0.21598  0.77551  1.0000
  H   H1648     1.0  0.67661  0.35618  0.92009  1.0000
  H   H1649     1.0  0.82327  0.00598  0.98203  1.0000
  C   C932      1.0  0.72907  0.38114  0.51193  1.0000
  S   S209      1.0  0.74160  0.99955  0.66193  1.0000
  C   C933      1.0  0.71445  0.37365  0.49181  1.0000
  H   H1650     1.0  0.73010  0.48579  0.82399  1.0000
  C   C934      1.0  0.72034  0.48548  0.76738  1.0000
  C   C935      1.0  0.96944  0.20130  0.49291  1.0000
  H   H1651     1.0  0.76532  0.47091  0.74510  1.0000
  H   H1652     1.0  0.69377  0.40863  0.96528  1.0000
  H   H1653     1.0  0.96941  0.44043  0.96593  1.0000
  S   S210      1.0  0.74438  0.48822  0.91748  1.0000
  H   H1654     1.0  0.74787  0.44536  0.49069  1.0000
  H   H1655     1.0  0.73243  0.04885  0.97647  1.0000
  C   C936      1.0  0.74466  0.49046  0.50184  1.0000
  N   N51       1.0  0.66542  0.33414  0.96385  1.0000
  H   H1656     1.0  0.73804  0.15561  0.97202  1.0000
  S   S211      1.0  0.73417  0.42228  0.97793  1.0000
  C   C937      1.0  0.73170  0.32268  0.97347  1.0000
  H   H1657     1.0  0.88101  0.47757  0.95558  1.0000
  C   C938      1.0  0.68249  0.41142  0.94633  1.0000
  H   H1658     1.0  0.72296  0.26825  0.48954  1.0000
  H   H1659     1.0  0.77000  0.49431  0.52537  1.0000
  H   H1660     1.0  0.67535  0.13493  0.98886  1.0000
  Fe  Fe105     1.0  0.74860  0.73718  0.34310  1.0000
  S   S212      1.0  0.76173  0.69595  0.36189  1.0000
  S   S213      1.0  0.74684  0.74791  0.28155  1.0000
  Fe  Fe106     1.0  0.74711  0.75926  0.42227  1.0000
  S   S214      1.0  0.76052  0.71897  0.44539  1.0000
  H   H1661     1.0  0.76824  0.58122  0.45125  1.0000
  Fe  Fe107     1.0  0.77752  0.72355  0.40008  1.0000
  S   S215      1.0  0.80471  0.70898  0.41109  1.0000
  Fe  Fe108     1.0  0.74403  0.69348  0.40605  1.0000
  S   S216      1.0  0.73305  0.64834  0.41532  1.0000
  S   S217      1.0  0.76537  0.76544  0.37971  1.0000
  S   S218      1.0  0.72961  0.73326  0.38441  1.0000
  Fe  Fe109     1.0  0.91965  0.69420  0.30356  1.0000
  S   S219      1.0  0.91158  0.69540  0.36095  1.0000
  S   S220      1.0  0.91227  0.65770  0.26252  1.0000
  Fe  Fe110     1.0  0.92788  0.75987  0.30611  1.0000
  S   S221      1.0  0.92017  0.76456  0.36349  1.0000
  S   S222      1.0  0.93873  0.79763  0.27513  1.0000
  Fe  Fe111     1.0  0.93422  0.72244  0.37596  1.0000
  S   S223      1.0  0.94872  0.71273  0.43227  1.0000
  Fe  Fe112     1.0  0.89833  0.73726  0.34500  1.0000
  S   S224      1.0  0.87124  0.75193  0.34735  1.0000
  S   S225      1.0  0.94303  0.71875  0.31901  1.0000
  S   S226      1.0  0.90547  0.73527  0.28718  1.0000
  Fe  Fe113     1.0  0.91945  0.93892  0.13343  1.0000
  Fe  Fe114     1.0  0.67591  0.74964  0.00728  1.0000
  S   S227      1.0  0.91145  0.89674  0.16088  1.0000
  H   H1662     1.0  0.87082  0.98386  0.18271  1.0000
  S   S228      1.0  0.92511  0.51650  0.08647  1.0000
  S   S229      1.0  0.87780  0.50725  0.06489  1.0000
  Fe  Fe115     1.0  0.94029  0.97262  0.08098  1.0000
  S   S230      1.0  0.96337  0.96172  0.04950  1.0000
  H   H1663     1.0  0.97564  0.75070  0.20368  1.0000
  S   S231      1.0  0.93909  0.54032  0.19127  1.0000
  S   S232      1.0  0.91812  0.94371  0.07194  1.0000
  H   H1664     1.0  0.79709  0.93429  0.01106  1.0000
  Fe  Fe116     1.0  0.69949  0.73720  0.07727  1.0000
  S   S233      1.0  0.72037  0.72361  0.04412  1.0000
  S   S234      1.0  0.69755  0.72927  0.13853  1.0000
  H   H1665     1.0  0.83612  0.97078  0.08435  1.0000
  C   C939      1.0  0.80725  0.94446  0.18736  1.0000
  C   C940      1.0  0.98343  0.49631  0.01833  1.0000
  H   H1666     1.0  0.96456  0.79755  0.22172  1.0000
  H   H1667     1.0  0.68794  0.63881  0.06704  1.0000
  S   S235      1.0  0.68118  0.71086  0.04322  1.0000
  S   S236      1.0  0.69275  0.77744  0.04393  1.0000
  H   H1668     1.0  0.74827  0.76435  0.20661  1.0000
  H   H1669     1.0  0.69592  0.71312  0.21369  1.0000
  H   H1670     1.0  0.70646  0.87329  0.44002  1.0000
  H   H1671     1.0  0.78461  0.59115  0.40448  1.0000
  C   C941      1.0  0.92242  0.51010  0.27760  1.0000
  H   H1672     1.0  0.95392  0.50484  0.25249  1.0000
  H   H1673     1.0  0.92725  0.98540  0.26226  1.0000
  C   C942      1.0  0.69372  0.93473  0.41648  1.0000
  H   H1674     1.0  0.97297  0.70146  0.21037  1.0000
  H   H1675     1.0  0.71362  0.83509  0.02052  1.0000
  H   H1676     1.0  0.95487  0.80387  0.17621  1.0000
  H   H1677     1.0  0.74961  0.74158  0.10580  1.0000
  H   H1678     1.0  0.98015  0.74275  0.42393  1.0000
  H   H1679     1.0  0.91601  0.55471  0.99541  1.0000
  C   C943      1.0  0.73954  0.88790  0.99598  1.0000
  N   N52       1.0  0.81162  0.95315  0.08213  1.0000
  C   C944      1.0  0.82979  0.95026  0.07721  1.0000
  H   H1680     1.0  0.86350  0.94471  0.09143  1.0000
  H   H1681     1.0  0.85353  0.96120  0.18898  1.0000
  C   C945      1.0  0.80667  0.93444  0.14770  1.0000
  C   C946      1.0  0.92002  0.62495  0.24345  1.0000
  C   C947      1.0  0.93508  0.61190  0.25601  1.0000
  C   C948      1.0  0.94066  0.58622  0.23962  1.0000
  C   C949      1.0  0.93128  0.57293  0.21060  1.0000
  C   C950      1.0  0.91609  0.58577  0.19838  1.0000
  C   C951      1.0  0.91056  0.61154  0.21465  1.0000
  H   H1682     1.0  0.94240  0.62146  0.27850  1.0000
  H   H1683     1.0  0.95238  0.57654  0.24959  1.0000
  H   H1684     1.0  0.90865  0.57593  0.17624  1.0000
  H   H1685     1.0  0.89886  0.62120  0.20472  1.0000
  C   C952      1.0  0.93083  0.82485  0.24315  1.0000
  C   C953      1.0  0.94135  0.84681  0.23300  1.0000
  C   C954      1.0  0.93579  0.86870  0.20769  1.0000
  C   C955      1.0  0.91951  0.86911  0.19211  1.0000
  C   C956      1.0  0.90900  0.84712  0.20220  1.0000
  C   C957      1.0  0.91459  0.82515  0.22739  1.0000
  H   H1686     1.0  0.95393  0.84694  0.24491  1.0000
  H   H1687     1.0  0.94408  0.88530  0.20034  1.0000
  H   H1688     1.0  0.89640  0.84709  0.19043  1.0000
  H   H1689     1.0  0.90630  0.80853  0.23473  1.0000
  C   C958      1.0  0.96748  0.71722  0.46132  1.0000
  H   H1690     1.0  0.87055  0.92974  0.23140  1.0000
  H   H1691     1.0  0.84706  0.53146  0.03383  1.0000
  C   C959      1.0  0.79357  0.88971  0.02139  1.0000
  H   H1692     1.0  0.72950  0.75796  0.15054  1.0000
  C   C960      1.0  0.82301  0.72112  0.39261  1.0000
  C   C961      1.0  0.82292  0.74415  0.36786  1.0000
  C   C962      1.0  0.83779  0.75321  0.35451  1.0000
  C   C963      1.0  0.85295  0.73925  0.36533  1.0000
  C   C964      1.0  0.85302  0.71604  0.38985  1.0000
  C   C965      1.0  0.83816  0.70711  0.40339  1.0000
  H   H1693     1.0  0.81143  0.75523  0.35930  1.0000
  H   H1694     1.0  0.83753  0.77126  0.33571  1.0000
  H   H1695     1.0  0.86456  0.70527  0.39882  1.0000
  H   H1696     1.0  0.83845  0.68950  0.42280  1.0000
  H   H1697     1.0  0.65745  0.66665  0.05357  1.0000
  C   C966      1.0  0.74385  0.85005  0.45576  1.0000
  H   H1698     1.0  0.92351  0.95421  0.32647  1.0000
  H   H1699     1.0  0.96426  0.70906  0.15045  1.0000
  H   H1700     1.0  0.75068  0.84359  0.43296  1.0000
  H   H1701     1.0  0.66064  0.74131  0.12961  1.0000
  C   C967      1.0  0.72941  0.62371  0.45161  1.0000
  C   C968      1.0  0.72306  0.59622  0.44278  1.0000
  H   H1702     1.0  0.79452  0.92440  0.14102  1.0000
  H   H1703     1.0  0.84025  0.93251  0.12941  1.0000
  H   H1704     1.0  0.72019  0.59080  0.41441  1.0000
  H   H1705     1.0  0.88106  0.56807  0.01750  1.0000
  C   C969      1.0  0.73281  0.74249  0.24234  1.0000
  C   C970      1.0  0.71797  0.72799  0.24396  1.0000
  C   C971      1.0  0.70737  0.72425  0.21197  1.0000
  C   C972      1.0  0.71140  0.73494  0.17795  1.0000
  C   C973      1.0  0.72626  0.74933  0.17631  1.0000
  C   C974      1.0  0.73688  0.75299  0.20825  1.0000
  H   H1706     1.0  0.71463  0.71977  0.26987  1.0000
  N   N53       1.0  0.85606  0.67513  0.25753  1.0000
  C   C975      1.0  0.86189  0.70576  0.26219  1.0000
  C   C976      1.0  0.86576  0.65521  0.28449  1.0000
  C   C977      1.0  0.85954  0.66566  0.21951  1.0000
  C   C978      1.0  0.83776  0.67294  0.26091  1.0000
  C   C979      1.0  0.83115  0.68486  0.29640  1.0000
  C   C980      1.0  0.85364  0.72854  0.23518  1.0000
  C   C981      1.0  0.85685  0.63321  0.21052  1.0000
  C   C982      1.0  0.87112  0.66763  0.32266  1.0000
  C   C983      1.0  0.87859  0.64406  0.34848  1.0000
  C   C984      1.0  0.81232  0.68560  0.29378  1.0000
  C   C985      1.0  0.85943  0.75896  0.24504  1.0000
  C   C986      1.0  0.86041  0.62668  0.17113  1.0000
  H   H1707     1.0  0.87542  0.70627  0.25976  1.0000
  H   H1708     1.0  0.86023  0.71387  0.28997  1.0000
  H   H1709     1.0  0.85888  0.63504  0.28840  1.0000
  H   H1710     1.0  0.87757  0.64814  0.27354  1.0000
  H   H1711     1.0  0.87257  0.67034  0.21460  1.0000
  H   H1712     1.0  0.85169  0.67812  0.19856  1.0000
  H   H1713     1.0  0.83071  0.68375  0.23731  1.0000
  H   H1714     1.0  0.83400  0.65001  0.25933  1.0000
  H   H1715     1.0  0.83516  0.70718  0.30223  1.0000
  H   H1716     1.0  0.83525  0.67061  0.31981  1.0000
  H   H1717     1.0  0.85690  0.72424  0.20695  1.0000
  H   H1718     1.0  0.84005  0.72869  0.23568  1.0000
  H   H1719     1.0  0.84396  0.62708  0.21366  1.0000
  H   H1720     1.0  0.86517  0.61904  0.22850  1.0000
  H   H1721     1.0  0.88064  0.68416  0.32008  1.0000
  H   H1722     1.0  0.86081  0.67803  0.33555  1.0000
  H   H1723     1.0  0.88240  0.65372  0.37542  1.0000
  H   H1724     1.0  0.86945  0.62714  0.35259  1.0000
  H   H1725     1.0  0.88966  0.63407  0.33739  1.0000
  H   H1726     1.0  0.80734  0.70061  0.27176  1.0000
  H   H1727     1.0  0.80740  0.66368  0.28847  1.0000
  H   H1728     1.0  0.80797  0.69347  0.31998  1.0000
  H   H1729     1.0  0.85378  0.77477  0.22472  1.0000
  H   H1730     1.0  0.85568  0.76519  0.27238  1.0000
  H   H1731     1.0  0.87305  0.76013  0.24518  1.0000
  H   H1732     1.0  0.87324  0.63231  0.16631  1.0000
  H   H1733     1.0  0.85886  0.60325  0.16562  1.0000
  H   H1734     1.0  0.85175  0.63903  0.15169  1.0000
  N   N54       1.0  0.94778  0.71476  0.19328  1.0000
  C   C987      1.0  0.93081  0.70669  0.20300  1.0000
  C   C988      1.0  0.96078  0.70339  0.22194  1.0000
  C   C989      1.0  0.94849  0.74738  0.19348  1.0000
  C   C990      1.0  0.95132  0.70441  0.15575  1.0000
  C   C991      1.0  0.94919  0.67175  0.14808  1.0000
  C   C992      1.0  0.91612  0.71815  0.17700  1.0000
  C   C993      1.0  0.91176  0.55474  0.30895  1.0000
  H   H1735     1.0  0.90889  0.51105  0.32731  1.0000
  C   C994      1.0  0.96533  0.76035  0.18583  1.0000
  H   H1736     1.0  0.90283  0.51106  0.01257  1.0000
  C   C995      1.0  0.90000  0.70426  0.18554  1.0000
  C   C996      1.0  0.79050  0.60047  0.47862  1.0000
  H   H1737     1.0  0.92880  0.71458  0.23095  1.0000
  H   H1738     1.0  0.92964  0.68292  0.20461  1.0000
  C   C997      1.0  0.97275  0.66348  0.26440  1.0000
  H   H1739     1.0  0.96257  0.71905  0.24493  1.0000
  H   H1740     1.0  0.94499  0.75584  0.22023  1.0000
  H   H1741     1.0  0.93938  0.75707  0.17255  1.0000
  H   H1742     1.0  0.94370  0.71685  0.13435  1.0000
  H   H1743     1.0  0.81626  0.91738  0.14588  1.0000
  H   H1744     1.0  0.93695  0.66413  0.15451  1.0000
  H   H1745     1.0  0.90249  0.98444  0.28262  1.0000
  H   H1746     1.0  0.91445  0.74186  0.18018  1.0000
  H   H1747     1.0  0.91797  0.71337  0.14808  1.0000
  C   C998      1.0  0.80462  0.97786  0.05829  1.0000
  H   H1748     1.0  0.95099  0.94599  0.22297  1.0000
  H   H1749     1.0  0.94737  0.67691  0.25883  1.0000
  C   C999      1.0  0.95754  0.67417  0.24070  1.0000
  H   H1750     1.0  0.67642  0.83403  0.42312  1.0000
  C   C1000     1.0  0.72623  0.87489  0.01126  1.0000
  H   H1751     1.0  0.89848  0.59162  0.02263  1.0000
  H   H1752     1.0  0.69231  0.97921  0.43588  1.0000
  H   H1753     1.0  0.97637  0.67965  0.28572  1.0000
  C   C1001     1.0  0.96537  0.79294  0.19228  1.0000
  H   H1754     1.0  0.89733  0.70887  0.21408  1.0000
  H   H1755     1.0  0.88969  0.71317  0.16698  1.0000
  H   H1756     1.0  0.90074  0.68047  0.18169  1.0000
  C   C1002     1.0  0.70111  0.96457  0.42300  1.0000
  C   C1003     1.0  0.95093  0.66501  0.10786  1.0000
  H   H1757     1.0  0.82265  0.51065  0.99895  1.0000
  C   C1004     1.0  0.83952  0.92656  0.10012  1.0000
  H   H1758     1.0  0.83981  0.59884  0.44293  1.0000
  H   H1759     1.0  0.91131  0.56734  0.28309  1.0000
  H   H1760     1.0  0.92435  0.97419  0.21525  1.0000
  C   C1005     1.0  0.90895  0.52272  0.30091  1.0000
  C   C1006     1.0  0.66564  0.89263  0.42990  1.0000
  C   C1007     1.0  0.78089  0.61332  0.39518  1.0000
  C   C1008     1.0  0.89473  0.56870  0.02134  1.0000
  C   C1009     1.0  0.84696  0.50860  0.02781  1.0000
  H   H1761     1.0  0.89890  0.55812  0.04773  1.0000
  C   C1010     1.0  0.80875  0.96023  0.12135  1.0000
  C   C1011     1.0  0.76457  0.61146  0.37183  1.0000
  H   H1762     1.0  0.71276  0.96285  0.44095  1.0000
  H   H1763     1.0  0.78081  0.65666  0.41701  1.0000
  H   H1764     1.0  0.94112  0.67643  0.09023  1.0000
  H   H1765     1.0  0.79775  0.58291  0.46627  1.0000
  H   H1766     1.0  0.78049  0.89259  0.02743  1.0000
  H   H1767     1.0  0.81946  0.95362  0.19589  1.0000
  C   C1012     1.0  0.73607  0.82900  0.47529  1.0000
  H   H1768     1.0  0.65724  0.93504  0.45008  1.0000
  C   C1013     1.0  0.85723  0.92358  0.08947  1.0000
  H   H1769     1.0  0.69288  0.82911  0.45827  1.0000
  C   C1014     1.0  0.82443  0.62824  0.47257  1.0000
  H   H1770     1.0  0.79032  0.62109  0.37743  1.0000
  C   C1015     1.0  0.77978  0.63431  0.42790  1.0000
  H   H1771     1.0  0.79745  0.96104  0.19086  1.0000
  H   H1772     1.0  0.96785  0.75671  0.15695  1.0000
  H   H1773     1.0  0.86430  0.90802  0.10807  1.0000
  H   H1774     1.0  0.80524  0.92577  0.20539  1.0000
  H   H1775     1.0  0.93442  0.51689  0.29117  1.0000
  H   H1776     1.0  0.81884  0.97399  0.13351  1.0000
  H   H1777     1.0  0.81585  0.91365  0.02246  1.0000
  H   H1778     1.0  0.85737  0.91531  0.06117  1.0000
  H   H1779     1.0  0.87095  0.94679  0.16713  1.0000
  H   H1780     1.0  0.96319  0.67153  0.09984  1.0000
  H   H1781     1.0  0.76041  0.63312  0.36142  1.0000
  H   H1782     1.0  0.76607  0.59710  0.34814  1.0000
  H   H1783     1.0  0.75492  0.60248  0.38804  1.0000
  C   C1016     1.0  0.87509  0.95168  0.22617  1.0000
  C   C1017     1.0  0.79195  0.65391  0.48589  1.0000
  H   H1784     1.0  0.66669  0.89901  0.40100  1.0000
  H   H1785     1.0  0.69261  0.87751  0.40032  1.0000
  H   H1786     1.0  0.95406  0.95918  0.26935  1.0000
  H   H1787     1.0  0.75829  0.71709  0.07381  1.0000
  H   H1788     1.0  0.70268  0.92177  0.40181  1.0000
  H   H1789     1.0  0.89433  0.98540  0.35859  1.0000
  H   H1790     1.0  0.92107  0.52160  0.25080  1.0000
  H   H1791     1.0  0.88715  0.96172  0.29701  1.0000
  Fe  Fe117     1.0  0.92999  0.50752  0.14688  1.0000
  H   H1792     1.0  0.74888  0.89548  0.45014  1.0000
  H   H1793     1.0  0.79090  0.97812  0.05738  1.0000
  H   H1794     1.0  0.74813  0.57967  0.09912  1.0000
  H   H1795     1.0  0.98321  0.65933  0.24741  1.0000
  H   H1796     1.0  0.71725  0.62942  0.08624  1.0000
  H   H1797     1.0  0.76635  0.58533  0.12967  1.0000
  H   H1798     1.0  0.70390  0.97426  0.39658  1.0000
  C   C1018     1.0  0.65551  0.64752  0.00059  1.0000
  C   C1019     1.0  0.72408  0.84474  0.00920  1.0000
  C   C1020     1.0  0.94807  0.96387  0.24168  1.0000
  H   H1799     1.0  0.71739  0.88824  0.02433  1.0000
  H   H1800     1.0  0.97702  0.80204  0.18400  1.0000
  Fe  Fe118     1.0  0.71259  0.76241  0.00864  1.0000
  H   H1801     1.0  0.83182  0.94682  0.04807  1.0000
  Fe  Fe119     1.0  0.70169  0.69948  0.00823  1.0000
  S   S237      1.0  0.94222  0.96574  0.14262  1.0000
  H   H1802     1.0  0.81040  0.64872  0.42685  1.0000
  H   H1803     1.0  0.80778  0.97488  0.02965  1.0000
  C   C1021     1.0  0.77267  0.58903  0.47874  1.0000
  C   C1022     1.0  0.75915  0.72446  0.10264  1.0000
  N   N55       1.0  0.79256  0.62903  0.45945  1.0000
  H   H1804     1.0  0.79926  0.87140  0.03781  1.0000
  C   C1023     1.0  0.75294  0.58105  0.12824  1.0000
  N   N56       1.0  0.73612  0.65962  0.14355  1.0000
  C   C1024     1.0  0.71789  0.65414  0.13771  1.0000
  C   C1025     1.0  0.74083  0.66645  0.18328  1.0000
  C   C1026     1.0  0.73963  0.68583  0.12098  1.0000
  C   C1027     1.0  0.74634  0.63470  0.13061  1.0000
  C   C1028     1.0  0.74374  0.60477  0.14777  1.0000
  C   C1029     1.0  0.71102  0.64843  0.09780  1.0000
  C   C1030     1.0  0.75694  0.69915  0.12849  1.0000
  C   C1031     1.0  0.73147  0.65078  0.21253  1.0000
  C   C1032     1.0  0.73978  0.65534  0.25086  1.0000
  C   C1033     1.0  0.69258  0.64252  0.09588  1.0000
  N   N57       1.0  0.68242  0.89091  0.45054  1.0000
  H   H1805     1.0  0.71086  0.67290  0.14793  1.0000
  H   H1806     1.0  0.71431  0.63556  0.15417  1.0000
  H   H1807     1.0  0.75430  0.66279  0.18982  1.0000
  H   H1808     1.0  0.73849  0.68982  0.18863  1.0000
  H   H1809     1.0  0.73038  0.70338  0.12486  1.0000
  H   H1810     1.0  0.73835  0.68055  0.09138  1.0000
  H   H1811     1.0  0.74442  0.63257  0.10037  1.0000
  H   H1812     1.0  0.75968  0.63902  0.13603  1.0000
  H   H1813     1.0  0.73059  0.59894  0.14596  1.0000
  H   H1814     1.0  0.74876  0.60454  0.17674  1.0000
  H   H1815     1.0  0.71257  0.66744  0.08012  1.0000
  C   C1034     1.0  0.74280  0.87956  0.46564  1.0000
  H   H1816     1.0  0.76276  0.54541  0.38983  1.0000
  H   H1817     1.0  0.75875  0.70762  0.15673  1.0000
  H   H1818     1.0  0.71870  0.65979  0.21220  1.0000
  H   H1819     1.0  0.73066  0.62727  0.20780  1.0000
  H   H1820     1.0  0.75228  0.64516  0.25343  1.0000
  H   H1821     1.0  0.74081  0.67876  0.25703  1.0000
  H   H1822     1.0  0.73234  0.64540  0.27142  1.0000
  H   H1823     1.0  0.75119  0.55983  0.14142  1.0000
  S   S238      1.0  0.73667  0.79127  0.46393  1.0000
  H   H1824     1.0  0.69018  0.62299  0.11208  1.0000
  H   H1825     1.0  0.68574  0.66138  0.10630  1.0000
  C   C1035     1.0  0.80301  0.91748  0.02951  1.0000
  H   H1826     1.0  0.76688  0.68304  0.12453  1.0000
  H   H1827     1.0  0.94973  0.64139  0.10329  1.0000
  C   C1036     1.0  0.65270  0.91279  0.44595  1.0000
  Fe  Fe120     1.0  0.90272  0.98413  0.07848  1.0000
  H   H1828     1.0  0.95898  0.65907  0.16407  1.0000
  C   C1037     1.0  0.80925  0.62915  0.44418  1.0000
  H   H1829     1.0  0.72925  0.50970  0.43559  1.0000
  C   C1038     1.0  0.69042  0.92006  0.45310  1.0000
  N   N58       1.0  0.90362  0.94089  0.26147  1.0000
  C   C1039     1.0  0.92161  0.93909  0.25437  1.0000
  C   C1040     1.0  0.89746  0.91107  0.26968  1.0000
  C   C1041     1.0  0.89419  0.95185  0.22687  1.0000
  C   C1042     1.0  0.84026  0.62098  0.45452  1.0000
  H   H1830     1.0  0.69582  0.82787  0.37542  1.0000
  C   C1043     1.0  0.92945  0.96762  0.24299  1.0000
  H   H1831     1.0  0.68317  0.93579  0.46824  1.0000
  C   C1044     1.0  0.90965  0.88980  0.29136  1.0000
  C   C1045     1.0  0.90090  0.86292  0.30346  1.0000
  H   H1832     1.0  0.68216  0.93769  0.39863  1.0000
  S   S239      1.0  0.74138  0.92607  0.99766  1.0000
  H   H1833     1.0  0.79718  0.97340  0.12255  1.0000
  H   H1834     1.0  0.92336  0.92325  0.23220  1.0000
  H   H1835     1.0  0.92931  0.93048  0.27835  1.0000
  H   H1836     1.0  0.88604  0.91279  0.28433  1.0000
  H   H1837     1.0  0.89392  0.89947  0.24369  1.0000
  H   H1838     1.0  0.89773  0.93892  0.20317  1.0000
  H   H1839     1.0  0.74477  0.55177  0.41432  1.0000
  C   C1046     1.0  0.75315  0.50678  0.41324  1.0000
  H   H1840     1.0  0.85099  0.62197  0.47514  1.0000
  H   H1841     1.0  0.91428  0.97737  0.38169  1.0000
  H   H1842     1.0  0.90550  0.93714  0.34206  1.0000
  C   C1047     1.0  0.90246  0.55353  0.98981  1.0000
  H   H1843     1.0  0.76714  0.63384  0.43687  1.0000
  H   H1844     1.0  0.77144  0.73400  0.10899  1.0000
  H   H1845     1.0  0.70245  0.91790  0.46942  1.0000
  H   H1846     1.0  0.91933  0.88247  0.27372  1.0000
  H   H1847     1.0  0.91591  0.89967  0.31589  1.0000
  H   H1848     1.0  0.91011  0.84715  0.31625  1.0000
  H   H1849     1.0  0.89200  0.86870  0.32373  1.0000
  H   H1850     1.0  0.89425  0.85231  0.27969  1.0000
  H   H1851     1.0  0.96999  0.64298  0.27821  1.0000
  H   H1852     1.0  0.92390  0.55783  0.32437  1.0000
  H   H1853     1.0  0.90199  0.56336  0.32555  1.0000
  C   C1048     1.0  0.75065  0.53665  0.39561  1.0000
  C   C1049     1.0  0.97559  0.97425  0.01427  1.0000
  C   C1050     1.0  0.69329  0.87112  0.42964  1.0000
  C   C1051     1.0  0.86215  0.95744  0.00651  1.0000
  H   H1854     1.0  0.81065  0.61039  0.42575  1.0000
  H   H1855     1.0  0.78919  0.92904  0.07522  1.0000
  H   H1856     1.0  0.80698  0.90715  0.08648  1.0000
  C   C1052     1.0  0.80245  0.92627  0.07014  1.0000
  H   H1857     1.0  0.95401  0.65704  0.22090  1.0000
  S   S240      1.0  0.70140  0.65152  0.99327  1.0000
  H   H1858     1.0  0.83381  0.90515  0.09635  1.0000
  C   C1053     1.0  0.98089  0.73284  0.45071  1.0000
  H   H1859     1.0  0.82607  0.64978  0.48553  1.0000
  C   C1054     1.0  0.72016  0.57579  0.47023  1.0000
  S   S241      1.0  0.90276  0.97780  0.13902  1.0000
  H   H1860     1.0  0.79386  0.88434  0.99200  1.0000
  H   H1861     1.0  0.71510  0.55501  0.46281  1.0000
  H   H1862     1.0  0.89658  0.52137  0.28603  1.0000
  H   H1863     1.0  0.65643  0.76799  0.09382  1.0000
  H   H1864     1.0  0.87298  0.94389  0.01294  1.0000
  C   C1055     1.0  0.91010  0.95666  0.32892  1.0000
  C   C1056     1.0  0.69966  0.82152  0.40406  1.0000
  H   H1865     1.0  0.84210  0.63674  0.43243  1.0000
  H   H1866     1.0  0.76383  0.60586  0.48630  1.0000
  C   C1057     1.0  0.83307  0.49686  0.00802  1.0000
  H   H1867     1.0  0.79453  0.67454  0.47186  1.0000
  C   C1058     1.0  0.73531  0.82726  0.99198  1.0000
  H   H1868     1.0  0.74280  0.53543  0.36951  1.0000
  C   C1059     1.0  0.90037  0.96188  0.29151  1.0000
  H   H1869     1.0  0.95319  0.98414  0.23141  1.0000
  H   H1870     1.0  0.66476  0.63029  0.00898  1.0000
  H   H1871     1.0  0.89748  0.97454  0.22100  1.0000
  C   C1060     1.0  0.90761  0.98199  0.35467  1.0000
  C   C1061     1.0  0.86157  0.98550  0.02055  1.0000
  H   H1872     1.0  0.98059  0.50882  0.04190  1.0000
  H   H1873     1.0  0.76515  0.66181  0.48440  1.0000
  H   H1874     1.0  0.76117  0.50951  0.43877  1.0000
  H   H1875     1.0  0.66004  0.87095  0.42826  1.0000
  C   C1062     1.0  0.86715  0.96150  0.18894  1.0000
  C   C1063     1.0  0.68958  0.83829  0.43063  1.0000
  H   H1876     1.0  0.69777  0.79796  0.40713  1.0000
  H   H1877     1.0  0.71301  0.82557  0.40971  1.0000
  H   H1878     1.0  0.93934  0.80046  0.48385  1.0000
  H   H1879     1.0  0.87063  0.96665  0.24689  1.0000
  C   C1064     1.0  0.83394  0.99223  0.98906  1.0000
  H   H1880     1.0  0.67146  0.86189  0.48779  1.0000
  H   H1881     1.0  0.74454  0.51204  0.48875  1.0000
  H   H1882     1.0  0.88379  0.52055  0.98900  1.0000
  C   C1065     1.0  0.68132  0.87827  0.48832  1.0000
  C   C1066     1.0  0.73278  0.63040  0.48858  1.0000
  C   C1067     1.0  0.97330  0.76286  0.61058  1.0000
  H   H1883     1.0  0.73730  0.65152  0.49614  1.0000
  S   S242      1.0  0.72078  0.55727  0.54340  1.0000
  H   H1884     1.0  0.92608  0.49885  0.98486  1.0000
  S   S243      1.0  0.71036  0.95189  0.59642  1.0000
  H   H1885     1.0  0.93553  0.81176  0.52932  1.0000
  H   H1886     1.0  0.67413  0.89927  0.57728  1.0000
  H   H1887     1.0  0.87240  0.53756  0.93606  1.0000
  Fe  Fe121     1.0  0.71894  0.95903  0.54054  1.0000
  H   H1888     1.0  0.95618  0.53576  0.93140  1.0000
  Fe  Fe122     1.0  0.70922  0.51432  0.56075  1.0000
  H   H1889     1.0  0.95171  0.95779  0.94977  1.0000
  H   H1890     1.0  0.72393  0.82584  0.89160  1.0000
  H   H1891     1.0  0.82301  0.61190  0.49418  1.0000
  Fe  Fe123     1.0  0.79058  0.96501  0.93647  1.0000
  S   S244      1.0  0.74741  0.94713  0.82395  1.0000
  H   H1892     1.0  0.77823  0.88825  0.73523  1.0000
  H   H1893     1.0  0.75953  0.86752  0.73298  1.0000
  Fe  Fe124     1.0  0.75628  0.95149  0.95908  1.0000
  H   H1894     1.0  0.95879  0.69223  0.50518  1.0000
  Fe  Fe125     1.0  0.68813  0.98015  0.57813  1.0000
  H   H1895     1.0  0.97607  0.92358  0.76284  1.0000
  S   S245      1.0  0.77210  0.93073  0.91923  1.0000
  C   C1068     1.0  0.89733  0.52157  0.98705  1.0000
  C   C1069     1.0  0.69934  0.84199  0.89719  1.0000
  C   C1070     1.0  0.94449  0.81254  0.50813  1.0000
  C   C1071     1.0  0.71403  0.89816  0.87620  1.0000
  H   H1896     1.0  0.76143  0.87998  0.96833  1.0000
  S   S246      1.0  0.81737  0.94901  0.94876  1.0000
  H   H1897     1.0  0.69262  0.86185  0.90483  1.0000
  H   H1898     1.0  0.89850  0.56586  0.96465  1.0000
  S   S247      1.0  0.66367  0.96155  0.59401  1.0000
  H   H1899     1.0  0.97609  0.81628  0.84372  1.0000
  C   C1072     1.0  0.77246  0.97139  0.58336  1.0000
  H   H1900     1.0  0.71880  0.91529  0.85879  1.0000
  C   C1073     1.0  0.71518  0.91068  0.91541  1.0000
  H   H1901     1.0  0.75920  0.62527  0.97458  1.0000
  C   C1074     1.0  0.71304  0.87800  0.62292  1.0000
  H   H1902     1.0  0.70226  0.79782  0.91844  1.0000
  H   H1903     1.0  0.95729  0.98650  0.91982  1.0000
  H   H1904     1.0  0.75882  0.55660  0.50489  1.0000
  H   H1905     1.0  0.97880  0.76902  0.63804  1.0000
  H   H1906     1.0  0.73624  0.91702  0.63625  1.0000
  H   H1907     1.0  0.76474  0.68828  0.54144  1.0000
  H   H1908     1.0  0.70545  0.94605  0.94612  1.0000
  H   H1909     1.0  0.76005  0.90266  0.75401  1.0000
  Fe  Fe126     1.0  0.76056  0.96288  0.87790  1.0000
  H   H1910     1.0  0.85871  0.54508  0.87445  1.0000
  N   N59       1.0  0.98523  0.80358  0.57215  1.0000
  H   H1911     1.0  0.97745  0.85266  0.68385  1.0000
  H   H1912     1.0  0.71071  0.52040  0.93319  1.0000
  C   C1075     1.0  0.70390  0.93722  0.91798  1.0000
  H   H1913     1.0  0.77978  0.92761  0.63044  1.0000
  H   H1914     1.0  0.75084  0.94586  0.57506  1.0000
  H   H1915     1.0  0.84923  0.92502  0.97373  1.0000
  H   H1916     1.0  0.71934  0.87412  0.53739  1.0000
  H   H1917     1.0  0.71928  0.98290  0.85280  1.0000
  C   C1076     1.0  0.74886  0.84021  0.97756  1.0000
  C   C1077     1.0  0.75098  0.87033  0.97958  1.0000
  H   H1918     1.0  0.73285  0.61536  0.54438  1.0000
  C   C1078     1.0  0.96097  0.79868  0.52230  1.0000
  H   H1919     1.0  0.95373  0.95367  0.86665  1.0000
  S   S248      1.0  0.76038  0.56427  0.96246  1.0000
  C   C1079     1.0  0.72620  0.86765  0.51473  1.0000
  H   H1920     1.0  0.80171  0.65127  0.50865  1.0000
  H   H1921     1.0  0.75453  0.50868  0.55309  1.0000
  H   H1922     1.0  0.68997  0.52033  0.91211  1.0000
  H   H1923     1.0  0.71173  0.98405  0.80528  1.0000
  C   C1080     1.0  0.97976  0.92912  0.83977  1.0000
  C   C1081     1.0  0.87230  0.54194  0.87804  1.0000
  H   H1924     1.0  0.72119  0.82216  0.52031  1.0000
  H   H1925     1.0  0.72425  0.93846  0.76180  1.0000
  C   C1082     1.0  0.74295  0.98459  0.70673  1.0000
  C   C1083     1.0  0.77216  0.82971  0.56844  1.0000
  H   H1926     1.0  0.77924  0.84210  0.62370  1.0000
  C   C1084     1.0  0.77175  0.56388  0.50542  1.0000
  H   H1927     1.0  0.97086  0.84987  0.61755  1.0000
  H   H1928     1.0  0.77894  0.88570  0.66593  1.0000
  C   C1085     1.0  0.94931  0.51957  0.94617  1.0000
  C   C1086     1.0  0.95577  0.94402  0.89434  1.0000
  C   C1087     1.0  0.75588  0.99296  0.73202  1.0000
  H   H1929     1.0  0.90161  0.54086  0.91555  1.0000
  H   H1930     1.0  0.77928  0.88617  0.59045  1.0000
  H   H1931     1.0  0.77974  0.70438  0.51468  1.0000
  C   C1088     1.0  0.75740  0.98191  0.76801  1.0000
  C   C1089     1.0  0.97842  0.83198  0.63099  1.0000
  H   H1932     1.0  0.96383  0.72402  0.63392  1.0000
  H   H1933     1.0  0.95239  0.52238  0.97594  1.0000
  H   H1934     1.0  0.73348  0.85681  0.60092  1.0000
  H   H1935     1.0  0.96426  0.72319  0.58502  1.0000
  C   C1090     1.0  0.97413  0.93507  0.90363  1.0000
  H   H1936     1.0  0.97601  0.86694  0.82400  1.0000
  C   C1091     1.0  0.73013  0.60981  0.51599  1.0000
  C   C1092     1.0  0.72370  0.58238  0.50719  1.0000
  H   H1937     1.0  0.71019  0.89274  0.64549  1.0000
  H   H1938     1.0  0.69422  0.83496  0.86985  1.0000
  C   C1093     1.0  0.72604  0.87853  0.80259  1.0000
  H   H1939     1.0  0.98050  0.95310  0.84249  1.0000
  H   H1940     1.0  0.89963  0.50643  0.89532  1.0000
  C   C1094     1.0  0.67454  0.88377  0.55431  1.0000
  S   S249      1.0  0.78344  0.50509  0.91618  1.0000
  H   H1941     1.0  0.77970  0.54546  0.49779  1.0000
  C   C1095     1.0  0.97253  0.88678  0.87682  1.0000
  H   H1942     1.0  0.74531  0.90526  0.69299  1.0000
  N   N60       1.0  0.72327  0.86996  0.87155  1.0000
  H   H1943     1.0  0.96995  0.81498  0.63829  1.0000
  C   C1096     1.0  0.71812  0.84710  0.89747  1.0000
  C   C1097     1.0  0.73159  0.96479  0.71778  1.0000
  C   C1098     1.0  0.74142  0.87506  0.87961  1.0000
  C   C1099     1.0  0.75313  0.84916  0.87256  1.0000
  H   H1944     1.0  0.97473  0.92554  0.93148  1.0000
  H   H1945     1.0  0.72156  0.95820  0.69872  1.0000
  C   C1100     1.0  0.77114  0.85728  0.88071  1.0000
  H   H1946     1.0  0.68234  0.81445  0.92318  1.0000
  H   H1947     1.0  0.95947  0.89027  0.86618  1.0000
  C   C1101     1.0  0.71512  0.59777  0.98241  1.0000
  H   H1948     1.0  0.72428  0.83704  0.82989  1.0000
  H   H1949     1.0  0.69081  0.93136  0.91197  1.0000
  C   C1102     1.0  0.98343  0.70709  0.52029  1.0000
  C   C1103     1.0  0.73415  0.63721  0.98405  1.0000
  H   H1950     1.0  0.98427  0.69673  0.54678  1.0000
  H   H1951     1.0  0.74531  0.89414  0.86426  1.0000
  H   H1952     1.0  0.74406  0.88099  0.90864  1.0000
  H   H1953     1.0  0.75160  0.84205  0.84374  1.0000
  H   H1954     1.0  0.75080  0.83057  0.89043  1.0000
  H   H1955     1.0  0.98130  0.95534  0.90612  1.0000
  C   C1104     1.0  0.83437  0.96402  0.97559  1.0000
  H   H1956     1.0  0.71164  0.89483  0.93584  1.0000
  H   H1957     1.0  0.72549  0.55517  0.97320  1.0000
  H   H1958     1.0  0.77928  0.83859  0.87498  1.0000
  H   H1959     1.0  0.77423  0.87578  0.86335  1.0000
  H   H1960     1.0  0.77359  0.86314  0.90990  1.0000
  H   H1961     1.0  0.66223  0.87394  0.54959  1.0000
  H   H1962     1.0  0.70279  0.59001  0.98438  1.0000
  C   C1105     1.0  0.76457  0.88956  0.73141  1.0000
  H   H1963     1.0  0.95932  0.81403  0.57694  1.0000
  H   H1964     1.0  0.72781  0.84399  0.76276  1.0000
  C   C1106     1.0  0.76408  0.94213  0.58326  1.0000
  H   H1965     1.0  0.72280  0.85201  0.92593  1.0000
  C   C1107     1.0  0.72794  0.57796  0.97587  1.0000
  S   S250      1.0  0.73276  0.92649  0.50552  1.0000
  H   H1966     1.0  0.94615  0.83534  0.49989  1.0000
  C   C1108     1.0  0.92084  0.50081  0.95591  1.0000
  C   C1109     1.0  0.74690  0.61746  0.97695  1.0000
  H   H1967     1.0  0.79581  0.60165  0.50748  1.0000
  C   C1110     1.0  0.77580  0.65834  0.50472  1.0000
  H   H1968     1.0  0.76162  0.83221  0.54739  1.0000
  C   C1111     1.0  0.97140  0.83337  0.86161  1.0000
  H   H1969     1.0  0.78639  0.68104  0.55275  1.0000
  H   H1970     1.0  0.70712  0.95427  0.89871  1.0000
  H   H1971     1.0  0.95779  0.83496  0.85644  1.0000
  C   C1112     1.0  0.96893  0.70450  0.49645  1.0000
  H   H1972     1.0  0.73534  0.86110  0.65006  1.0000
  C   C1113     1.0  0.71814  0.62748  0.98649  1.0000
  C   C1114     1.0  0.72727  0.83813  0.50491  1.0000
  C   C1115     1.0  0.74602  0.96214  0.77909  1.0000
  H   H1973     1.0  0.70648  0.85747  0.62615  1.0000
  H   H1974     1.0  0.87633  0.52998  0.85404  1.0000
  H   H1975     1.0  0.96087  0.77292  0.60573  1.0000
  H   H1976     1.0  0.76381  0.92609  0.69571  1.0000
  H   H1977     1.0  0.76040  0.94301  0.64019  1.0000
  H   H1978     1.0  0.72034  0.90045  0.80265  1.0000
  H   H1979     1.0  0.92851  0.52191  0.90666  1.0000
  H   H1980     1.0  0.97188  0.87871  0.90524  1.0000
  H   H1981     1.0  0.77362  0.63949  0.52223  1.0000
  H   H1982     1.0  0.76941  0.92870  0.56203  1.0000
  H   H1983     1.0  0.70598  0.85833  0.82654  1.0000
  H   H1984     1.0  0.95859  0.77578  0.52886  1.0000
  C   C1116     1.0  0.73319  0.95357  0.75366  1.0000
  H   H1985     1.0  0.92744  0.54614  0.94447  1.0000
  H   H1986     1.0  0.70830  0.86381  0.75924  1.0000
  H   H1987     1.0  0.70613  0.50141  0.89072  1.0000
  H   H1988     1.0  0.76150  0.86381  0.66609  1.0000
  C   C1117     1.0  0.89591  0.51957  0.91879  1.0000
  H   H1989     1.0  0.96732  0.92505  0.82614  1.0000
  H   H1990     1.0  0.75768  0.82689  0.96440  1.0000
  C   C1118     1.0  0.97923  0.86216  0.85335  1.0000
  S   S251      1.0  0.73243  0.78964  0.98553  1.0000
  H   H1991     1.0  0.73961  0.88061  0.80617  1.0000
  H   H1992     1.0  0.87033  0.50426  0.91087  1.0000
  H   H1993     1.0  0.70081  0.89619  0.86645  1.0000
  H   H1994     1.0  0.70841  0.88797  0.59647  1.0000
  H   H1995     1.0  0.75766  0.83673  0.61378  1.0000
  C   C1119     1.0  0.71952  0.85955  0.83298  1.0000
  C   C1120     1.0  0.72184  0.86566  0.76481  1.0000
  H   H1996     1.0  0.98315  0.71853  0.61406  1.0000
  N   N61       1.0  0.72941  0.57586  0.85546  1.0000
  C   C1121     1.0  0.74797  0.57627  0.85676  1.0000
  C   C1122     1.0  0.72281  0.60299  0.87265  1.0000
  C   C1123     1.0  0.72485  0.55033  0.87803  1.0000
  C   C1124     1.0  0.72161  0.57180  0.81716  1.0000
  C   C1125     1.0  0.72676  0.59280  0.78753  1.0000
  C   C1126     1.0  0.75651  0.54921  0.84131  1.0000
  C   C1127     1.0  0.70635  0.54831  0.88521  1.0000
  C   C1128     1.0  0.73217  0.63145  0.86785  1.0000
  C   C1129     1.0  0.72250  0.65746  0.88123  1.0000
  C   C1130     1.0  0.71989  0.58329  0.74955  1.0000
  C   C1131     1.0  0.77494  0.55388  0.83954  1.0000
  H   H1997     1.0  0.96941  0.83808  0.54930  1.0000
  H   H1998     1.0  0.75319  0.57899  0.88552  1.0000
  H   H1999     1.0  0.75226  0.59522  0.84198  1.0000
  H   H2000     1.0  0.70961  0.60684  0.86314  1.0000
  H   H2001     1.0  0.72305  0.60028  0.90285  1.0000
  H   H2002     1.0  0.73207  0.55039  0.90513  1.0000
  H   H2003     1.0  0.72819  0.52972  0.86472  1.0000
  H   H2004     1.0  0.72390  0.54933  0.80765  1.0000
  H   H2005     1.0  0.70798  0.57398  0.81663  1.0000
  H   H2006     1.0  0.74032  0.59367  0.78695  1.0000
  H   H2007     1.0  0.72169  0.61477  0.79213  1.0000
  H   H2008     1.0  0.75516  0.53018  0.85913  1.0000
  H   H2009     1.0  0.75131  0.54405  0.81333  1.0000
  H   H2010     1.0  0.69842  0.54765  0.85929  1.0000
  H   H2011     1.0  0.70234  0.56699  0.90143  1.0000
  H   H2012     1.0  0.74422  0.63039  0.88442  1.0000
  H   H2013     1.0  0.73456  0.63548  0.83913  1.0000
  H   H2014     1.0  0.71062  0.66046  0.86445  1.0000
  H   H2015     1.0  0.71998  0.65452  0.91027  1.0000
  H   H2016     1.0  0.72978  0.67734  0.87910  1.0000
  H   H2017     1.0  0.72345  0.59888  0.72870  1.0000
  H   H2018     1.0  0.72493  0.56158  0.74293  1.0000
  H   H2019     1.0  0.70623  0.58246  0.74797  1.0000
  H   H2020     1.0  0.77707  0.57149  0.81999  1.0000
  H   H2021     1.0  0.78080  0.55942  0.86693  1.0000
  H   H2022     1.0  0.78090  0.53373  0.83016  1.0000
  C   C1132     1.0  0.77679  0.68463  0.52988  1.0000
  H   H2023     1.0  0.72641  0.87999  0.74370  1.0000
  H   H2024     1.0  0.75917  0.88216  0.56890  1.0000
  H   H2025     1.0  0.94770  0.92512  0.89595  1.0000
  C   C1133     1.0  0.97105  0.73015  0.61084  1.0000
  H   H2026     1.0  0.72794  0.91756  0.92317  1.0000
  S   S252      1.0  0.77513  0.98424  0.97872  1.0000
  S   S253      1.0  0.68987  0.51369  0.60176  1.0000
  H   H2027     1.0  0.73742  0.90732  0.59011  1.0000
  C   C1134     1.0  0.87698  0.52494  0.91320  1.0000
  N   N62       1.0  0.75962  0.89770  0.62464  1.0000
  C   C1135     1.0  0.76521  0.88645  0.66237  1.0000
  C   C1136     1.0  0.76665  0.87911  0.59552  1.0000
  C   C1137     1.0  0.76635  0.92777  0.62162  1.0000
  C   C1138     1.0  0.74112  0.89996  0.61850  1.0000
  C   C1139     1.0  0.73156  0.87187  0.62369  1.0000
  C   C1140     1.0  0.75895  0.90386  0.69484  1.0000
  H   H2028     1.0  0.78347  0.83774  0.55713  1.0000
  C   C1141     1.0  0.76867  0.84615  0.60312  1.0000
  C   C1142     1.0  0.96859  0.81476  0.55652  1.0000
  C   C1143     1.0  0.69578  0.81840  0.92452  1.0000
  S   S254      1.0  0.69601  0.98474  0.52087  1.0000
  H   H2029     1.0  0.76744  0.98848  0.78706  1.0000
  C   C1144     1.0  0.74388  0.58777  0.97269  1.0000
  C   C1145     1.0  0.73389  0.88868  0.49502  1.0000
  H   H2030     1.0  0.69983  0.82510  0.95277  1.0000
  H   H2031     1.0  0.68388  0.86658  0.56215  1.0000
  N   N63       1.0  0.98166  0.91480  0.87706  1.0000
  H   H2032     1.0  0.97463  0.82690  0.89048  1.0000
  C   C1146     1.0  0.70316  0.52091  0.90662  1.0000
  N   N64       1.0  0.90227  0.50508  0.95419  1.0000
  S   S255      1.0  0.74352  0.98177  0.91727  1.0000
  H   H2033     1.0  0.93690  0.97198  0.91490  1.0000
  S   S256      1.0  0.69537  0.73703  0.96992  1.0000
  C   C1147     1.0  0.93081  0.52385  0.93677  1.0000
  H   H2034     1.0  0.87802  0.56355  0.87927  1.0000
  H   H2035     1.0  0.77399  0.80632  0.57472  1.0000
  C   C1148     1.0  0.67892  0.89972  0.52008  1.0000
  Fe  Fe127     1.0  0.76244  0.51577  0.95072  1.0000
  Fe  Fe128     1.0  0.72285  0.99323  0.61266  1.0000
  H   H2036     1.0  0.76718  0.98619  0.60334  1.0000
  H   H2037     1.0  0.77557  0.57079  0.53372  1.0000
  H   H2038     1.0  0.78593  0.96873  0.59036  1.0000
  H   H2039     1.0  0.77047  0.98140  0.55582  1.0000
  H   H2040     1.0  0.69058  0.91131  0.52714  1.0000
  H   H2041     1.0  0.96914  0.79915  0.49961  1.0000
  C   C1149     1.0  0.98489  0.77184  0.58141  1.0000
  C   C1150     1.0  0.84865  0.94682  0.98418  1.0000
  H   H2042     1.0  0.98182  0.75906  0.55643  1.0000
  C   C1151     1.0  0.95014  0.96642  0.92142  1.0000
  H   H2043     1.0  0.95341  0.49766  0.93804  1.0000
  H   H2044     1.0  0.66914  0.91622  0.51320  1.0000
  H   H2045     1.0  0.69774  0.99010  0.84019  1.0000
  C   C1152     1.0  0.71042  0.99383  0.83249  1.0000
  H   H2046     1.0  0.73665  0.65999  0.98697  1.0000
  H   H2047     1.0  0.66198  0.66514  0.98737  1.0000
  H   H2048     1.0  0.69290  0.86624  0.49735  1.0000
