data_image0
_chemical_formula_structural       S3FeS2FeS2FeSFeS3FeS2FeS2FeSFeS3CH4C6H4C6H4CHCH2C6FeH2C6H15CHC5HC2H2CHCHCHCH8CH5CHNC6H5CH13CH7NHC4H2CH7CH5CNC2H2CHCHCH8CHC2H2C2NHC4HC2H3CH7C2H9C2H2CHCH2CH6FeS2H4SH2FeS2FeCFeCS2HSHC6H2CHFeCHCHC6H3SH4CHCHCSH2CHNHCH8CHCHCH2C3HCHCHCHFeH7CH2SH2C2H7C2HNC12H21CNH2CH9CSH2CHFeH2FeS2FeS2FeSFeS3FeCFeS2HFeHS2CH3NHC6H4C2FeH3C2H5C6H5CHCH4CHSC3NHCHC3H2CHNCHCHC3H2CHCH2CH3C2HCH4C3H2CH7C2HCH4C3HCH4C2H2CHC2H2CHCHSH3NH3C2H5C3HCH4CH11CH5S2H4CH2CH3C2H7CH3CSHCH2CHC2H2C2H5FeS2FeS2FeSFeS3FeS2FeS2FeSFeS6C6H3C6H4C6H4C6H4CH3C4HCH2CHCHCH2C2H3CNCHC2H2CH2C2HCH6CHNH4SC3H3CHCH6CH6NC3FeH2C4HCH4NHC2H2CH3CH12C3H11CHCH5CH3C2H2CHC2HCH3CH2CHCH4CH7C2H9C4HCHC2H3NH7CH4CH3CH5CH2NHCH2C5HCH3CH6CHC3HFeNHCHFeH3FeS2H2CS2FeSHFeS2HFeS2C6H4CH4C2H4CH2C4H2CFeH3SH3NH3C2SHCH2C2H7CH2CHCH2C2H3CHCHNH4CH2CH2CH2CH5CHCH4CH6SCHCSHCHCHCHCHCHCHC2HCHC2H4CH2CHC2SCHSFeSFeS2FeS2FeS2FeSFeS3HCH2C6H5C3H3C6H4C2H2C2H7NC4HC4FeC2H17C2H2CH6CH2CHC3H2CHCH8CHNC5HC4HC2H9CH18CHCH3CH2NFeC2HC2SC2H3CH4CHCSH2NCH6CHNH2CH2C2H2FeSH2CFeS2FeS2FeSFeS3H4C6HCH2C2H2C7H3C6H7C3NH10CNHCH4CH3CHCH2CHC2H7NCH2CH2C3H3CH5CHC2HC3HC2H12CH6CHSHCHC2HC2H8NHCH2C2H5CHCH6C2HC2H2SHC3H4CHCHSFeS2CNSCHFeS2FeSFeSFeS3CH2C2HC6H5C6H7CH3C2HCH6CH5CNCHCHC2H2CS2HC2H2FeCH7CFeC2HCH2C2H2CH5SHNC12H17FeH11CH4CSHSH2C2HC2H4CH3FeS2FeS2FeSFeS3FeS2FeS2FeSFeS3FeS2FeSH4C2H2C6H4C2H5C7H4C6H4C4H4C3H4CNH8C2H5C3H4NH7CH2C3H5FeH2NC12H26CHSCH6CHC2HNHCHCHCHCHCH2CHCHCH3CH4C2H5CH6C4HNC2HCH3C2H5CHCH6CHC3H3CHSHCH4CH3FeS2FeS2FeHFeS3C2SFeSH2SCH2CHC6H4C5H5C7H8CH2SCHC2H10NFeHCH3CH4C2NC8HCHCH21CHCH3NC6HC3H16CH3CH8CH4C2H3CH6CH3C5HNH2SH3C2H2CSCH2FeH2C2H2CFeS2FeSFeSFeS3FeCSCH2SCSH6C6H3C3SC2HCHC6H4CH3CH2C2H2CHCH5CH2CHCH4C2H4CH3CH4CH2SHCH2CSNCNC4HCH2CH8CH4CH6C2H6CH6C2H2SHFeH5C2H4NHC3H2CH2CHSCNC2H2CH3CH9CH4FeS2HSFeSFeS2FeS2FeSFeS3FeS2FeS2FeSFeS3C4H3C7H4C6HNH3CHFeC6H4C6H4NC12H30C2H2C2H2CH4CH2CHCH8C3H2CH3NC2HCH3C3H8C2H3CH2C2H2CH7CH4C2H6C2H4CH8CHC2H10CHCHC3
_chemical_formula_sum              "S192 Fe96 C864 H1536 N48"
_cell_length_a       46.9553
_cell_length_b       47.0936
_cell_length_c       47.2688
_cell_angle_alpha    90.0279
_cell_angle_beta     90.1197
_cell_angle_gamma    90.0727

_space_group_name_H-M_alt    "P 1"
_space_group_IT_number       1

loop_
  _space_group_symop_operation_xyz
  'x, y, z'

loop_
  _atom_site_type_symbol
  _atom_site_label
  _atom_site_symmetry_multiplicity
  _atom_site_fract_x
  _atom_site_fract_y
  _atom_site_fract_z
  _atom_site_occupancy
  S   S1        1.0  0.11355  0.14701  0.29599  1.0000
  S   S2        1.0  0.12758  0.23133  0.28972  1.0000
  S   S3        1.0  0.18086  0.10055  0.29562  1.0000
  Fe  Fe1       1.0  0.32856  0.10695  0.21422  1.0000
  S   S4        1.0  0.30231  0.09716  0.17595  1.0000
  S   S5        1.0  0.30939  0.11923  0.25696  1.0000
  Fe  Fe2       1.0  0.38521  0.10219  0.18121  1.0000
  S   S6        1.0  0.36208  0.09281  0.14024  1.0000
  S   S7        1.0  0.43322  0.09745  0.19035  1.0000
  Fe  Fe3       1.0  0.33141  0.12748  0.15349  1.0000
  S   S8        1.0  0.30843  0.15676  0.12245  1.0000
  Fe  Fe4       1.0  0.33461  0.06314  0.16580  1.0000
  S   S9        1.0  0.31768  0.02144  0.14661  1.0000
  S   S10       1.0  0.35660  0.13909  0.19238  1.0000
  S   S11       1.0  0.35883  0.07065  0.20618  1.0000
  Fe  Fe5       1.0  0.17752  0.31928  0.08332  1.0000
  S   S12       1.0  0.21248  0.34253  0.10689  1.0000
  S   S13       1.0  0.17236  0.33261  0.03685  1.0000
  Fe  Fe6       1.0  0.15833  0.28846  0.13752  1.0000
  S   S14       1.0  0.19133  0.31022  0.16383  1.0000
  S   S15       1.0  0.13058  0.25347  0.15649  1.0000
  Fe  Fe7       1.0  0.17971  0.35039  0.14053  1.0000
  S   S16       1.0  0.17300  0.39053  0.16745  1.0000
  Fe  Fe8       1.0  0.22103  0.30042  0.12803  1.0000
  S   S17       1.0  0.26525  0.28395  0.13953  1.0000
  S   S18       1.0  0.14412  0.32909  0.11631  1.0000
  S   S19       1.0  0.18859  0.27679  0.10225  1.0000
  C   C1        1.0  0.16851  0.31497  0.00379  1.0000
  H   H1        1.0  0.22585  0.24818  0.25492  1.0000
  H   H2        1.0  0.01477  0.18962  0.29843  1.0000
  H   H3        1.0  0.18988  0.21277  0.26524  1.0000
  H   H4        1.0  0.16080  0.27321  0.02056  1.0000
  C   C2        1.0  0.28502  0.23688  0.04796  1.0000
  C   C3        1.0  0.07410  0.46613  0.14504  1.0000
  C   C4        1.0  0.17011  0.44774  0.17912  1.0000
  C   C5        1.0  0.17693  0.42707  0.15867  1.0000
  C   C6        1.0  0.18682  0.43606  0.13226  1.0000
  C   C7        1.0  0.18995  0.46531  0.12649  1.0000
  H   H5        1.0  0.05641  0.20357  0.17655  1.0000
  H   H6        1.0  0.16241  0.44102  0.19961  1.0000
  H   H7        1.0  0.19216  0.42046  0.11632  1.0000
  H   H8        1.0  0.38858  0.01661  0.08414  1.0000
  C   C8        1.0  0.29517  0.19125  0.12978  1.0000
  C   C9        1.0  0.27171  0.20133  0.11423  1.0000
  C   C10       1.0  0.26191  0.22938  0.11761  1.0000
  C   C11       1.0  0.27592  0.24796  0.13602  1.0000
  C   C12       1.0  0.29926  0.23787  0.15177  1.0000
  C   C13       1.0  0.30863  0.20954  0.14896  1.0000
  H   H9        1.0  0.26124  0.18738  0.09927  1.0000
  H   H10       1.0  0.24395  0.23684  0.10546  1.0000
  H   H11       1.0  0.31031  0.25209  0.16604  1.0000
  H   H12       1.0  0.32694  0.20217  0.16077  1.0000
  C   C14       1.0  0.46584  0.11219  0.17761  1.0000
  H   H13       1.0  0.19116  0.19010  0.18820  1.0000
  C   C15       1.0  0.46675  0.13566  0.15947  1.0000
  H   H14       1.0  0.18250  0.15171  0.24295  1.0000
  H   H15       1.0  0.44708  0.14501  0.15206  1.0000
  C   C16       1.0  0.21570  0.10871  0.28353  1.0000
  C   C17       1.0  0.23427  0.12573  0.29937  1.0000
  C   C18       1.0  0.26281  0.12914  0.29078  1.0000
  C   C19       1.0  0.27278  0.11644  0.26577  1.0000
  C   C20       1.0  0.25374  0.10092  0.24907  1.0000
  C   C21       1.0  0.22555  0.09646  0.25825  1.0000
  Fe  Fe9       1.0  0.12448  0.18966  0.31392  1.0000
  H   H16       1.0  0.26102  0.09200  0.22937  1.0000
  H   H17       1.0  0.21125  0.08356  0.24566  1.0000
  C   C22       1.0  0.12872  0.23632  0.25254  1.0000
  C   C23       1.0  0.11899  0.21574  0.23341  1.0000
  C   C24       1.0  0.11962  0.22121  0.20404  1.0000
  C   C25       1.0  0.13026  0.24711  0.19353  1.0000
  C   C26       1.0  0.14018  0.26748  0.21270  1.0000
  C   C27       1.0  0.13919  0.26219  0.24200  1.0000
  H   H18       1.0  0.11089  0.19574  0.24123  1.0000
  H   H19       1.0  0.11202  0.20528  0.18936  1.0000
  H   H20       1.0  0.14804  0.28761  0.20500  1.0000
  H   H21       1.0  0.14655  0.27832  0.25660  1.0000
  H   H22       1.0  0.25886  0.27562  0.22203  1.0000
  H   H23       1.0  0.19771  0.47196  0.10600  1.0000
  H   H24       1.0  0.27732  0.14146  0.30370  1.0000
  H   H25       1.0  0.30126  0.05564  0.23270  1.0000
  H   H26       1.0  0.22309  0.01398  0.17723  1.0000
  H   H27       1.0  0.07175  0.10264  0.27672  1.0000
  H   H28       1.0  0.27739  0.23596  0.00329  1.0000
  H   H29       1.0  0.25172  0.40796  0.22551  1.0000
  H   H30       1.0  0.24556  0.99283  0.26110  1.0000
  H   H31       1.0  0.01013  0.16247  0.19790  1.0000
  H   H32       1.0  0.28324  0.18276  0.20255  1.0000
  C   C28       1.0  0.99385  0.16394  0.25472  1.0000
  H   H33       1.0  0.26153  0.41821  0.19011  1.0000
  C   C29       1.0  0.46616  0.19413  0.20749  1.0000
  C   C30       1.0  0.17318  0.47697  0.17331  1.0000
  C   C31       1.0  0.43551  0.20498  0.20838  1.0000
  C   C32       1.0  0.21051  0.00323  0.23289  1.0000
  C   C33       1.0  0.03574  0.19212  0.17483  1.0000
  H   H34       1.0  0.29707  0.48595  0.25440  1.0000
  C   C34       1.0  0.24134  0.00786  0.24344  1.0000
  C   C35       1.0  0.24094  0.27227  0.98903  1.0000
  H   H35       1.0  0.22045  0.28410  0.98827  1.0000
  H   H36       1.0  0.03640  0.17850  0.15565  1.0000
  C   C36       1.0  0.18322  0.48594  0.14696  1.0000
  H   H37       1.0  0.27143  0.47002  0.18025  1.0000
  C   C37       1.0  0.26156  0.02973  0.19995  1.0000
  H   H38       1.0  0.06492  0.29050  0.99917  1.0000
  C   C38       1.0  0.19764  0.21789  0.05170  1.0000
  H   H39       1.0  0.10779  0.29605  0.02917  1.0000
  C   C39       1.0  0.39559  0.00901  0.10528  1.0000
  H   H40       1.0  0.16751  0.00050  0.24952  1.0000
  H   H41       1.0  0.22651  0.04494  0.13609  1.0000
  H   H42       1.0  0.29477  0.99421  0.25416  1.0000
  H   H43       1.0  0.42308  0.19506  0.19092  1.0000
  H   H44       1.0  0.06168  0.22462  0.26835  1.0000
  H   H45       1.0  0.02198  0.11392  0.26394  1.0000
  H   H46       1.0  0.32445  0.02498  0.28541  1.0000
  H   H47       1.0  0.23520  0.47545  0.18824  1.0000
  C   C40       1.0  0.03058  0.19198  0.22813  1.0000
  H   H48       1.0  0.20543  0.23021  0.13940  1.0000
  H   H49       1.0  0.09206  0.34974  0.99206  1.0000
  H   H50       1.0  0.21154  0.19219  0.13947  1.0000
  H   H51       1.0  0.01831  0.20785  0.17221  1.0000
  H   H52       1.0  0.32582  0.21040  0.21637  1.0000
  C   C41       1.0  0.18955  0.00344  0.25762  1.0000
  H   H53       1.0  0.19998  0.24699  0.22770  1.0000
  N   N1        1.0  0.25218  0.27128  0.01904  1.0000
  C   C42       1.0  0.22853  0.26020  0.03760  1.0000
  C   C43       1.0  0.06552  0.10478  0.25416  1.0000
  C   C44       1.0  0.29285  0.00964  0.23646  1.0000
  C   C45       1.0  0.21520  0.23149  0.02813  1.0000
  C   C46       1.0  0.26963  0.30615  0.05829  1.0000
  C   C47       1.0  0.27418  0.33776  0.06421  1.0000
  H   H54       1.0  0.31812  0.21155  0.06764  1.0000
  H   H55       1.0  0.21091  0.27599  0.03869  1.0000
  H   H56       1.0  0.23572  0.25795  0.05980  1.0000
  H   H57       1.0  0.28044  0.34071  0.08671  1.0000
  H   H58       1.0  0.17976  0.23202  0.05784  1.0000
  C   C48       1.0  0.07084  0.31220  0.00612  1.0000
  H   H59       1.0  0.24666  0.45813  0.23948  1.0000
  H   H60       1.0  0.26941  0.21955  0.05139  1.0000
  H   H61       1.0  0.28402  0.25096  0.06660  1.0000
  H   H62       1.0  0.19051  0.02409  0.26905  1.0000
  H   H63       1.0  0.23175  0.21616  0.02137  1.0000
  H   H64       1.0  0.23986  0.31516  0.02440  1.0000
  H   H65       1.0  0.25419  0.29808  0.07409  1.0000
  H   H66       1.0  0.29056  0.29580  0.06148  1.0000
  H   H67       1.0  0.25431  0.34991  0.06025  1.0000
  H   H68       1.0  0.46504  0.17065  0.20922  1.0000
  H   H69       1.0  0.29139  0.34639  0.05059  1.0000
  H   H70       1.0  0.21114  0.21349  0.07052  1.0000
  H   H71       1.0  0.31069  0.00488  0.22159  1.0000
  C   C49       1.0  0.22161  0.29997  0.23058  1.0000
  H   H72       1.0  0.22619  0.30158  0.25358  1.0000
  H   H73       1.0  0.23007  0.31925  0.21995  1.0000
  H   H74       1.0  0.06057  0.08324  0.24592  1.0000
  H   H75       1.0  0.22634  0.17364  0.22735  1.0000
  H   H76       1.0  0.00973  0.21718  0.27326  1.0000
  H   H77       1.0  0.29769  0.26562  0.01425  1.0000
  H   H78       1.0  0.05141  0.32426  0.01171  1.0000
  N   N2        1.0  0.26456  0.00609  0.22148  1.0000
  H   H79       1.0  0.24139  0.23096  0.17825  1.0000
  C   C50       1.0  0.25955  0.45320  0.22051  1.0000
  C   C51       1.0  0.28427  0.19125  0.22442  1.0000
  C   C52       1.0  0.31456  0.22332  0.04755  1.0000
  C   C53       1.0  0.08852  0.30910  0.03318  1.0000
  H   H80       1.0  0.01622  0.21043  0.22471  1.0000
  H   H81       1.0  0.07160  0.24145  0.31661  1.0000
  C   C54       1.0  0.19828  0.20962  0.14820  1.0000
  H   H82       1.0  0.42524  0.19918  0.22873  1.0000
  H   H83       1.0  0.33171  0.06078  0.27409  1.0000
  H   H84       1.0  0.22688  0.13556  0.31865  1.0000
  H   H85       1.0  0.04742  0.15189  0.28559  1.0000
  H   H86       1.0  0.07569  0.29840  0.04977  1.0000
  H   H87       1.0  0.31641  0.20808  0.02971  1.0000
  H   H88       1.0  0.17793  0.20380  0.23053  1.0000
  C   C55       1.0  0.05045  0.23214  0.31156  1.0000
  H   H89       1.0  0.43494  0.22839  0.20563  1.0000
  H   H90       1.0  0.10916  0.43618  0.15071  1.0000
  H   H91       1.0  0.27601  0.17476  0.23900  1.0000
  H   H92       1.0  0.17580  0.20617  0.14165  1.0000
  H   H93       1.0  0.24242  0.19398  0.18346  1.0000
  C   C56       1.0  0.29902  0.03935  0.24949  1.0000
  N   N3        1.0  0.02330  0.17696  0.25537  1.0000
  C   C57       1.0  0.03065  0.17370  0.20098  1.0000
  C   C58       1.0  0.04524  0.15440  0.26224  1.0000
  H   H94       1.0  0.20417  0.02085  0.21867  1.0000
  H   H95       1.0  0.09530  0.33022  0.04131  1.0000
  C   C59       1.0  0.23568  0.27354  0.21805  1.0000
  H   H96       1.0  0.28198  0.04629  0.26407  1.0000
  C   C60       1.0  0.23136  0.21359  0.19053  1.0000
  H   H97       1.0  0.19817  0.29930  0.22736  1.0000
  C   C61       1.0  0.22327  0.24619  0.23154  1.0000
  H   H98       1.0  0.08370  0.11357  0.24195  1.0000
  H   H99       1.0  0.31793  0.20462  0.25351  1.0000
  H   H100      1.0  0.27606  0.31037  0.01402  1.0000
  H   H101      1.0  0.18854  0.19747  0.04414  1.0000
  H   H102      1.0  0.23194  0.27367  0.19490  1.0000
  H   H103      1.0  0.19144  0.16282  0.27866  1.0000
  H   H104      1.0  0.23539  0.19159  0.25923  1.0000
  H   H105      1.0  0.15733  0.17151  0.26369  1.0000
  C   C62       1.0  0.08794  0.43714  0.14024  1.0000
  H   H106      1.0  0.35920  0.99270  0.18336  1.0000
  C   C63       1.0  0.19190  0.19686  0.24795  1.0000
  C   C64       1.0  0.18023  0.16885  0.25893  1.0000
  H   H107      1.0  0.27175  0.22801  0.24886  1.0000
  H   H108      1.0  0.18694  0.22842  0.18759  1.0000
  C   C65       1.0  0.20020  0.21042  0.18041  1.0000
  C   C66       1.0  0.03932  0.12377  0.25127  1.0000
  N   N4        1.0  0.23585  0.21832  0.22179  1.0000
  H   H109      1.0  0.47420  0.19856  0.25179  1.0000
  C   C67       1.0  0.48421  0.20674  0.23212  1.0000
  C   C68       1.0  0.32667  0.03896  0.26663  1.0000
  C   C69       1.0  0.22355  0.19410  0.23890  1.0000
  C   C70       1.0  0.26757  0.21960  0.22718  1.0000
  H   H110      1.0  0.27797  0.23457  0.21215  1.0000
  C   C71       1.0  0.16320  0.28580  0.00159  1.0000
  C   C72       1.0  0.27855  0.25281  0.01983  1.0000
  H   H111      1.0  0.22829  0.06658  0.16755  1.0000
  H   H112      1.0  0.06666  0.16114  0.25465  1.0000
  H   H113      1.0  0.99191  0.14780  0.23777  1.0000
  C   C73       1.0  0.23955  0.05010  0.15503  1.0000
  H   H114      1.0  0.06895  0.19560  0.29194  1.0000
  H   H115      1.0  0.03556  0.24978  0.30666  1.0000
  H   H116      1.0  0.05233  0.20131  0.22947  1.0000
  H   H117      1.0  0.32695  0.17520  0.23126  1.0000
  H   H118      1.0  0.37739  0.01027  0.12022  1.0000
  H   H119      1.0  0.22619  0.42573  0.20328  1.0000
  H   H120      1.0  0.04831  0.15809  0.20189  1.0000
  C   C74       1.0  0.24913  0.42461  0.20907  1.0000
  C   C75       1.0  0.02368  0.19890  0.27872  1.0000
  H   H121      1.0  0.03269  0.12338  0.22883  1.0000
  H   H122      1.0  0.28285  0.03652  0.19217  1.0000
  H   H123      1.0  0.20067  0.23497  0.00989  1.0000
  H   H124      1.0  0.25229  0.04891  0.21000  1.0000
  H   H125      1.0  0.47506  0.19966  0.18648  1.0000
  H   H126      1.0  0.48097  0.23020  0.23227  1.0000
  H   H127      1.0  0.05262  0.46567  0.13519  1.0000
  H   H128      1.0  0.07434  0.42018  0.14939  1.0000
  H   H129      1.0  0.33133  0.23986  0.04566  1.0000
  C   C76       1.0  0.25900  0.30143  0.02763  1.0000
  C   C77       1.0  0.25696  0.47656  0.19768  1.0000
  H   H130      1.0  0.26030  0.05868  0.14766  1.0000
  H   H131      1.0  0.09060  0.43289  0.11727  1.0000
  C   C78       1.0  0.24419  0.02327  0.17262  1.0000
  H   H132      1.0  0.25596  0.00795  0.15911  1.0000
  C   C79       1.0  0.31565  0.19582  0.23182  1.0000
  H   H133      1.0  0.24120  0.02921  0.25347  1.0000
  H   H134      1.0  0.34470  0.03131  0.25352  1.0000
  C   C80       1.0  0.05310  0.21206  0.28627  1.0000
  H   H135      1.0  0.99002  0.15212  0.27483  1.0000
  H   H136      1.0  0.07140  0.46885  0.16816  1.0000
  H   H137      1.0  0.41266  0.02338  0.11310  1.0000
  H   H138      1.0  0.28216  0.45057  0.22678  1.0000
  H   H139      1.0  0.09126  0.48655  0.10850  1.0000
  H   H140      1.0  0.11515  0.48662  0.13734  1.0000
  Fe  Fe10      1.0  0.13655  0.16543  0.37334  1.0000
  S   S20       1.0  0.12712  0.12080  0.35893  1.0000
  S   S21       1.0  0.15375  0.18125  0.41619  1.0000
  H   H141      1.0  0.26379  0.10216  0.41347  1.0000
  H   H142      1.0  0.24214  0.19997  0.38544  1.0000
  H   H143      1.0  0.26361  0.12255  0.36626  1.0000
  H   H144      1.0  0.20014  0.07238  0.45800  1.0000
  S   S22       1.0  0.09720  0.18402  0.35291  1.0000
  H   H145      1.0  0.33401  0.20717  0.64770  1.0000
  H   H146      1.0  0.16298  0.25300  0.64289  1.0000
  Fe  Fe11      1.0  0.17343  0.14362  0.58554  1.0000
  S   S23       1.0  0.21183  0.12503  0.60784  1.0000
  S   S24       1.0  0.15966  0.12873  0.54108  1.0000
  Fe  Fe12      1.0  0.18187  0.11583  0.64388  1.0000
  C   C81       1.0  0.16617  0.05374  0.36611  1.0000
  Fe  Fe13      1.0  0.21694  0.16881  0.62712  1.0000
  C   C82       1.0  0.36912  0.21776  0.61824  1.0000
  S   S25       1.0  0.14316  0.13226  0.62107  1.0000
  S   S26       1.0  0.18087  0.18786  0.60238  1.0000
  H   H147      1.0  0.12817  0.13015  0.44164  1.0000
  S   S27       1.0  0.28384  0.32396  0.63172  1.0000
  H   H148      1.0  0.18330  0.04557  0.61915  1.0000
  C   C83       1.0  0.32938  0.47630  0.63740  1.0000
  C   C84       1.0  0.26320  0.22832  0.63641  1.0000
  C   C85       1.0  0.21098  0.13236  0.39175  1.0000
  C   C86       1.0  0.27559  0.28723  0.63428  1.0000
  C   C87       1.0  0.25866  0.27435  0.61332  1.0000
  C   C88       1.0  0.25242  0.24505  0.61439  1.0000
  H   H149      1.0  0.25060  0.28703  0.59599  1.0000
  H   H150      1.0  0.23986  0.23528  0.59781  1.0000
  C   C89       1.0  0.25452  0.42950  0.64920  1.0000
  H   H151      1.0  0.26690  0.43059  0.62921  1.0000
  Fe  Fe14      1.0  0.15404  0.17491  0.63973  1.0000
  C   C90       1.0  0.33876  0.17307  0.61825  1.0000
  H   H152      1.0  0.07437  0.24458  0.46063  1.0000
  C   C91       1.0  0.18033  0.03046  0.63613  1.0000
  H   H153      1.0  0.37828  0.30587  0.60603  1.0000
  C   C92       1.0  0.15526  0.16592  0.45060  1.0000
  C   C93       1.0  0.17168  0.17945  0.47163  1.0000
  C   C94       1.0  0.17356  0.16825  0.49928  1.0000
  C   C95       1.0  0.15858  0.14362  0.50644  1.0000
  C   C96       1.0  0.14250  0.12984  0.48529  1.0000
  C   C97       1.0  0.14081  0.14088  0.45755  1.0000
  H   H154      1.0  0.18318  0.19867  0.46644  1.0000
  H   H155      1.0  0.18668  0.17858  0.51502  1.0000
  H   H156      1.0  0.13112  0.11053  0.49044  1.0000
  S   S28       1.0  0.16435  0.17454  0.33541  1.0000
  H   H157      1.0  0.40809  0.27817  0.62950  1.0000
  H   H158      1.0  0.34299  0.16939  0.59544  1.0000
  H   H159      1.0  0.22636  0.07514  0.50264  1.0000
  H   H160      1.0  0.19912  0.06329  0.41222  1.0000
  C   C98       1.0  0.22765  0.18247  0.37898  1.0000
  H   H161      1.0  0.20776  0.10789  0.49629  1.0000
  C   C99       1.0  0.01128  0.12172  0.33273  1.0000
  H   H162      1.0  0.32248  0.21503  0.61226  1.0000
  C   C100      1.0  0.21735  0.11103  0.43828  1.0000
  S   S29       1.0  0.25909  0.19090  0.63672  1.0000
  H   H163      1.0  0.20566  0.19104  0.37826  1.0000
  H   H164      1.0  0.21211  0.12990  0.36847  1.0000
  C   C101      1.0  0.17924  0.00109  0.63024  1.0000
  H   H165      1.0  0.17056  0.03360  0.37753  1.0000
  N   N5        1.0  0.21803  0.10499  0.40682  1.0000
  H   H166      1.0  0.01576  0.16598  0.34280  1.0000
  C   C102      1.0  0.22018  0.08495  0.45814  1.0000
  H   H167      1.0  0.21026  0.06310  0.36183  1.0000
  H   H168      1.0  0.18679  0.09300  0.35581  1.0000
  H   H169      1.0  0.32477  0.45552  0.62876  1.0000
  H   H170      1.0  0.24582  0.10588  0.49070  1.0000
  H   H171      1.0  0.17405  0.09148  0.40852  1.0000
  H   H172      1.0  0.23805  0.07105  0.45155  1.0000
  H   H173      1.0  0.06419  0.19472  0.63274  1.0000
  H   H174      1.0  0.22197  0.16685  0.42109  1.0000
  C   C103      1.0  0.00099  0.14918  0.33744  1.0000
  H   H175      1.0  0.24772  0.07012  0.40236  1.0000
  C   C104      1.0  0.22538  0.09413  0.48875  1.0000
  H   H176      1.0  0.06543  0.23306  0.63088  1.0000
  C   C105      1.0  0.40354  0.25685  0.62046  1.0000
  H   H177      1.0  0.23398  0.17509  0.35757  1.0000
  H   H178      1.0  0.35474  0.16149  0.63117  1.0000
  C   C106      1.0  0.35347  0.26554  0.60498  1.0000
  C   C107      1.0  0.35594  0.29835  0.60689  1.0000
  C   C108      1.0  0.41454  0.25667  0.58956  1.0000
  H   H179      1.0  0.29212  0.08806  0.34002  1.0000
  C   C109      1.0  0.24710  0.09353  0.39903  1.0000
  H   H180      1.0  0.23481  0.12589  0.44425  1.0000
  C   C110      1.0  0.33989  0.31260  0.58259  1.0000
  H   H181      1.0  0.18139  0.99384  0.60863  1.0000
  C   C111      1.0  0.44605  0.26486  0.58850  1.0000
  H   H182      1.0  0.06986  0.26753  0.49082  1.0000
  Fe  Fe15      1.0  0.08914  0.13982  0.33630  1.0000
  H   H183      1.0  0.27990  0.05948  0.36224  1.0000
  H   H184      1.0  0.19719  0.12207  0.44404  1.0000
  H   H185      1.0  0.45351  0.26485  0.56622  1.0000
  H   H186      1.0  0.37299  0.21363  0.59540  1.0000
  H   H187      1.0  0.35672  0.25886  0.58264  1.0000
  H   H188      1.0  0.33071  0.26071  0.60945  1.0000
  H   H189      1.0  0.18838  0.13818  0.39564  1.0000
  C   C112      1.0  0.19497  0.08342  0.40070  1.0000
  H   H190      1.0  0.41224  0.23529  0.57997  1.0000
  H   H191      1.0  0.40280  0.27218  0.57629  1.0000
  S   S30       1.0  0.04821  0.11334  0.33415  1.0000
  H   H192      1.0  0.19046  0.26905  0.62164  1.0000
  H   H193      1.0  0.04536  0.23833  0.48474  1.0000
  C   C113      1.0  0.22951  0.15834  0.40047  1.0000
  C   C114      1.0  0.25798  0.09978  0.36854  1.0000
  H   H194      1.0  0.25221  0.15237  0.40294  1.0000
  H   H195      1.0  0.35024  0.30772  0.56206  1.0000
  H   H196      1.0  0.31739  0.30530  0.58190  1.0000
  H   H197      1.0  0.33999  0.33598  0.58571  1.0000
  H   H198      1.0  0.23276  0.43777  0.64509  1.0000
  H   H199      1.0  0.03175  0.21470  0.62853  1.0000
  H   H200      1.0  0.08841  0.10635  0.56973  1.0000
  C   C115      1.0  0.28464  0.08258  0.36166  1.0000
  C   C116      1.0  0.19109  0.07442  0.36947  1.0000
  H   H201      1.0  0.09534  0.11814  0.53423  1.0000
  N   N6        1.0  0.09469  0.20519  0.55081  1.0000
  C   C117      1.0  0.08920  0.21232  0.58142  1.0000
  C   C118      1.0  0.12638  0.20603  0.54561  1.0000
  C   C119      1.0  0.07934  0.22640  0.53236  1.0000
  C   C120      1.0  0.08401  0.17578  0.54345  1.0000
  C   C121      1.0  0.09069  0.15211  0.56529  1.0000
  C   C122      1.0  0.05746  0.21197  0.59047  1.0000
  C   C123      1.0  0.08719  0.22566  0.50047  1.0000
  C   C124      1.0  0.14125  0.23499  0.55131  1.0000
  C   C125      1.0  0.17129  0.23570  0.53896  1.0000
  C   C126      1.0  0.08301  0.12277  0.55373  1.0000
  C   C127      1.0  0.05460  0.21376  0.62261  1.0000
  C   C128      1.0  0.06793  0.24528  0.48323  1.0000
  H   H202      1.0  0.09706  0.23403  0.58646  1.0000
  H   H203      1.0  0.10175  0.19812  0.59561  1.0000
  H   H204      1.0  0.13745  0.19011  0.55897  1.0000
  H   H205      1.0  0.13122  0.19924  0.52363  1.0000
  H   H206      1.0  0.08266  0.24844  0.54021  1.0000
  H   H207      1.0  0.05590  0.22303  0.53377  1.0000
  H   H208      1.0  0.06053  0.17569  0.54009  1.0000
  H   H209      1.0  0.09313  0.16874  0.52285  1.0000
  H   H210      1.0  0.07845  0.15522  0.58509  1.0000
  H   H211      1.0  0.11350  0.15207  0.57091  1.0000
  H   H212      1.0  0.04622  0.23053  0.58123  1.0000
  H   H213      1.0  0.04630  0.19249  0.58332  1.0000
  H   H214      1.0  0.08505  0.20390  0.49170  1.0000
  H   H215      1.0  0.10946  0.23290  0.49718  1.0000
  H   H216      1.0  0.12940  0.25297  0.54188  1.0000
  H   H217      1.0  0.14311  0.23869  0.57446  1.0000
  H   H218      1.0  0.18160  0.25631  0.54412  1.0000
  H   H219      1.0  0.18454  0.21845  0.54801  1.0000
  H   H220      1.0  0.17053  0.23339  0.51557  1.0000
  H   H221      1.0  0.05988  0.12144  0.54895  1.0000
  H   H222      1.0  0.45913  0.24950  0.60072  1.0000
  C   C129      1.0  0.33946  0.20480  0.62502  1.0000
  N   N7        1.0  0.37265  0.24897  0.62457  1.0000
  H   H223      1.0  0.34648  0.30589  0.62703  1.0000
  H   H224      1.0  0.14615  0.06309  0.37437  1.0000
  C   C130      1.0  0.10025  0.01484  0.63910  1.0000
  H   H225      1.0  0.44931  0.28651  0.59738  1.0000
  H   H226      1.0  0.30199  0.08750  0.37692  1.0000
  H   H227      1.0  0.24189  0.09494  0.35215  1.0000
  H   H228      1.0  0.31732  0.16440  0.62325  1.0000
  H   H229      1.0  0.10769  0.02603  0.61979  1.0000
  H   H230      1.0  0.38554  0.20506  0.62959  1.0000
  H   H231      1.0  0.04279  0.22047  0.33050  1.0000
  H   H232      1.0  0.16303  0.04884  0.34331  1.0000
  H   H233      1.0  0.41753  0.24218  0.63258  1.0000
  C   C131      1.0  0.18629  0.25636  0.64098  1.0000
  S   S31       1.0  0.35662  0.36755  0.64768  1.0000
  H   H234      1.0  0.19700  0.23549  0.63876  1.0000
  H   H235      1.0  0.99934  0.07854  0.32321  1.0000
  C   C132      1.0  0.99167  0.09991  0.32669  1.0000
  H   H236      1.0  0.08134  0.02616  0.64751  1.0000
  Fe  Fe16      1.0  0.15211  0.13144  0.31954  1.0000
  H   H237      1.0  0.01655  0.43448  0.79816  1.0000
  H   H238      1.0  0.07636  0.31109  0.74476  1.0000
  Fe  Fe17      1.0  0.12265  0.26765  0.81632  1.0000
  S   S32       1.0  0.10780  0.31097  0.80320  1.0000
  S   S33       1.0  0.11731  0.22675  0.79115  1.0000
  Fe  Fe18      1.0  0.14529  0.28906  0.87433  1.0000
  S   S34       1.0  0.13291  0.33406  0.86436  1.0000
  S   S35       1.0  0.16251  0.27152  0.91635  1.0000
  Fe  Fe19      1.0  0.09159  0.31584  0.84779  1.0000
  S   S36       1.0  0.04969  0.33251  0.86629  1.0000
  Fe  Fe20      1.0  0.15036  0.32516  0.82075  1.0000
  S   S37       1.0  0.17530  0.35570  0.79302  1.0000
  S   S38       1.0  0.10334  0.27117  0.85972  1.0000
  S   S39       1.0  0.16584  0.28145  0.83171  1.0000
  Fe  Fe21      1.0  0.37743  0.34322  0.68324  1.0000
  C   C133      1.0  0.02537  0.25252  0.86162  1.0000
  Fe  Fe22      1.0  0.32646  0.35524  0.72344  1.0000
  S   S40       1.0  0.30299  0.38016  0.69066  1.0000
  S   S41       1.0  0.30797  0.34604  0.76684  1.0000
  H   H239      1.0  0.20665  0.18080  0.77267  1.0000
  Fe  Fe23      1.0  0.34547  0.40039  0.68090  1.0000
  H   H240      1.0  0.20332  0.25936  0.76587  1.0000
  S   S42       1.0  0.33744  0.31935  0.69446  1.0000
  S   S43       1.0  0.36856  0.37683  0.71587  1.0000
  C   C134      1.0  0.45227  0.32286  0.67368  1.0000
  H   H241      1.0  0.99196  0.24723  0.74640  1.0000
  H   H242      1.0  0.06533  0.25163  0.91213  1.0000
  H   H243      1.0  0.24651  0.29315  0.75707  1.0000
  N   N8        1.0  0.07410  0.33060  0.95433  1.0000
  H   H244      1.0  0.05293  0.31924  0.71568  1.0000
  C   C135      1.0  0.21188  0.35090  0.78528  1.0000
  C   C136      1.0  0.22288  0.36204  0.75998  1.0000
  C   C137      1.0  0.25209  0.35995  0.75370  1.0000
  C   C138      1.0  0.27079  0.34741  0.77308  1.0000
  C   C139      1.0  0.25976  0.33605  0.79829  1.0000
  C   C140      1.0  0.23037  0.33741  0.80420  1.0000
  H   H245      1.0  0.20871  0.37237  0.74517  1.0000
  H   H246      1.0  0.26019  0.36859  0.73417  1.0000
  H   H247      1.0  0.27404  0.32622  0.81336  1.0000
  H   H248      1.0  0.22220  0.32883  0.82380  1.0000
  C   C141      1.0  0.16859  0.31817  0.95199  1.0000
  C   C142      1.0  0.16377  0.28896  0.94973  1.0000
  Fe  Fe24      1.0  0.31612  0.34512  0.66104  1.0000
  H   H249      1.0  0.17120  0.33072  0.93301  1.0000
  H   H250      1.0  0.04846  0.22734  0.81364  1.0000
  H   H251      1.0  0.34643  0.24442  0.70933  1.0000
  C   C143      1.0  0.01637  0.33791  0.84926  1.0000
  C   C144      1.0  0.01397  0.33988  0.81986  1.0000
  H   H252      1.0  0.45284  0.23519  0.73917  1.0000
  H   H253      1.0  0.03287  0.33842  0.80691  1.0000
  H   H254      1.0  0.28982  0.29660  0.72772  1.0000
  H   H255      1.0  0.13241  0.40768  0.92510  1.0000
  H   H256      1.0  0.31835  0.40889  0.77638  1.0000
  C   C145      1.0  0.12263  0.21327  0.69479  1.0000
  C   C146      1.0  0.13113  0.19202  0.71362  1.0000
  C   C147      1.0  0.12946  0.19656  0.74300  1.0000
  C   C148      1.0  0.12045  0.22277  0.75396  1.0000
  C   C149      1.0  0.11241  0.24428  0.73514  1.0000
  C   C150      1.0  0.11297  0.23934  0.70570  1.0000
  H   H257      1.0  0.13832  0.17175  0.70557  1.0000
  H   H258      1.0  0.13532  0.17962  0.75734  1.0000
  H   H259      1.0  0.10524  0.26448  0.74330  1.0000
  H   H260      1.0  0.10629  0.25589  0.69129  1.0000
  H   H261      1.0  0.03121  0.29090  0.78517  1.0000
  C   C151      1.0  0.23832  0.26783  0.71864  1.0000
  H   H262      1.0  0.04266  0.32861  0.75120  1.0000
  C   C152      1.0  0.15369  0.33087  0.71954  1.0000
  H   H263      1.0  0.34231  0.43624  0.78849  1.0000
  H   H264      1.0  0.44783  0.36568  0.68883  1.0000
  H   H265      1.0  0.17856  0.20566  0.78027  1.0000
  H   H266      1.0  0.38043  0.23377  0.72364  1.0000
  C   C153      1.0  0.12507  0.38614  0.91888  1.0000
  H   H267      1.0  0.26201  0.30932  0.96981  1.0000
  S   S44       1.0  0.19044  0.15803  0.66507  1.0000
  C   C154      1.0  0.32977  0.42856  0.77007  1.0000
  C   C155      1.0  0.05368  0.31237  0.73814  1.0000
  C   C156      1.0  0.30870  0.45143  0.76073  1.0000
  N   N9        1.0  0.26704  0.46037  0.72554  1.0000
  H   H268      1.0  0.04302  0.23756  0.86635  1.0000
  C   C157      1.0  0.26944  0.44720  0.67194  1.0000
  H   H269      1.0  0.34479  0.42355  0.75264  1.0000
  C   C158      1.0  0.19770  0.27203  0.66689  1.0000
  C   C159      1.0  0.99168  0.34077  0.86587  1.0000
  C   C160      1.0  0.19668  0.24925  0.74559  1.0000
  H   H270      1.0  0.10427  0.28625  0.92222  1.0000
  H   H271      1.0  0.22748  0.29049  0.93456  1.0000
  C   C161      1.0  0.36985  0.24714  0.70738  1.0000
  H   H272      1.0  0.37575  0.21529  0.67558  1.0000
  N   N10       1.0  0.02470  0.24565  0.77866  1.0000
  C   C162      1.0  0.03987  0.27324  0.77238  1.0000
  H   H273      1.0  0.24372  0.03174  0.70734  1.0000
  C   C163      1.0  0.03935  0.22271  0.76173  1.0000
  H   H274      1.0  0.15188  0.28711  0.70866  1.0000
  C   C164      1.0  0.06559  0.30197  0.94259  1.0000
  C   C165      1.0  0.03916  0.28345  0.74118  1.0000
  C   C166      1.0  0.02973  0.19169  0.76753  1.0000
  H   H275      1.0  0.26130  0.07497  0.68540  1.0000
  H   H276      1.0  0.09605  0.23567  0.92850  1.0000
  C   C167      1.0  0.44958  0.25843  0.73686  1.0000
  H   H277      1.0  0.22032  0.27741  0.66295  1.0000
  C   C168      1.0  0.24492  0.46357  0.74847  1.0000
  H   H278      1.0  0.06266  0.27146  0.77886  1.0000
  H   H279      1.0  0.11762  0.01570  0.65506  1.0000
  C   C169      1.0  0.25277  0.44633  0.70038  1.0000
  H   H280      1.0  0.29130  0.43889  0.67434  1.0000
  H   H281      1.0  0.06269  0.22362  0.76551  1.0000
  H   H282      1.0  0.03637  0.22610  0.73864  1.0000
  C   C170      1.0  0.04829  0.17070  0.75115  1.0000
  C   C171      1.0  0.02773  0.23833  0.80974  1.0000
  H   H283      1.0  0.19175  0.45487  0.77402  1.0000
  C   C172      1.0  0.02758  0.26331  0.83123  1.0000
  H   H284      1.0  0.05065  0.26849  0.72714  1.0000
  H   H285      1.0  0.23613  0.25048  0.98123  1.0000
  H   H286      1.0  0.04887  0.29188  0.95570  1.0000
  H   H287      1.0  0.03153  0.18613  0.79026  1.0000
  C   C173      1.0  0.34342  0.47862  0.66343  1.0000
  C   C174      1.0  0.01883  0.33684  0.95996  1.0000
  C   C175      1.0  0.37995  0.23834  0.67793  1.0000
  H   H288      1.0  0.02359  0.40835  0.82509  1.0000
  H   H289      1.0  0.28848  0.22848  0.67446  1.0000
  C   C176      1.0  0.09578  0.34339  0.93444  1.0000
  H   H290      1.0  0.30685  0.43895  0.71753  1.0000
  H   H291      1.0  0.24846  0.42351  0.70491  1.0000
  H   H292      1.0  0.26925  0.00340  0.65465  1.0000
  H   H293      1.0  0.24777  0.42154  0.76892  1.0000
  H   H294      1.0  0.22032  0.42404  0.74220  1.0000
  H   H295      1.0  0.04080  0.14867  0.75507  1.0000
  H   H296      1.0  0.04718  0.17495  0.72805  1.0000
  C   C177      1.0  0.04861  0.35035  0.95503  1.0000
  C   C178      1.0  0.20634  0.21776  0.74526  1.0000
  H   H297      1.0  0.05581  0.30468  0.92124  1.0000
  C   C179      1.0  0.99597  0.35961  0.96368  1.0000
  H   H298      1.0  0.20306  0.30558  0.74510  1.0000
  H   H299      1.0  0.29543  0.25865  0.73072  1.0000
  H   H300      1.0  0.16398  0.34537  0.73493  1.0000
  H   H301      1.0  0.04641  0.36179  0.93443  1.0000
  C   C180      1.0  0.17260  0.99076  0.67983  1.0000
  C   C181      1.0  0.19482  0.25360  0.69391  1.0000
  C   C182      1.0  0.17401  0.02012  0.68577  1.0000
  H   H302      1.0  0.08865  0.38854  0.94588  1.0000
  C   C183      1.0  0.08976  0.27986  0.93951  1.0000
  H   H303      1.0  0.29818  0.28016  0.67319  1.0000
  H   H304      1.0  0.10208  0.27755  0.95936  1.0000
  H   H305      1.0  0.21478  0.21375  0.79045  1.0000
  H   H306      1.0  0.24866  0.99052  0.73019  1.0000
  C   C184      1.0  0.46253  0.34958  0.68158  1.0000
  C   C185      1.0  0.25453  0.27372  0.74664  1.0000
  H   H307      1.0  0.22926  0.21553  0.74025  1.0000
  H   H308      1.0  0.11276  0.38791  0.89885  1.0000
  C   C186      1.0  0.17791  0.04015  0.66399  1.0000
  H   H309      1.0  0.24814  0.25823  0.93165  1.0000
  C   C187      1.0  0.19544  0.29672  0.72465  1.0000
  C   C188      1.0  0.20123  0.20371  0.77394  1.0000
  H   H310      1.0  0.24497  0.28449  0.70327  1.0000
  H   H311      1.0  0.24691  0.24770  0.70976  1.0000
  C   C189      1.0  0.24916  0.28125  0.93670  1.0000
  H   H312      1.0  0.29759  0.28111  0.76163  1.0000
  C   C190      1.0  0.20926  0.44144  0.78241  1.0000
  H   H313      1.0  0.25215  0.25572  0.76159  1.0000
  S   S45       1.0  0.35396  0.44848  0.68360  1.0000
  H   H314      1.0  0.00735  0.18842  0.76070  1.0000
  H   H315      1.0  0.40328  0.24196  0.67715  1.0000
  H   H316      1.0  0.28355  0.41949  0.73892  1.0000
  N   N11       1.0  0.20625  0.26681  0.72073  1.0000
  H   H317      1.0  0.17214  0.24740  0.69631  1.0000
  H   H318      1.0  0.43491  0.26221  0.71878  1.0000
  H   H319      1.0  0.15412  0.29376  0.74602  1.0000
  C   C191      1.0  0.10654  0.37364  0.94230  1.0000
  C   C192      1.0  0.16253  0.30016  0.72499  1.0000
  H   H320      1.0  0.17500  0.35363  0.98025  1.0000
  H   H321      1.0  0.20466  0.31116  0.70840  1.0000
  H   H322      1.0  0.15759  0.25020  0.97319  1.0000
  H   H323      1.0  0.20588  0.23313  0.68950  1.0000
  H   H324      1.0  0.26331  0.29173  0.92106  1.0000
  C   C193      1.0  0.47174  0.30219  0.66430  1.0000
  C   C194      1.0  0.29123  0.44146  0.73483  1.0000
  C   C195      1.0  0.28631  0.27766  0.74123  1.0000
  H   H325      1.0  0.46401  0.28145  0.65811  1.0000
  C   C196      1.0  0.07804  0.25057  0.93191  1.0000
  H   H326      1.0  0.43943  0.26697  0.75629  1.0000
  H   H327      1.0  0.05177  0.36726  0.97123  1.0000
  H   H328      1.0  0.28175  0.02907  0.70220  1.0000
  H   H329      1.0  0.27108  0.46920  0.66368  1.0000
  C   C197      1.0  0.26074  0.28599  0.96661  1.0000
  H   H330      1.0  0.01693  0.28574  0.73355  1.0000
  H   H331      1.0  0.00056  0.37284  0.98261  1.0000
  H   H332      1.0  0.07085  0.17230  0.75819  1.0000
  H   H333      1.0  0.19403  0.20578  0.72905  1.0000
  H   H334      1.0  0.25375  0.47450  0.76732  1.0000
  H   H335      1.0  0.37551  0.26967  0.71159  1.0000
  H   H336      1.0  0.17307  0.24874  0.74669  1.0000
  H   H337      1.0  0.01850  0.32300  0.97886  1.0000
  H   H338      1.0  0.13024  0.33290  0.72179  1.0000
  H   H339      1.0  0.47305  0.29626  0.72805  1.0000
  H   H340      1.0  0.02600  0.44558  0.83372  1.0000
  C   C198      1.0  0.23137  0.43560  0.75946  1.0000
  H   H341      1.0  0.48651  0.26474  0.71122  1.0000
  H   H342      1.0  0.00986  0.27825  0.82767  1.0000
  H   H343      1.0  0.99489  0.37343  0.94465  1.0000
  H   H344      1.0  0.17196  0.02741  0.70738  1.0000
  H   H345      1.0  0.08701  0.34412  0.91254  1.0000
  S   S46       1.0  0.41567  0.31372  0.67657  1.0000
  S   S47       1.0  0.18045  0.07678  0.67287  1.0000
  H   H346      1.0  0.19998  0.42100  0.78975  1.0000
  H   H347      1.0  0.11510  0.32994  0.93311  1.0000
  H   H348      1.0  0.14412  0.37268  0.91531  1.0000
  H   H349      1.0  0.06455  0.24219  0.94929  1.0000
  C   C199      1.0  0.17091  0.33105  0.97882  1.0000
  H   H350      1.0  0.10922  0.31831  0.98145  1.0000
  H   H351      1.0  0.29491  0.45627  0.77909  1.0000
  C   C200      1.0  0.01414  0.42960  0.82102  1.0000
  H   H352      1.0  0.18545  0.29206  0.66874  1.0000
  H   H353      1.0  0.28253  0.27695  0.96770  1.0000
  H   H354      1.0  0.04773  0.27556  0.82947  1.0000
  C   C201      1.0  0.16123  0.27285  0.97469  1.0000
  C   C202      1.0  0.47787  0.27343  0.73123  1.0000
  H   H355      1.0  0.15976  0.33741  0.69780  1.0000
  H   H356      1.0  0.23163  0.45626  0.69621  1.0000
  H   H357      1.0  0.01261  0.32382  0.94129  1.0000
  H   H358      1.0  0.11979  0.37287  0.96177  1.0000
  H   H359      1.0  0.32147  0.47041  0.75501  1.0000
  H   H360      1.0  0.01089  0.22297  0.81616  1.0000
  H   H361      1.0  0.99332  0.33952  0.88866  1.0000
  C   C203      1.0  0.99379  0.24623  0.76986  1.0000
  H   H362      1.0  0.00465  0.24166  0.86499  1.0000
  H   H363      1.0  0.21929  0.45215  0.80087  1.0000
  H   H364      1.0  0.34122  0.25331  0.65769  1.0000
  C   C204      1.0  0.25598  0.00169  0.67392  1.0000
  S   S48       1.0  0.12334  0.20771  0.65767  1.0000
  H   H365      1.0  0.34774  0.99037  0.70362  1.0000
  C   C205      1.0  0.26082  0.02921  0.69133  1.0000
  H   H366      1.0  0.02680  0.27077  0.87647  1.0000
  H   H367      1.0  0.22734  0.47750  0.74079  1.0000
  C   C206      1.0  0.08781  0.32827  0.98316  1.0000
  H   H368      1.0  0.25312  0.40687  0.65572  1.0000
  C   C207      1.0  0.27991  0.24125  0.65744  1.0000
  C   C208      1.0  0.28571  0.27057  0.65660  1.0000
  H   H369      1.0  0.36891  0.27843  0.65928  1.0000
  H   H370      1.0  0.23358  0.00244  0.66609  1.0000
  C   C209      1.0  0.36451  0.25572  0.65464  1.0000
  C   C210      1.0  0.25990  0.05544  0.67228  1.0000
  H   H371      1.0  0.23962  0.05617  0.66016  1.0000
  H   H372      1.0  0.31327  0.99256  0.66371  1.0000
  H   H373      1.0  0.27800  0.05532  0.65720  1.0000
  H   H374      1.0  0.48820  0.27766  0.77529  1.0000
  H   H375      1.0  0.29899  0.48688  0.70566  1.0000
  Fe  Fe25      1.0  0.34894  0.81643  0.08577  1.0000
  S   S49       1.0  0.31207  0.84272  0.10149  1.0000
  S   S50       1.0  0.37277  0.82555  0.04423  1.0000
  Fe  Fe26      1.0  0.35488  0.78562  0.14408  1.0000
  S   S51       1.0  0.31952  0.81088  0.16331  1.0000
  S   S52       1.0  0.37557  0.74750  0.16567  1.0000
  Fe  Fe27      1.0  0.29696  0.80201  0.12227  1.0000
  S   S53       1.0  0.25107  0.78640  0.12343  1.0000
  Fe  Fe28      1.0  0.33803  0.84912  0.14108  1.0000
  S   S54       1.0  0.34911  0.89043  0.16447  1.0000
  S   S55       1.0  0.33171  0.77545  0.10345  1.0000
  S   S56       1.0  0.37551  0.82411  0.12491  1.0000
  Fe  Fe29      1.0  0.19246  0.62798  0.15550  1.0000
  S   S57       1.0  0.16996  0.63930  0.19595  1.0000
  S   S58       1.0  0.22104  0.65514  0.12755  1.0000
  Fe  Fe30      1.0  0.18142  0.56371  0.16325  1.0000
  S   S59       1.0  0.15975  0.57085  0.20487  1.0000
  S   S60       1.0  0.18788  0.52245  0.13842  1.0000
  Fe  Fe31      1.0  0.13687  0.60688  0.18305  1.0000
  S   S61       1.0  0.08928  0.60677  0.19375  1.0000
  Fe  Fe32      1.0  0.19440  0.60250  0.21420  1.0000
  S   S62       1.0  0.21552  0.60775  0.25724  1.0000
  S   S63       1.0  0.15741  0.59847  0.14088  1.0000
  S   S64       1.0  0.21805  0.59249  0.17447  1.0000
  S   S65       1.0  0.41073  0.64340  0.28457  1.0000
  S   S66       1.0  0.39462  0.72272  0.29729  1.0000
  S   S67       1.0  0.34829  0.59113  0.27773  1.0000
  C   C211      1.0  0.25276  0.60481  0.26188  1.0000
  C   C212      1.0  0.26504  0.61332  0.28763  1.0000
  C   C213      1.0  0.29446  0.61008  0.29244  1.0000
  C   C214      1.0  0.31174  0.59788  0.27168  1.0000
  C   C215      1.0  0.29948  0.58964  0.24583  1.0000
  C   C216      1.0  0.27020  0.59351  0.24079  1.0000
  H   H376      1.0  0.26090  0.70449  0.00291  1.0000
  H   H377      1.0  0.31277  0.58043  0.22958  1.0000
  H   H378      1.0  0.26100  0.58736  0.22080  1.0000
  C   C217      1.0  0.00899  0.64204  0.14957  1.0000
  C   C218      1.0  0.03611  0.64665  0.13776  1.0000
  C   C219      1.0  0.06089  0.63577  0.15074  1.0000
  C   C220      1.0  0.05882  0.62024  0.17585  1.0000
  C   C221      1.0  0.03167  0.61531  0.18749  1.0000
  C   C222      1.0  0.00686  0.62597  0.17435  1.0000
  H   H379      1.0  0.03799  0.65897  0.11854  1.0000
  H   H380      1.0  0.08158  0.63971  0.14150  1.0000
  H   H381      1.0  0.02980  0.60318  0.20683  1.0000
  H   H382      1.0  0.28845  0.68848  0.07288  1.0000
  C   C223      1.0  0.37877  0.74121  0.20255  1.0000
  C   C224      1.0  0.38487  0.71354  0.21172  1.0000
  C   C225      1.0  0.38926  0.70760  0.24057  1.0000
  C   C226      1.0  0.38801  0.72933  0.26074  1.0000
  C   C227      1.0  0.38172  0.75705  0.25158  1.0000
  C   C228      1.0  0.37689  0.76296  0.22266  1.0000
  H   H383      1.0  0.38634  0.69655  0.19637  1.0000
  H   H384      1.0  0.39360  0.68613  0.24703  1.0000
  H   H385      1.0  0.38063  0.77407  0.26692  1.0000
  H   H386      1.0  0.37235  0.78443  0.21588  1.0000
  C   C229      1.0  0.24336  0.74994  0.12890  1.0000
  C   C230      1.0  0.21501  0.74118  0.13275  1.0000
  C   C231      1.0  0.20804  0.71210  0.13468  1.0000
  C   C232      1.0  0.22934  0.69153  0.13205  1.0000
  C   C233      1.0  0.25773  0.70035  0.12879  1.0000
  C   C234      1.0  0.26478  0.72938  0.12793  1.0000
  H   H387      1.0  0.19827  0.75693  0.13359  1.0000
  H   H388      1.0  0.18602  0.70560  0.13663  1.0000
  H   H389      1.0  0.27435  0.68463  0.12647  1.0000
  H   H390      1.0  0.28677  0.73579  0.12575  1.0000
  C   C235      1.0  0.36617  0.81553  0.00835  1.0000
  H   H391      1.0  0.24676  0.73832  0.99513  1.0000
  H   H392      1.0  0.32178  0.80669  0.01374  1.0000
  H   H393      1.0  0.43933  0.88621  0.09221  1.0000
  C   C236      1.0  0.31223  0.96415  0.13647  1.0000
  C   C237      1.0  0.31860  0.93507  0.14002  1.0000
  C   C238      1.0  0.33970  0.92668  0.15922  1.0000
  C   C239      1.0  0.35409  0.94772  0.17489  1.0000
  H   H394      1.0  0.33995  0.67925  0.06950  1.0000
  C   C240      1.0  0.32315  0.90109  0.04910  1.0000
  H   H395      1.0  0.30717  0.91917  0.12796  1.0000
  H   H396      1.0  0.37041  0.94150  0.18985  1.0000
  C   C241      1.0  0.26504  0.97758  0.20680  1.0000
  H   H397      1.0  0.46751  0.77015  0.23671  1.0000
  C   C242      1.0  0.28877  0.73130  0.05445  1.0000
  H   H398      1.0  0.46842  0.62195  0.24104  1.0000
  C   C243      1.0  0.34465  0.92319  0.05935  1.0000
  H   H399      1.0  0.23677  0.70703  0.19895  1.0000
  H   H400      1.0  0.44322  0.72423  0.22123  1.0000
  C   C244      1.0  0.19642  0.69437  0.24068  1.0000
  C   C245      1.0  0.41209  0.90363  0.03979  1.0000
  H   H401      1.0  0.40534  0.94820  0.04627  1.0000
  H   H402      1.0  0.20808  0.98265  0.22176  1.0000
  H   H403      1.0  0.00581  0.74263  0.18080  1.0000
  C   C246      1.0  0.43533  0.90644  0.01739  1.0000
  N   N12       1.0  0.08352  0.52011  0.13885  1.0000
  C   C247      1.0  0.22505  0.68032  0.23443  1.0000
  H   H404      1.0  0.31429  0.75333  0.21349  1.0000
  C   C248      1.0  0.29291  0.73527  0.99315  1.0000
  C   C249      1.0  0.38846  0.81710  0.98849  1.0000
  H   H405      1.0  0.28747  0.74360  0.23804  1.0000
  H   H406      1.0  0.26379  0.66884  0.17907  1.0000
  C   C250      1.0  0.10881  0.51444  0.18735  1.0000
  H   H407      1.0  0.24982  0.75808  0.20134  1.0000
  H   H408      1.0  0.28450  0.71593  0.17930  1.0000
  C   C251      1.0  0.29246  0.74425  0.21513  1.0000
  C   C252      1.0  0.24588  0.70143  0.22008  1.0000
  H   H409      1.0  0.35354  0.68188  0.28101  1.0000
  C   C253      1.0  0.34779  0.97680  0.17128  1.0000
  H   H410      1.0  0.04078  0.73127  0.25551  1.0000
  H   H411      1.0  0.46295  0.79465  0.19097  1.0000
  H   H412      1.0  0.45251  0.73652  0.26967  1.0000
  H   H413      1.0  0.39149  0.90146  0.02844  1.0000
  H   H414      1.0  0.24506  0.72110  0.23302  1.0000
  H   H415      1.0  0.34256  0.50608  0.27129  1.0000
  C   C254      1.0  0.29245  0.71420  0.20133  1.0000
  H   H416      1.0  0.25171  0.62254  0.30383  1.0000
  N   N13       1.0  0.27625  0.69138  0.21698  1.0000
  H   H417      1.0  0.05739  0.57178  0.11876  1.0000
  H   H418      1.0  0.31922  0.66628  0.18164  1.0000
  H   H419      1.0  0.30015  0.75683  0.99879  1.0000
  H   H420      1.0  0.16780  0.49248  0.18923  1.0000
  S   S68       1.0  0.48323  0.60995  0.30152  1.0000
  C   C255      1.0  0.10657  0.54092  0.09350  1.0000
  C   C256      1.0  0.10546  0.52093  0.21885  1.0000
  C   C257      1.0  0.27234  0.76502  0.20026  1.0000
  H   H421      1.0  0.27410  0.78629  0.21026  1.0000
  H   H422      1.0  0.43399  0.93455  0.06631  1.0000
  H   H423      1.0  0.08582  0.54698  0.08409  1.0000
  C   C258      1.0  0.01146  0.74736  0.28626  1.0000
  H   H424      1.0  0.37217  0.96805  0.07566  1.0000
  C   C259      1.0  0.08251  0.52477  0.17043  1.0000
  H   H425      1.0  0.41441  0.97293  0.12508  1.0000
  H   H426      1.0  0.30881  0.91076  0.03310  1.0000
  H   H427      1.0  0.08019  0.54779  0.17523  1.0000
  H   H428      1.0  0.10166  0.56231  0.13413  1.0000
  H   H429      1.0  0.12691  0.53471  0.13384  1.0000
  H   H430      1.0  0.12834  0.52507  0.17967  1.0000
  C   C260      1.0  0.01349  0.55976  0.11696  1.0000
  H   H431      1.0  0.12261  0.58419  0.08973  1.0000
  H   H432      1.0  0.15007  0.55706  0.09146  1.0000
  H   H433      1.0  0.20482  0.52585  0.21055  1.0000
  H   H434      1.0  0.26022  0.54856  0.18938  1.0000
  H   H435      1.0  0.43416  0.76994  0.19591  1.0000
  H   H436      1.0  0.18653  0.70229  0.22081  1.0000
  N   N14       1.0  0.26099  0.73377  0.03851  1.0000
  C   C261      1.0  0.43239  0.87449  0.13538  1.0000
  C   C262      1.0  0.24866  0.76301  0.04338  1.0000
  C   C263      1.0  0.24037  0.71261  0.05120  1.0000
  Fe  Fe33      1.0  0.37679  0.61807  0.30623  1.0000
  H   H437      1.0  0.41573  0.88349  0.05125  1.0000
  H   H438      1.0  0.30022  0.68941  0.03671  1.0000
  C   C264      1.0  0.20916  0.71427  0.04054  1.0000
  C   C265      1.0  0.26775  0.78867  0.03575  1.0000
  C   C266      1.0  0.25365  0.81666  0.04422  1.0000
  C   C267      1.0  0.46681  0.72620  0.21983  1.0000
  H   H439      1.0  0.03826  0.51181  0.13779  1.0000
  C   C268      1.0  0.19165  0.68922  0.05156  1.0000
  H   H440      1.0  0.46300  0.61976  0.20339  1.0000
  H   H441      1.0  0.44450  0.68282  0.24868  1.0000
  H   H442      1.0  0.22874  0.76590  0.03096  1.0000
  H   H443      1.0  0.24253  0.76538  0.06604  1.0000
  N   N15       1.0  0.99827  0.71056  0.21280  1.0000
  H   H444      1.0  0.23434  0.52437  0.17632  1.0000
  C   C269      1.0  0.45750  0.77175  0.19261  1.0000
  C   C270      1.0  0.19715  0.52193  0.25484  1.0000
  H   H445      1.0  0.09704  0.71603  0.19272  1.0000
  H   H446      1.0  0.23971  0.71505  0.07460  1.0000
  C   C271      1.0  0.08027  0.70223  0.20194  1.0000
  H   H447      1.0  0.00378  0.75382  0.22801  1.0000
  H   H448      1.0  0.20821  0.71409  0.01708  1.0000
  H   H449      1.0  0.19875  0.73389  0.04845  1.0000
  C   C272      1.0  0.33919  0.80717  0.99894  1.0000
  H   H450      1.0  0.44125  0.85285  0.13233  1.0000
  H   H451      1.0  0.25021  0.81743  0.06746  1.0000
  H   H452      1.0  0.26773  0.83468  0.03833  1.0000
  H   H453      1.0  0.28214  0.97752  0.19048  1.0000
  H   H454      1.0  0.25003  0.53806  0.23728  1.0000
  H   H455      1.0  0.35557  0.93225  0.04063  1.0000
  H   H456      1.0  0.06327  0.51465  0.17979  1.0000
  H   H457      1.0  0.08678  0.50947  0.22763  1.0000
  H   H458      1.0  0.01727  0.70532  0.26993  1.0000
  H   H459      1.0  0.20038  0.66879  0.04365  1.0000
  H   H460      1.0  0.19173  0.68891  0.07509  1.0000
  H   H461      1.0  0.16925  0.69116  0.04422  1.0000
  C   C273      1.0  0.32079  0.68953  0.24986  1.0000
  C   C274      1.0  0.30443  0.65101  0.19169  1.0000
  C   C275      1.0  0.30035  0.62645  0.17087  1.0000
  H   H462      1.0  0.29588  0.97041  0.12157  1.0000
  H   H463      1.0  0.26335  0.64766  0.21007  1.0000
  H   H464      1.0  0.28299  0.66318  0.25249  1.0000
  H   H465      1.0  0.32633  0.71243  0.24925  1.0000
  H   H466      1.0  0.33328  0.67866  0.23328  1.0000
  H   H467      1.0  0.43462  0.88773  0.00305  1.0000
  H   H468      1.0  0.31443  0.64209  0.21103  1.0000
  H   H469      1.0  0.29087  0.63422  0.15074  1.0000
  H   H470      1.0  0.32129  0.61662  0.16613  1.0000
  H   H471      1.0  0.28620  0.60994  0.17999  1.0000
  H   H472      1.0  0.34565  0.71315  0.05274  1.0000
  C   C276      1.0  0.33183  0.70132  0.06772  1.0000
  H   H473      1.0  0.05303  0.51912  0.10431  1.0000
  C   C277      1.0  0.25698  0.52612  0.18271  1.0000
  H   H474      1.0  0.46243  0.67178  0.19956  1.0000
  H   H475      1.0  0.24762  0.69048  0.04718  1.0000
  H   H476      1.0  0.45670  0.90723  0.02750  1.0000
  H   H477      1.0  0.23288  0.81926  0.03325  1.0000
  H   H478      1.0  0.43564  0.63483  0.22539  1.0000
  C   C278      1.0  0.26996  0.95122  0.22586  1.0000
  H   H479      1.0  0.10264  0.54410  0.22234  1.0000
  H   H480      1.0  0.30994  0.89365  0.06706  1.0000
  H   H481      1.0  0.30977  0.72029  0.00007  1.0000
  C   C279      1.0  0.04321  0.55652  0.12976  1.0000
  C   C280      1.0  0.26829  0.92382  0.20855  1.0000
  H   H482      1.0  0.40502  0.87059  0.09933  1.0000
  H   H483      1.0  0.31909  0.68896  0.29597  1.0000
  C   C281      1.0  0.26402  0.72756  0.00723  1.0000
  H   H484      1.0  0.08113  0.68121  0.19125  1.0000
  C   C282      1.0  0.99807  0.73241  0.23630  1.0000
  C   C283      1.0  0.33047  0.67819  0.27842  1.0000
  H   H485      1.0  0.19917  0.71231  0.25570  1.0000
  C   C284      1.0  0.30102  0.70084  0.05723  1.0000
  H   H486      1.0  0.00628  0.58211  0.11939  1.0000
  H   H487      1.0  0.20344  0.50861  0.27320  1.0000
  H   H488      1.0  0.12954  0.56185  0.05962  1.0000
  C   C285      1.0  0.05419  0.52551  0.12695  1.0000
  H   H489      1.0  0.25366  0.94992  0.24275  1.0000
  H   H490      1.0  0.05098  0.73692  0.20835  1.0000
  C   C286      1.0  0.02688  0.69650  0.20889  1.0000
  H   H491      1.0  0.30808  0.49485  0.20116  1.0000
  C   C287      1.0  0.05106  0.71592  0.19772  1.0000
  H   H492      1.0  0.33415  0.88267  0.03927  1.0000
  H   H493      1.0  0.36727  0.95662  0.11111  1.0000
  H   H494      1.0  0.44949  0.88849  0.14378  1.0000
  H   H495      1.0  0.46313  0.76123  0.17234  1.0000
  C   C288      1.0  0.21279  0.51250  0.22812  1.0000
  H   H496      1.0  0.00105  0.65842  0.24474  1.0000
  H   H497      1.0  0.28477  0.92378  0.19172  1.0000
  H   H498      1.0  0.27218  0.90526  0.22252  1.0000
  H   H499      1.0  0.24693  0.92141  0.19868  1.0000
  H   H500      1.0  0.04179  0.56286  0.15231  1.0000
  H   H501      1.0  0.03434  0.68633  0.22869  1.0000
  H   H502      1.0  0.27111  0.78954  0.01258  1.0000
  C   C289      1.0  0.42114  0.88579  0.10717  1.0000
  C   C290      1.0  0.41164  0.92989  0.05983  1.0000
  H   H503      1.0  0.18184  0.67856  0.25039  1.0000
  H   H504      1.0  0.35476  0.90700  0.10096  1.0000
  H   H505      1.0  0.37168  0.88861  0.07358  1.0000
  H   H506      1.0  0.39498  0.91630  0.12978  1.0000
  H   H507      1.0  0.20188  0.54456  0.25962  1.0000
  H   H508      1.0  0.11290  0.51992  0.08498  1.0000
  H   H509      1.0  0.23376  0.67217  0.25470  1.0000
  H   H510      1.0  0.02670  0.74383  0.30392  1.0000
  H   H511      1.0  0.33244  0.94053  0.06971  1.0000
  C   C291      1.0  0.28832  0.68530  0.24599  1.0000
  C   C292      1.0  0.36633  0.91040  0.08069  1.0000
  C   C293      1.0  0.40884  0.91602  0.11064  1.0000
  C   C294      1.0  0.27547  0.66472  0.19918  1.0000
  H   H512      1.0  0.29145  0.95177  0.23565  1.0000
  C   C295      1.0  0.12858  0.56237  0.08309  1.0000
  H   H513      1.0  0.42762  0.92937  0.11590  1.0000
  C   C296      1.0  0.38320  0.95766  0.09375  1.0000
  C   C297      1.0  0.10515  0.54025  0.12636  1.0000
  H   H514      1.0  0.31515  0.70840  0.19852  1.0000
  H   H515      1.0  0.27817  0.69908  0.26227  1.0000
  H   H516      1.0  0.41489  0.87316  0.15114  1.0000
  N   N16       1.0  0.39277  0.92805  0.08568  1.0000
  H   H517      1.0  0.22082  0.66202  0.22032  1.0000
  H   H518      1.0  0.04822  0.71947  0.17462  1.0000
  H   H519      1.0  0.27835  0.76709  0.17769  1.0000
  H   H520      1.0  0.28848  0.78784  0.04696  1.0000
  H   H521      1.0  0.11186  0.49119  0.18535  1.0000
  H   H522      1.0  0.32699  0.65503  0.27955  1.0000
  H   H523      1.0  0.17382  0.51973  0.25162  1.0000
  C   C298      1.0  0.45903  0.63295  0.22245  1.0000
  H   H524      1.0  0.28617  0.73975  0.07621  1.0000
  H   H525      1.0  0.02500  0.67870  0.19355  1.0000
  H   H526      1.0  0.08487  0.69934  0.22482  1.0000
  H   H527      1.0  0.30555  0.74494  0.04509  1.0000
  C   C299      1.0  0.47404  0.72655  0.27110  1.0000
  H   H528      1.0  0.01375  0.55451  0.09405  1.0000
  H   H529      1.0  0.45358  0.69597  0.29924  1.0000
  H   H530      1.0  0.47288  0.71666  0.19919  1.0000
  C   C300      1.0  0.01837  0.72728  0.26179  1.0000
  H   H531      1.0  0.12480  0.51391  0.23043  1.0000
  H   H532      1.0  0.40940  0.82381  0.99537  1.0000
  H   H533      1.0  0.33313  0.71142  0.08894  1.0000
  H   H534      1.0  0.27698  0.56586  0.14298  1.0000
  H   H535      1.0  0.24501  0.97365  0.19498  1.0000
  C   C301      1.0  0.24546  0.51550  0.23184  1.0000
  H   H536      1.0  0.43207  0.92591  0.00453  1.0000
  H   H537      1.0  0.30380  0.61679  0.31223  1.0000
  N   N17       1.0  0.48071  0.71051  0.24414  1.0000
  H   H538      1.0  0.47587  0.66868  0.26340  1.0000
  C   C302      1.0  0.26947  0.54534  0.13405  1.0000
  H   H539      1.0  0.01318  0.76985  0.27937  1.0000
  H   H540      1.0  0.42520  0.97836  0.08879  1.0000
  C   C303      1.0  0.46783  0.68110  0.24512  1.0000
  C   C304      1.0  0.99059  0.72509  0.18529  1.0000
  C   C305      1.0  0.47246  0.66227  0.21857  1.0000
  C   C306      1.0  0.47308  0.70931  0.29905  1.0000
  C   C307      1.0  0.47372  0.75839  0.21733  1.0000
  H   H541      1.0  0.24652  0.54716  0.12856  1.0000
  C   C308      1.0  0.40684  0.97859  0.10352  1.0000
  H   H542      1.0  0.99252  0.70994  0.16721  1.0000
  H   H543      1.0  0.30274  0.53143  0.20806  1.0000
  H   H544      1.0  0.29524  0.52397  0.25841  1.0000
  C   C309      1.0  0.09233  0.49014  0.13172  1.0000
  H   H545      1.0  0.28149  0.54103  0.11431  1.0000
  H   H546      1.0  0.20685  0.49007  0.22404  1.0000
  H   H547      1.0  0.98956  0.74337  0.29424  1.0000
  H   H548      1.0  0.19435  0.98594  0.27264  1.0000
  H   H549      1.0  0.25076  0.50323  0.25114  1.0000
  H   H550      1.0  0.99802  0.54576  0.12797  1.0000
  C   C310      1.0  0.32685  0.98520  0.15196  1.0000
  H   H551      1.0  0.34467  0.52902  0.24098  1.0000
  C   C311      1.0  0.27424  0.52119  0.15513  1.0000
  C   C312      1.0  0.29507  0.50981  0.21403  1.0000
  C   C313      1.0  0.30429  0.50645  0.24544  1.0000
  H   H552      1.0  0.29745  0.51978  0.15924  1.0000
  Fe  Fe34      1.0  0.39942  0.67777  0.31504  1.0000
  N   N18       1.0  0.26364  0.50645  0.20707  1.0000
  H   H553      1.0  0.26722  0.50122  0.14470  1.0000
  C   C314      1.0  0.33665  0.50816  0.24862  1.0000
  H   H554      1.0  0.34714  0.49083  0.23659  1.0000
  Fe  Fe35      1.0  0.44132  0.62844  0.31785  1.0000
  H   H555      1.0  0.27788  0.96107  0.63240  1.0000
  H   H556      1.0  0.24930  0.65932  0.50258  1.0000
  H   H557      1.0  0.34494  0.76674  0.55246  1.0000
  Fe  Fe36      1.0  0.39696  0.63653  0.36555  1.0000
  S   S69       1.0  0.40828  0.59971  0.33699  1.0000
  S   S70       1.0  0.38809  0.62056  0.41069  1.0000
  H   H558      1.0  0.29721  0.64579  0.48266  1.0000
  H   H559      1.0  0.37087  0.54514  0.33487  1.0000
  C   C315      1.0  0.26993  0.74328  0.62402  1.0000
  S   S71       1.0  0.43211  0.66434  0.34794  1.0000
  S   S72       1.0  0.36349  0.65316  0.33547  1.0000
  Fe  Fe37      1.0  0.29983  0.66493  0.62163  1.0000
  S   S73       1.0  0.33992  0.68776  0.61001  1.0000
  H   H560      1.0  0.20478  0.59809  0.36980  1.0000
  Fe  Fe38      1.0  0.32852  0.60620  0.61665  1.0000
  S   S74       1.0  0.37099  0.62586  0.60534  1.0000
  S   S75       1.0  0.15828  0.86529  0.64904  1.0000
  H   H561      1.0  0.27994  0.55818  0.41238  1.0000
  Fe  Fe39      1.0  0.34600  0.65450  0.57615  1.0000
  S   S76       1.0  0.35718  0.67263  0.53232  1.0000
  S   S77       1.0  0.30402  0.63370  0.58585  1.0000
  C   C316      1.0  0.37942  0.63573  0.44423  1.0000
  C   C317      1.0  0.37711  0.66503  0.44853  1.0000
  C   C318      1.0  0.37012  0.67581  0.47554  1.0000
  C   C319      1.0  0.36543  0.65754  0.49868  1.0000
  C   C320      1.0  0.36752  0.62823  0.49434  1.0000
  C   C321      1.0  0.37455  0.61746  0.46734  1.0000
  H   H562      1.0  0.38109  0.67945  0.43117  1.0000
  H   H563      1.0  0.36874  0.69853  0.47864  1.0000
  H   H564      1.0  0.36413  0.61387  0.51188  1.0000
  H   H565      1.0  0.37666  0.59479  0.46444  1.0000
  C   C322      1.0  0.28877  0.63639  0.50251  1.0000
  H   H566      1.0  0.48598  0.64408  0.64525  1.0000
  H   H567      1.0  0.24293  0.69709  0.47678  1.0000
  H   H568      1.0  0.22643  0.68189  0.54050  1.0000
  H   H569      1.0  0.38163  0.54822  0.60843  1.0000
  C   C323      1.0  0.26221  0.77215  0.62286  1.0000
  C   C324      1.0  0.22448  0.73237  0.64522  1.0000
  H   H570      1.0  0.07395  0.90664  0.59975  1.0000
  H   H571      1.0  0.26019  0.64602  0.53641  1.0000
  H   H572      1.0  0.20673  0.75120  0.48143  1.0000
  H   H573      1.0  0.29051  0.73670  0.61634  1.0000
  C   C325      1.0  0.24330  0.57208  0.36988  1.0000
  H   H574      1.0  0.20245  0.69241  0.59810  1.0000
  H   H575      1.0  0.18112  0.69107  0.56617  1.0000
  C   C326      1.0  0.30855  0.74087  0.54057  1.0000
  C   C327      1.0  0.29258  0.57816  0.41240  1.0000
  C   C328      1.0  0.26779  0.65662  0.51680  1.0000
  C   C329      1.0  0.31832  0.66862  0.39920  1.0000
  H   H576      1.0  0.45269  0.74264  0.32383  1.0000
  H   H577      1.0  0.33063  0.55152  0.41537  1.0000
  C   C330      1.0  0.26396  0.59765  0.37371  1.0000
  Fe  Fe40      1.0  0.36103  0.65748  0.64017  1.0000
  H   H578      1.0  0.11202  0.97453  0.62204  1.0000
  H   H579      1.0  0.21883  0.59026  0.33497  1.0000
  H   H580      1.0  0.48649  0.55376  0.39377  1.0000
  S   S78       1.0  0.25756  0.68603  0.63244  1.0000
  H   H581      1.0  0.25231  0.55541  0.35596  1.0000
  H   H582      1.0  0.33880  0.55610  0.46619  1.0000
  H   H583      1.0  0.07518  0.98452  0.61625  1.0000
  N   N19       1.0  0.26342  0.70921  0.53480  1.0000
  H   H584      1.0  0.29643  0.57224  0.34081  1.0000
  H   H585      1.0  0.23037  0.91663  0.62531  1.0000
  H   H586      1.0  0.47096  0.71613  0.34444  1.0000
  C   C331      1.0  0.03620  0.84814  0.64751  1.0000
  C   C332      1.0  0.19367  0.70515  0.58034  1.0000
  S   S79       1.0  0.31820  0.55867  0.61270  1.0000
  H   H587      1.0  0.48015  0.59125  0.38993  1.0000
  C   C333      1.0  0.25074  0.72308  0.63442  1.0000
  H   H588      1.0  0.31405  0.68385  0.41663  1.0000
  H   H589      1.0  0.29818  0.67959  0.54096  1.0000
  C   C334      1.0  0.25237  0.92474  0.62220  1.0000
  C   C335      1.0  0.32776  0.52825  0.63296  1.0000
  H   H590      1.0  0.25341  0.61203  0.38906  1.0000
  H   H591      1.0  0.27979  0.64534  0.40515  1.0000
  H   H592      1.0  0.27679  0.78748  0.61389  1.0000
  H   H593      1.0  0.21374  0.70283  0.50109  1.0000
  H   H594      1.0  0.08234  0.84892  0.64780  1.0000
  H   H595      1.0  0.13928  0.91067  0.60174  1.0000
  H   H596      1.0  0.30934  0.62775  0.36108  1.0000
  C   C336      1.0  0.32167  0.50098  0.62226  1.0000
  H   H597      1.0  0.30687  0.63168  0.51694  1.0000
  H   H598      1.0  0.34167  0.66519  0.39798  1.0000
  C   C337      1.0  0.31084  0.61792  0.38244  1.0000
  H   H599      1.0  0.26453  0.60944  0.35327  1.0000
  C   C338      1.0  0.09279  0.98406  0.63186  1.0000
  H   H600      1.0  0.03459  0.85290  0.62518  1.0000
  H   H601      1.0  0.44274  0.55715  0.63014  1.0000
  C   C339      1.0  0.28133  0.72778  0.55393  1.0000
  C   C340      1.0  0.32150  0.57041  0.42606  1.0000
  H   H602      1.0  0.20772  0.73199  0.54658  1.0000
  H   H603      1.0  0.31091  0.67811  0.37897  1.0000
  H   H604      1.0  0.17921  0.72146  0.58936  1.0000
  C   C341      1.0  0.34775  0.54365  0.33958  1.0000
  H   H605      1.0  0.34388  0.52377  0.35159  1.0000
  C   C342      1.0  0.25303  0.72721  0.51053  1.0000
  H   H606      1.0  0.29986  0.54721  0.36861  1.0000
  N   N20       1.0  0.29395  0.59057  0.38305  1.0000
  H   H607      1.0  0.31290  0.77471  0.57191  1.0000
  H   H608      1.0  0.41414  0.53699  0.59184  1.0000
  H   H609      1.0  0.33310  0.74295  0.57975  1.0000
  H   H610      1.0  0.45549  0.66737  0.64865  1.0000
  C   C343      1.0  0.40379  0.54109  0.61255  1.0000
  H   H611      1.0  0.30928  0.63330  0.42633  1.0000
  H   H612      1.0  0.27790  0.61609  0.49736  1.0000
  C   C344      1.0  0.31799  0.56301  0.45735  1.0000
  H   H613      1.0  0.23826  0.56236  0.39066  1.0000
  H   H614      1.0  0.11785  0.90095  0.57162  1.0000
  C   C345      1.0  0.33854  0.56949  0.35689  1.0000
  H   H615      1.0  0.24801  0.68562  0.57085  1.0000
  H   H616      1.0  0.34427  0.58876  0.34458  1.0000
  C   C346      1.0  0.25655  0.95283  0.63790  1.0000
  H   H617      1.0  0.20439  0.72423  0.45449  1.0000
  H   H618      1.0  0.40325  0.52091  0.62472  1.0000
  H   H619      1.0  0.32262  0.72433  0.53154  1.0000
  H   H620      1.0  0.29511  0.69232  0.50588  1.0000
  H   H621      1.0  0.25564  0.92803  0.59918  1.0000
  C   C347      1.0  0.32583  0.75732  0.56260  1.0000
  H   H622      1.0  0.41958  0.58360  0.61554  1.0000
  C   C348      1.0  0.99398  0.95377  0.63192  1.0000
  H   H623      1.0  0.33689  0.58814  0.42474  1.0000
  H   H624      1.0  0.27125  0.73414  0.49720  1.0000
  H   H625      1.0  0.11793  0.87853  0.60243  1.0000
  H   H626      1.0  0.04843  0.94665  0.61622  1.0000
  C   C349      1.0  0.42030  0.56400  0.62862  1.0000
  H   H627      1.0  0.31082  0.58191  0.46945  1.0000
  H   H628      1.0  0.35109  0.56966  0.37674  1.0000
  H   H629      1.0  0.30292  0.75609  0.52356  1.0000
  H   H630      1.0  0.28812  0.71533  0.57283  1.0000
  H   H631      1.0  0.33384  0.61409  0.38571  1.0000
  H   H632      1.0  0.31115  0.49895  0.60197  1.0000
  S   S80       1.0  0.22557  0.81724  0.62824  1.0000
  C   C350      1.0  0.28227  0.68529  0.52440  1.0000
  H   H633      1.0  0.28096  0.59273  0.42690  1.0000
  C   C351      1.0  0.23567  0.78131  0.63303  1.0000
  S   S81       1.0  0.17539  0.94439  0.64331  1.0000
  H   H634      1.0  0.20051  0.56318  0.35471  1.0000
  C   C352      1.0  0.30286  0.64063  0.40490  1.0000
  H   H635      1.0  0.22794  0.73483  0.57881  1.0000
  C   C353      1.0  0.23924  0.69762  0.55244  1.0000
  H   H636      1.0  0.23614  0.74564  0.45729  1.0000
  C   C354      1.0  0.21766  0.71973  0.56402  1.0000
  H   H637      1.0  0.26783  0.90855  0.62972  1.0000
  C   C355      1.0  0.11878  0.90092  0.59509  1.0000
  H   H638      1.0  0.24348  0.74726  0.51866  1.0000
  C   C356      1.0  0.21904  0.73496  0.46957  1.0000
  H   H639      1.0  0.26884  0.74608  0.56199  1.0000
  C   C357      1.0  0.23171  0.71308  0.48988  1.0000
  H   H640      1.0  0.30243  0.54545  0.46012  1.0000
  C   C358      1.0  0.30594  0.56917  0.36223  1.0000
  C   C359      1.0  0.09365  0.91762  0.60695  1.0000
  H   H641      1.0  0.09144  0.89642  0.64649  1.0000
  C   C360      1.0  0.21519  0.58161  0.35655  1.0000
  H   H642      1.0  0.09399  0.93897  0.59727  1.0000
  C   C361      1.0  0.47195  0.72896  0.32477  1.0000
  C   C362      1.0  0.21708  0.76136  0.64484  1.0000
  H   H643      1.0  0.11642  0.92446  0.64673  1.0000
  H   H644      1.0  0.24047  0.96800  0.62952  1.0000
  H   H645      1.0  0.42262  0.62504  0.64964  1.0000
  H   H646      1.0  0.99857  0.96309  0.61083  1.0000
  C   C363      1.0  0.09443  0.91882  0.63985  1.0000
  H   H647      1.0  0.45282  0.60317  0.64589  1.0000
  H   H648      1.0  0.03765  0.91577  0.63475  1.0000
  C   C364      1.0  0.04529  0.93805  0.63781  1.0000
  H   H649      1.0  0.33601  0.54282  0.31916  1.0000
  C   C365      1.0  0.02034  0.95510  0.65093  1.0000
  C   C366      1.0  0.38320  0.58363  0.71600  1.0000
  S   S82       1.0  0.16185  0.89339  0.71293  1.0000
  C   C367      1.0  0.35793  0.59924  0.72905  1.0000
  H   H650      1.0  0.05312  0.90574  0.68097  1.0000
  S   S83       1.0  0.18227  0.82726  0.70215  1.0000
  Fe  Fe41      1.0  0.14341  0.85391  0.69274  1.0000
  S   S84       1.0  0.09927  0.83882  0.70679  1.0000
  Fe  Fe42      1.0  0.20181  0.86747  0.71905  1.0000
  S   S85       1.0  0.22450  0.86552  0.76175  1.0000
  S   S86       1.0  0.22021  0.88093  0.67739  1.0000
  Fe  Fe43      1.0  0.43368  0.79994  0.84270  1.0000
  S   S87       1.0  0.41266  0.76145  0.86249  1.0000
  S   S88       1.0  0.39449  0.67561  0.67044  1.0000
  Fe  Fe44      1.0  0.37774  0.81889  0.81463  1.0000
  S   S89       1.0  0.35365  0.78277  0.83346  1.0000
  S   S90       1.0  0.35742  0.84989  0.78361  1.0000
  Fe  Fe45      1.0  0.37724  0.79140  0.87424  1.0000
  S   S91       1.0  0.35009  0.79032  0.91491  1.0000
  Fe  Fe46      1.0  0.39088  0.75607  0.81999  1.0000
  S   S92       1.0  0.37701  0.71441  0.79902  1.0000
  S   S93       1.0  0.39869  0.83003  0.85603  1.0000
  S   S94       1.0  0.41453  0.79217  0.79949  1.0000
  H   H651      1.0  0.24861  0.83050  0.71366  1.0000
  C   C368      1.0  0.29702  0.53839  0.72789  1.0000
  H   H652      1.0  0.26695  0.85381  0.89798  1.0000
  H   H653      1.0  0.07000  0.98027  0.67170  1.0000
  C   C369      1.0  0.38224  0.70416  0.76317  1.0000
  C   C370      1.0  0.40527  0.71402  0.74718  1.0000
  C   C371      1.0  0.40879  0.70497  0.71892  1.0000
  C   C372      1.0  0.38909  0.68641  0.70613  1.0000
  C   C373      1.0  0.36620  0.67638  0.72221  1.0000
  C   C374      1.0  0.36303  0.68493  0.75064  1.0000
  H   H654      1.0  0.42044  0.72853  0.75663  1.0000
  H   H655      1.0  0.42671  0.71270  0.70680  1.0000
  H   H656      1.0  0.35093  0.66203  0.71273  1.0000
  H   H657      1.0  0.34531  0.67693  0.76288  1.0000
  H   H658      1.0  0.32757  0.75538  0.68025  1.0000
  C   C375      1.0  0.38408  0.80949  0.95985  1.0000
  C   C376      1.0  0.35717  0.80062  0.95059  1.0000
  C   C377      1.0  0.33470  0.79996  0.97026  1.0000
  H   H659      1.0  0.48439  0.66969  0.67361  1.0000
  H   H660      1.0  0.40161  0.81022  0.94504  1.0000
  H   H661      1.0  0.10143  0.90095  0.74383  1.0000
  C   C378      1.0  0.26148  0.85973  0.76642  1.0000
  C   C379      1.0  0.28156  0.87074  0.74754  1.0000
  C   C380      1.0  0.31087  0.86746  0.75303  1.0000
  C   C381      1.0  0.32038  0.85258  0.77702  1.0000
  C   C382      1.0  0.30032  0.84101  0.79552  1.0000
  C   C383      1.0  0.27101  0.84500  0.79051  1.0000
  H   H662      1.0  0.27449  0.88224  0.72901  1.0000
  H   H663      1.0  0.32630  0.87646  0.73861  1.0000
  H   H664      1.0  0.30750  0.82927  0.81380  1.0000
  H   H665      1.0  0.25561  0.83643  0.80521  1.0000
  C   C384      1.0  0.06574  0.84030  0.68921  1.0000
  C   C385      1.0  0.09225  0.91740  0.70188  1.0000
  H   H666      1.0  0.29902  0.69707  0.68842  1.0000
  H   H667      1.0  0.25874  0.52034  0.74494  1.0000
  C   C386      1.0  0.01365  0.83649  0.69190  1.0000
  C   C387      1.0  0.04075  0.83521  0.70483  1.0000
  H   H668      1.0  0.31367  0.79381  0.96322  1.0000
  H   H669      1.0  0.36090  0.97261  0.67252  1.0000
  H   H670      1.0  0.29526  0.79619  0.68385  1.0000
  H   H671      1.0  0.04237  0.83024  0.72712  1.0000
  H   H672      1.0  0.99467  0.83258  0.70424  1.0000
  H   H673      1.0  0.06724  0.89049  0.73013  1.0000
  H   H674      1.0  0.29099  0.50550  0.75865  1.0000
  N   N21       1.0  0.31264  0.77100  0.73625  1.0000
  C   C388      1.0  0.33896  0.78760  0.72817  1.0000
  C   C389      1.0  0.28615  0.78794  0.72936  1.0000
  C   C390      1.0  0.31356  0.76634  0.76788  1.0000
  C   C391      1.0  0.31172  0.74226  0.72230  1.0000
  H   H675      1.0  0.10732  0.93531  0.70450  1.0000
  C   C392      1.0  0.36792  0.77299  0.73375  1.0000
  C   C393      1.0  0.28628  0.75326  0.78133  1.0000
  C   C394      1.0  0.28712  0.80726  0.70280  1.0000
  C   C395      1.0  0.25766  0.81852  0.69561  1.0000
  Fe  Fe47      1.0  0.17867  0.90354  0.66957  1.0000
  C   C396      1.0  0.39266  0.79226  0.72520  1.0000
  C   C397      1.0  0.28871  0.75213  0.81351  1.0000
  H   H676      1.0  0.33909  0.80837  0.73945  1.0000
  H   H677      1.0  0.33903  0.79298  0.70536  1.0000
  H   H678      1.0  0.26739  0.77353  0.72732  1.0000
  H   H679      1.0  0.28097  0.80269  0.74705  1.0000
  H   H680      1.0  0.31807  0.78678  0.77887  1.0000
  H   H681      1.0  0.33128  0.75182  0.77375  1.0000
  H   H682      1.0  0.32995  0.72904  0.72942  1.0000
  H   H683      1.0  0.29249  0.73033  0.72905  1.0000
  H   H684      1.0  0.34585  0.58455  0.74293  1.0000
  H   H685      1.0  0.35989  0.50794  0.69444  1.0000
  H   H686      1.0  0.37078  0.76786  0.75644  1.0000
  H   H687      1.0  0.36959  0.75331  0.72101  1.0000
  H   H688      1.0  0.28297  0.73116  0.77390  1.0000
  H   H689      1.0  0.26695  0.76578  0.77628  1.0000
  H   H690      1.0  0.30114  0.82585  0.70686  1.0000
  H   H691      1.0  0.37482  0.56512  0.70424  1.0000
  H   H692      1.0  0.26343  0.49854  0.70005  1.0000
  C   C398      1.0  0.43831  0.61226  0.66196  1.0000
  C   C399      1.0  0.28038  0.51283  0.73909  1.0000
  H   H693      1.0  0.39653  0.57562  0.73371  1.0000
  H   H694      1.0  0.31223  0.73841  0.95157  1.0000
  C   C400      1.0  0.21917  0.94700  0.75563  1.0000
  H   H695      1.0  0.39163  0.79726  0.70226  1.0000
  H   H696      1.0  0.39222  0.81234  0.73757  1.0000
  H   H697      1.0  0.41315  0.78131  0.72956  1.0000
  H   H698      1.0  0.29096  0.77393  0.82220  1.0000
  H   H699      1.0  0.26920  0.74240  0.82253  1.0000
  H   H700      1.0  0.30734  0.73907  0.81994  1.0000
  C   C401      1.0  0.08478  0.96721  0.65875  1.0000
  H   H701      1.0  0.34336  0.60712  0.71226  1.0000
  H   H702      1.0  0.27860  0.77791  0.87226  1.0000
  C   C402      1.0  0.31062  0.74208  0.68972  1.0000
  H   H703      1.0  0.33637  0.70465  0.68183  1.0000
  C   C403      1.0  0.06629  0.92540  0.68318  1.0000
  C   C404      1.0  0.08271  0.90832  0.73145  1.0000
  C   C405      1.0  0.46823  0.55800  0.68216  1.0000
  H   H704      1.0  0.27551  0.74924  0.95263  1.0000
  H   H705      1.0  0.36546  0.61742  0.74208  1.0000
  C   C406      1.0  0.31480  0.97265  0.67609  1.0000
  H   H706      1.0  0.41114  0.61910  0.71145  1.0000
  C   C407      1.0  0.31428  0.71201  0.67839  1.0000
  H   H707      1.0  0.26257  0.94186  0.74282  1.0000
  H   H708      1.0  0.24307  0.80078  0.69014  1.0000
  H   H709      1.0  0.28340  0.87291  0.94927  1.0000
  H   H710      1.0  0.05338  0.94054  0.69588  1.0000
  H   H711      1.0  0.34492  0.55133  0.66805  1.0000
  H   H712      1.0  0.25937  0.83292  0.67715  1.0000
  H   H713      1.0  0.10393  0.89935  0.69238  1.0000
  H   H714      1.0  0.28467  0.71186  0.95408  1.0000
  C   C408      1.0  0.29106  0.73353  0.96090  1.0000
  H   H715      1.0  0.31949  0.53241  0.72367  1.0000
  N   N22       1.0  0.30948  0.87165  0.89382  1.0000
  C   C409      1.0  0.29841  0.89602  0.91141  1.0000
  C   C410      1.0  0.30906  0.87920  0.86267  1.0000
  C   C411      1.0  0.28960  0.84674  0.89848  1.0000
  C   C412      1.0  0.33888  0.86254  0.90305  1.0000
  C   C413      1.0  0.36259  0.88540  0.90272  1.0000
  H   H716      1.0  0.29689  0.55568  0.74388  1.0000
  C   C414      1.0  0.29183  0.82186  0.87698  1.0000
  C   C415      1.0  0.31623  0.91033  0.85453  1.0000
  C   C416      1.0  0.31991  0.91351  0.82257  1.0000
  C   C417      1.0  0.38843  0.87588  0.92006  1.0000
  H   H717      1.0  0.21994  0.92736  0.76858  1.0000
  C   C418      1.0  0.27658  0.79534  0.88792  1.0000
  C   C419      1.0  0.29760  0.89094  0.94385  1.0000
  H   H718      1.0  0.31104  0.91562  0.90811  1.0000
  H   H719      1.0  0.32364  0.86490  0.85067  1.0000
  H   H720      1.0  0.28742  0.87556  0.85360  1.0000
  H   H721      1.0  0.28943  0.74965  0.68250  1.0000
  H   H722      1.0  0.29303  0.83746  0.91991  1.0000
  H   H723      1.0  0.33817  0.85302  0.92458  1.0000
  H   H724      1.0  0.34672  0.84508  0.88937  1.0000
  H   H725      1.0  0.35556  0.90588  0.91177  1.0000
  H   H726      1.0  0.36984  0.88884  0.88063  1.0000
  C   C420      1.0  0.01120  0.84312  0.66316  1.0000
  H   H727      1.0  0.31923  0.88645  0.95224  1.0000
  H   H728      1.0  0.31421  0.81621  0.87245  1.0000
  H   H729      1.0  0.28153  0.82780  0.85670  1.0000
  H   H730      1.0  0.29849  0.92453  0.86097  1.0000
  H   H731      1.0  0.33595  0.91803  0.86479  1.0000
  H   H732      1.0  0.33868  0.90120  0.81530  1.0000
  H   H733      1.0  0.30062  0.90595  0.81114  1.0000
  H   H734      1.0  0.32347  0.93618  0.81717  1.0000
  H   H735      1.0  0.38278  0.87403  0.94280  1.0000
  H   H736      1.0  0.39637  0.85499  0.91258  1.0000
  H   H737      1.0  0.40590  0.89165  0.91791  1.0000
  H   H738      1.0  0.07273  0.92637  0.74282  1.0000
  H   H739      1.0  0.28727  0.54656  0.70805  1.0000
  H   H740      1.0  0.30052  0.93565  0.95570  1.0000
  H   H741      1.0  0.28632  0.78803  0.90808  1.0000
  H   H742      1.0  0.23668  0.92689  0.71903  1.0000
  H   H743      1.0  0.21993  0.97855  0.70884  1.0000
  H   H744      1.0  0.48022  0.57287  0.66847  1.0000
  C   C421      1.0  0.24171  0.94558  0.73239  1.0000
  H   H745      1.0  0.27646  0.90164  0.90432  1.0000
  C   C422      1.0  0.24222  0.97361  0.71502  1.0000
  H   H746      1.0  0.31029  0.71198  0.65541  1.0000
  H   H747      1.0  0.25361  0.79975  0.89132  1.0000
  H   H748      1.0  0.19653  0.76813  0.65265  1.0000
  C   C423      1.0  0.34450  0.97184  0.68941  1.0000
  H   H749      1.0  0.34753  0.95194  0.70168  1.0000
  H   H750      1.0  0.26446  0.92230  0.95218  1.0000
  N   N23       1.0  0.07285  0.93774  0.65436  1.0000
  Fe  Fe48      1.0  0.19867  0.84187  0.65999  1.0000
  C   C424      1.0  0.47159  0.65479  0.66051  1.0000
  C   C425      1.0  0.40691  0.56974  0.65811  1.0000
  H   H751      1.0  0.45100  0.58631  0.71435  1.0000
  C   C426      1.0  0.34924  0.50590  0.67424  1.0000
  C   C427      1.0  0.34114  0.53053  0.65927  1.0000
  S   S95       1.0  0.47836  0.81335  0.85715  1.0000
  C   C428      1.0  0.27793  0.48919  0.71626  1.0000
  C   C429      1.0  0.45695  0.63306  0.67962  1.0000
  H   H752      1.0  0.47389  0.62149  0.69123  1.0000
  H   H753      1.0  0.31323  0.95409  0.66172  1.0000
  H   H754      1.0  0.44417  0.64524  0.69509  1.0000
  C   C430      1.0  0.28637  0.91709  0.95939  1.0000
  H   H755      1.0  0.01400  0.94623  0.67172  1.0000
  H   H756      1.0  0.38611  0.61633  0.68352  1.0000
  H   H757      1.0  0.40292  0.54878  0.66828  1.0000
  H   H758      1.0  0.29452  0.94983  0.70941  1.0000
  C   C431      1.0  0.44279  0.57259  0.69695  1.0000
  H   H759      1.0  0.46047  0.53985  0.66931  1.0000
  C   C432      1.0  0.40106  0.60363  0.69680  1.0000
  S   S96       1.0  0.32054  0.63573  0.65342  1.0000
  H   H760      1.0  0.43105  0.55518  0.70778  1.0000
  H   H761      1.0  0.28574  0.91280  0.98249  1.0000
  N   N24       1.0  0.42291  0.58926  0.67819  1.0000
  C   C433      1.0  0.06331  0.84631  0.66033  1.0000
  H   H762      1.0  0.47838  0.53039  0.71787  1.0000
  H   H763      1.0  0.16926  0.97566  0.69674  1.0000
  H   H764      1.0  0.10477  0.96628  0.67135  1.0000
  H   H765      1.0  0.38538  0.57851  0.65324  1.0000
  H   H766      1.0  0.22305  0.96543  0.76980  1.0000
  H   H767      1.0  0.02619  0.97777  0.65361  1.0000
  C   C434      1.0  0.29147  0.97083  0.69905  1.0000
  H   H768      1.0  0.19753  0.94873  0.74620  1.0000
  N   N25       1.0  0.26107  0.97392  0.68914  1.0000
  H   H769      1.0  0.22943  0.94444  0.67290  1.0000
  H   H770      1.0  0.26382  0.92951  0.67703  1.0000
  C   C435      1.0  0.25254  0.94921  0.67037  1.0000
  H   H771      1.0  0.20948  0.71698  0.65341  1.0000
  H   H772      1.0  0.29643  0.98667  0.71583  1.0000
  C   C436      1.0  0.17571  0.98108  0.65206  1.0000
  C   C437      1.0  0.75874  0.29416  0.99176  1.0000
  H   H773      1.0  0.74128  0.16723  0.27973  1.0000
  H   H774      1.0  0.76877  0.23604  0.98851  1.0000
  Fe  Fe49      1.0  0.82621  0.08913  0.28768  1.0000
  S   S97       1.0  0.80684  0.08918  0.24363  1.0000
  H   H775      1.0  0.69371  0.11213  0.29046  1.0000
  H   H776      1.0  0.66035  0.41606  0.26179  1.0000
  C   C438      1.0  0.73473  0.20613  0.03869  1.0000
  Fe  Fe50      1.0  0.65656  0.14884  0.12781  1.0000
  S   S98       1.0  0.63038  0.11412  0.14809  1.0000
  S   S99       1.0  0.68287  0.14175  0.08743  1.0000
  Fe  Fe51      1.0  0.64834  0.18867  0.17971  1.0000
  S   S100      1.0  0.62141  0.15694  0.20267  1.0000
  S   S101      1.0  0.66385  0.23027  0.19911  1.0000
  Fe  Fe52      1.0  0.65427  0.12507  0.18833  1.0000
  S   S102      1.0  0.67287  0.09472  0.22125  1.0000
  Fe  Fe53      1.0  0.59983  0.14908  0.16055  1.0000
  S   S103      1.0  0.55173  0.15273  0.15134  1.0000
  S   S104      1.0  0.68208  0.15732  0.16746  1.0000
  S   S105      1.0  0.62520  0.18340  0.13820  1.0000
  H   H777      1.0  0.59645  0.15656  0.29618  1.0000
  H   H778      1.0  0.66574  0.17869  0.26493  1.0000
  H   H779      1.0  0.83182  0.20766  0.30121  1.0000
  H   H780      1.0  0.66651  0.14148  0.26202  1.0000
  C   C439      1.0  0.65469  0.24158  0.23364  1.0000
  C   C440      1.0  0.63016  0.23175  0.24719  1.0000
  C   C441      1.0  0.62292  0.24207  0.27423  1.0000
  C   C442      1.0  0.67433  0.33008  0.20179  1.0000
  C   C443      1.0  0.66489  0.27183  0.27455  1.0000
  C   C444      1.0  0.67196  0.26171  0.24741  1.0000
  H   H781      1.0  0.61657  0.21661  0.23655  1.0000
  C   C445      1.0  0.51944  0.20730  0.28610  1.0000
  H   H782      1.0  0.71669  0.33021  0.28575  1.0000
  H   H783      1.0  0.69100  0.26936  0.23705  1.0000
  C   C446      1.0  0.51825  0.11179  0.17834  1.0000
  C   C447      1.0  0.51915  0.13568  0.16082  1.0000
  H   H784      1.0  0.93681  0.15533  0.26770  1.0000
  H   H785      1.0  0.53794  0.10227  0.18546  1.0000
  C   C448      1.0  0.84283  0.01383  0.25244  1.0000
  C   C449      1.0  0.64262  0.15794  0.29791  1.0000
  C   C450      1.0  0.63924  0.15878  0.01436  1.0000
  C   C451      1.0  0.64626  0.15614  0.04327  1.0000
  C   C452      1.0  0.67264  0.14502  0.05132  1.0000
  C   C453      1.0  0.69180  0.13639  0.03007  1.0000
  C   C454      1.0  0.68459  0.13868  0.00113  1.0000
  H   H786      1.0  0.61878  0.16752  0.00843  1.0000
  H   H787      1.0  0.63128  0.16277  0.05933  1.0000
  H   H788      1.0  0.71216  0.12751  0.03610  1.0000
  C   C455      1.0  0.76954  0.09053  0.23788  1.0000
  C   C456      1.0  0.75027  0.07802  0.25669  1.0000
  C   C457      1.0  0.72082  0.07847  0.25078  1.0000
  C   C458      1.0  0.71024  0.09240  0.22662  1.0000
  C   C459      1.0  0.72957  0.10461  0.20773  1.0000
  C   C460      1.0  0.75906  0.10328  0.21313  1.0000
  H   H789      1.0  0.75810  0.06765  0.27553  1.0000
  H   H790      1.0  0.70609  0.06836  0.26517  1.0000
  H   H791      1.0  0.72190  0.11483  0.18874  1.0000
  H   H792      1.0  0.77380  0.11256  0.19818  1.0000
  H   H793      1.0  0.70295  0.23443  0.02143  1.0000
  H   H794      1.0  0.70120  0.20078  0.07015  1.0000
  H   H795      1.0  0.66888  0.46163  0.23864  1.0000
  C   C461      1.0  0.70006  0.12917  0.30557  1.0000
  C   C462      1.0  0.51886  0.16826  0.23426  1.0000
  C   C463      1.0  0.67005  0.36552  0.28831  1.0000
  N   N26       1.0  0.51570  0.20001  0.23158  1.0000
  H   H796      1.0  0.64857  0.05083  0.04015  1.0000
  H   H797      1.0  0.79101  0.02068  0.23546  1.0000
  H   H798      1.0  0.66641  0.38280  0.22674  1.0000
  H   H799      1.0  0.83745  0.02118  0.23076  1.0000
  H   H800      1.0  0.92244  0.18373  0.24659  1.0000
  H   H801      1.0  0.65475  0.08764  0.03140  1.0000
  H   H802      1.0  0.83515  0.02982  0.26786  1.0000
  H   H803      1.0  0.63095  0.37352  0.26325  1.0000
  H   H804      1.0  0.65302  0.33475  0.24146  1.0000
  H   H805      1.0  0.71690  0.01524  0.20941  1.0000
  C   C464      1.0  0.61472  0.15741  0.28133  1.0000
  N   N27       1.0  0.72645  0.21744  0.98559  1.0000
  H   H806      1.0  0.74725  0.03186  0.31614  1.0000
  C   C465      1.0  0.75994  0.34341  0.29002  1.0000
  H   H807      1.0  0.51575  0.22982  0.19645  1.0000
  H   H808      1.0  0.50648  0.16019  0.25262  1.0000
  H   H809      1.0  0.69596  0.33198  0.19251  1.0000
  H   H810      1.0  0.88461  0.03313  0.24811  1.0000
  C   C466      1.0  0.94038  0.16850  0.24851  1.0000
  H   H811      1.0  0.70286  0.37396  0.22375  1.0000
  H   H812      1.0  0.75432  0.31280  0.00545  1.0000
  H   H813      1.0  0.75779  0.34953  0.31265  1.0000
  C   C467      1.0  0.52754  0.21057  0.20364  1.0000
  H   H814      1.0  0.59675  0.35563  0.29908  1.0000
  C   C468      1.0  0.78395  0.99814  0.23698  1.0000
  H   H815      1.0  0.76108  0.18827  0.99425  1.0000
  H   H816      1.0  0.78170  0.28877  0.99365  1.0000
  C   C469      1.0  0.74048  0.01327  0.20889  1.0000
  H   H817      1.0  0.67274  0.34216  0.28768  1.0000
  C   C470      1.0  0.71514  0.17979  0.24367  1.0000
  C   C471      1.0  0.74211  0.18462  0.22632  1.0000
  H   H818      1.0  0.94031  0.15451  0.22958  1.0000
  H   H819      1.0  0.67843  0.28720  0.28496  1.0000
  H   H820      1.0  0.70466  0.47548  0.23731  1.0000
  H   H821      1.0  0.69919  0.16953  0.22954  1.0000
  H   H822      1.0  0.70676  0.20084  0.24979  1.0000
  H   H823      1.0  0.75099  0.16408  0.21896  1.0000
  H   H824      1.0  0.73688  0.19769  0.20744  1.0000
  N   N28       1.0  0.68886  0.38018  0.26690  1.0000
  C   C472      1.0  0.70205  0.43146  0.25082  1.0000
  H   H825      1.0  0.69645  0.19832  0.01467  1.0000
  H   H826      1.0  0.60383  0.23449  0.28449  1.0000
  C   C473      1.0  0.53689  0.22278  0.30872  1.0000
  H   H827      1.0  0.73937  0.18301  0.03736  1.0000
  H   H828      1.0  0.75839  0.19600  0.23908  1.0000
  C   C474      1.0  0.61956  0.34957  0.30020  1.0000
  C   C475      1.0  0.67474  0.33850  0.23302  1.0000
  C   C476      1.0  0.72095  0.16034  0.26960  1.0000
  H   H829      1.0  0.72344  0.43318  0.26078  1.0000
  H   H830      1.0  0.86272  0.19758  0.28111  1.0000
  H   H831      1.0  0.71900  0.23487  0.07135  1.0000
  C   C477      1.0  0.71961  0.37605  0.27535  1.0000
  H   H832      1.0  0.57151  0.11692  0.24445  1.0000
  H   H833      1.0  0.74341  0.01361  0.25387  1.0000
  H   H834      1.0  0.68457  0.03539  0.00610  1.0000
  H   H835      1.0  0.52605  0.23896  0.25345  1.0000
  H   H836      1.0  0.49361  0.16574  0.13756  1.0000
  C   C478      1.0  0.73111  0.34527  0.27505  1.0000
  H   H837      1.0  0.74495  0.26475  0.02354  1.0000
  C   C479      1.0  0.54956  0.15658  0.23582  1.0000
  C   C480      1.0  0.66474  0.06630  0.03261  1.0000
  H   H838      1.0  0.72329  0.38523  0.29680  1.0000
  C   C481      1.0  0.55950  0.21923  0.20281  1.0000
  C   C482      1.0  0.56856  0.22860  0.17321  1.0000
  C   C483      1.0  0.54999  0.12624  0.24736  1.0000
  H   H839      1.0  0.75514  0.21789  0.03693  1.0000
  C   C484      1.0  0.64033  0.26201  0.28813  1.0000
  C   C485      1.0  0.96853  0.18470  0.25083  1.0000
  H   H840      1.0  0.55292  0.21295  0.25597  1.0000
  H   H841      1.0  0.68232  0.06725  0.04836  1.0000
  H   H842      1.0  0.77574  0.35757  0.27970  1.0000
  H   H843      1.0  0.85996  0.23327  0.29479  1.0000
  H   H844      1.0  0.73660  0.20349  0.08454  1.0000
  H   H845      1.0  0.65925  0.34366  0.18975  1.0000
  H   H846      1.0  0.50911  0.15745  0.21575  1.0000
  H   H847      1.0  0.56358  0.16941  0.24955  1.0000
  H   H848      1.0  0.55870  0.15611  0.21420  1.0000
  H   H849      1.0  0.96660  0.19910  0.26932  1.0000
  H   H850      1.0  0.67659  0.37150  0.31022  1.0000
  H   H851      1.0  0.67813  0.21408  0.29150  1.0000
  C   C486      1.0  0.72204  0.21174  0.06791  1.0000
  H   H852      1.0  0.56360  0.23763  0.21696  1.0000
  H   H853      1.0  0.57342  0.20150  0.20935  1.0000
  H   H854      1.0  0.56523  0.21131  0.15761  1.0000
  H   H855      1.0  0.55629  0.24754  0.16639  1.0000
  H   H856      1.0  0.59158  0.23413  0.17336  1.0000
  H   H857      1.0  0.53438  0.11261  0.23607  1.0000
  C   C487      1.0  0.65839  0.15030  0.99314  1.0000
  H   H858      1.0  0.62219  0.32870  0.28955  1.0000
  S   S106      1.0  0.87029  0.07242  0.29645  1.0000
  H   H859      1.0  0.74606  0.11992  0.30079  1.0000
  C   C488      1.0  0.52948  0.21566  0.25597  1.0000
  H   H860      1.0  0.72560  0.13919  0.26022  1.0000
  C   C489      1.0  0.71371  0.21462  0.01479  1.0000
  C   C490      1.0  0.66858  0.15912  0.27765  1.0000
  H   H861      1.0  0.68755  0.47055  0.27097  1.0000
  C   C491      1.0  0.67642  0.05730  0.00377  1.0000
  C   C492      1.0  0.49323  0.14738  0.15130  1.0000
  H   H862      1.0  0.76794  0.32124  0.28911  1.0000
  H   H863      1.0  0.55963  0.21638  0.30764  1.0000
  H   H864      1.0  0.63310  0.05024  0.98910  1.0000
  H   H865      1.0  0.74957  0.03492  0.20620  1.0000
  H   H866      1.0  0.61268  0.17677  0.26819  1.0000
  H   H867      1.0  0.68931  0.32383  0.24407  1.0000
  H   H868      1.0  0.73406  0.38784  0.26095  1.0000
  H   H869      1.0  0.53534  0.24617  0.30597  1.0000
  N   N29       1.0  0.69761  0.15789  0.29154  1.0000
  H   H870      1.0  0.73421  0.33816  0.25286  1.0000
  C   C493      1.0  0.68994  0.46156  0.24937  1.0000
  H   H871      1.0  0.68407  0.41910  0.29087  1.0000
  H   H872      1.0  0.70449  0.42346  0.22889  1.0000
  C   C494      1.0  0.68261  0.41165  0.26858  1.0000
  C   C495      1.0  0.63776  0.37214  0.28569  1.0000
  H   H873      1.0  0.74646  0.99999  0.19041  1.0000
  H   H874      1.0  0.61391  0.13840  0.26742  1.0000
  H   H875      1.0  0.66730  0.30761  0.19971  1.0000
  H   H876      1.0  0.78775  0.02281  0.28452  1.0000
  H   H877      1.0  0.69434  0.07182  0.99866  1.0000
  C   C496      1.0  0.68361  0.37009  0.23694  1.0000
  H   H878      1.0  0.54479  0.12620  0.27027  1.0000
  C   C497      1.0  0.85522  0.21059  0.29924  1.0000
  H   H879      1.0  0.49681  0.21314  0.28942  1.0000
  H   H880      1.0  0.97105  0.19757  0.23135  1.0000
  H   H881      1.0  0.52203  0.18421  0.28986  1.0000
  H   H882      1.0  0.71772  0.27575  0.99952  1.0000
  H   H883      1.0  0.71636  0.21827  0.29277  1.0000
  H   H884      1.0  0.63315  0.39289  0.29596  1.0000
  C   C498      1.0  0.75104  0.99983  0.23643  1.0000
  C   C499      1.0  0.74022  0.26908  0.00093  1.0000
  H   H885      1.0  0.52407  0.19445  0.18674  1.0000
  C   C500      1.0  0.87532  0.01231  0.25418  1.0000
  C   C501      1.0  0.49178  0.10035  0.18689  1.0000
  H   H886      1.0  0.67220  0.24510  0.98933  1.0000
  H   H887      1.0  0.64228  0.17691  0.31186  1.0000
  S   S107      1.0  0.83468  0.12946  0.31148  1.0000
  H   H888      1.0  0.64280  0.13859  0.31119  1.0000
  C   C502      1.0  0.79000  0.99976  0.28922  1.0000
  C   C503      1.0  0.69730  0.21120  0.30475  1.0000
  C   C504      1.0  0.70110  0.18013  0.31420  1.0000
  H   H889      1.0  0.49140  0.08209  0.20076  1.0000
  H   H890      1.0  0.80781  0.99872  0.30481  1.0000
  H   H891      1.0  0.88222  0.00725  0.27611  1.0000
  H   H892      1.0  0.72128  0.07571  0.31767  1.0000
  C   C505      1.0  0.76294  0.98981  0.30546  1.0000
  H   H893      1.0  0.88368  0.99591  0.23950  1.0000
  C   C506      1.0  0.72976  0.12123  0.31770  1.0000
  H   H894      1.0  0.79117  0.98757  0.21713  1.0000
  S   S108      1.0  0.86539  0.00559  0.34069  1.0000
  Fe  Fe54      1.0  0.81682  0.10617  0.34858  1.0000
  S   S109      1.0  0.78449  0.12746  0.37765  1.0000
  S   S110      1.0  0.85940  0.08898  0.36294  1.0000
  C   C507      1.0  0.70529  0.47224  0.33357  1.0000
  N   N30       1.0  0.72018  0.38222  0.62988  1.0000
  S   S111      1.0  0.67074  0.30834  0.58805  1.0000
  C   C508      1.0  0.75324  0.01188  0.32703  1.0000
  H   H895      1.0  0.79349  0.39645  0.58177  1.0000
  Fe  Fe55      1.0  0.67005  0.31000  0.41575  1.0000
  S   S112      1.0  0.71514  0.32492  0.40869  1.0000
  S   S113      1.0  0.64269  0.30968  0.45588  1.0000
  Fe  Fe56      1.0  0.66200  0.29477  0.35286  1.0000
  S   S114      1.0  0.70596  0.30928  0.34167  1.0000
  Fe  Fe57      1.0  0.71967  0.28609  0.38090  1.0000
  S   S115      1.0  0.76041  0.26013  0.37648  1.0000
  Fe  Fe58      1.0  0.69773  0.34687  0.36988  1.0000
  S   S116      1.0  0.71660  0.38959  0.35649  1.0000
  S   S117      1.0  0.67601  0.26952  0.39083  1.0000
  S   S118      1.0  0.65236  0.33414  0.37831  1.0000
  C   C509      1.0  0.70002  0.42252  0.34830  1.0000
  H   H896      1.0  0.68511  0.12749  0.32367  1.0000
  H   H897      1.0  0.71213  0.22772  0.34529  1.0000
  C   C510      1.0  0.72846  0.09247  0.33258  1.0000
  C   C511      1.0  0.67040  0.42561  0.34701  1.0000
  H   H898      1.0  0.96234  0.20951  0.38437  1.0000
  C   C512      1.0  0.66215  0.31118  0.55155  1.0000
  C   C513      1.0  0.63413  0.30985  0.54162  1.0000
  C   C514      1.0  0.62862  0.31003  0.51227  1.0000
  C   C515      1.0  0.65094  0.31202  0.49254  1.0000
  C   C516      1.0  0.67892  0.31435  0.50253  1.0000
  C   C517      1.0  0.68447  0.31364  0.53186  1.0000
  H   H899      1.0  0.61674  0.30811  0.55650  1.0000
  H   H900      1.0  0.60688  0.30837  0.50479  1.0000
  H   H901      1.0  0.69628  0.31618  0.48765  1.0000
  H   H902      1.0  0.70623  0.31479  0.53933  1.0000
  H   H903      1.0  0.73479  0.15693  0.50275  1.0000
  C   C518      1.0  0.77479  0.16376  0.37463  1.0000
  C   C519      1.0  0.75682  0.17580  0.39513  1.0000
  C   C520      1.0  0.75052  0.20506  0.39476  1.0000
  C   C521      1.0  0.76225  0.22261  0.37394  1.0000
  C   C522      1.0  0.77910  0.21034  0.35271  1.0000
  C   C523      1.0  0.78519  0.18105  0.35290  1.0000
  H   H904      1.0  0.74847  0.16258  0.41190  1.0000
  H   H905      1.0  0.73769  0.21424  0.41130  1.0000
  H   H906      1.0  0.78801  0.22373  0.33637  1.0000
  H   H907      1.0  0.79864  0.17210  0.33672  1.0000
  H   H908      1.0  0.77277  0.42742  0.57201  1.0000
  H   H909      1.0  0.91288  0.22068  0.36361  1.0000
  H   H910      1.0  0.74025  0.44381  0.34238  1.0000
  C   C524      1.0  0.67572  0.47526  0.33196  1.0000
  H   H911      1.0  0.71365  0.09334  0.35085  1.0000
  H   H912      1.0  0.67380  0.22620  0.34142  1.0000
  H   H913      1.0  0.73829  0.42139  0.61362  1.0000
  C   C525      1.0  0.71513  0.14643  0.49481  1.0000
  C   C526      1.0  0.95177  0.19774  0.40182  1.0000
  H   H914      1.0  0.60165  0.20753  0.43466  1.0000
  C   C527      1.0  0.85689  0.18151  0.38797  1.0000
  H   H915      1.0  0.88465  0.15926  0.41772  1.0000
  H   H916      1.0  0.86524  0.17828  0.32927  1.0000
  H   H917      1.0  0.66240  0.40546  0.61649  1.0000
  H   H918      1.0  0.81994  0.15403  0.42621  1.0000
  H   H919      1.0  0.73707  0.13693  0.33355  1.0000
  H   H920      1.0  0.64366  0.36929  0.58283  1.0000
  C   C528      1.0  0.71732  0.44597  0.34151  1.0000
  H   H921      1.0  0.60483  0.46379  0.39259  1.0000
  H   H922      1.0  0.83932  0.28186  0.42254  1.0000
  H   H923      1.0  0.87296  0.22749  0.42304  1.0000
  H   H924      1.0  0.69959  0.42107  0.64350  1.0000
  H   H925      1.0  0.65681  0.40777  0.35208  1.0000
  C   C529      1.0  0.86467  0.23237  0.40166  1.0000
  N   N31       1.0  0.87161  0.20912  0.38074  1.0000
  C   C530      1.0  0.69418  0.23059  0.33036  1.0000
  H   H926      1.0  0.76468  0.34088  0.61476  1.0000
  C   C531      1.0  0.84191  0.14538  0.42490  1.0000
  H   H927      1.0  0.95176  0.17468  0.39671  1.0000
  C   C532      1.0  0.74748  0.38991  0.58226  1.0000
  C   C533      1.0  0.61045  0.48671  0.39317  1.0000
  H   H928      1.0  0.77036  0.01638  0.34261  1.0000
  H   H929      1.0  0.86279  0.16457  0.37267  1.0000
  C   C534      1.0  0.96216  0.10539  0.32518  1.0000
  S   S119      1.0  0.60569  0.28158  0.64143  1.0000
  S   S120      1.0  0.91499  0.14120  0.32706  1.0000
  H   H930      1.0  0.72919  0.39710  0.56921  1.0000
  C   C535      1.0  0.83255  0.23946  0.40515  1.0000
  C   C536      1.0  0.86308  0.16890  0.41757  1.0000
  H   H931      1.0  0.86745  0.24113  0.34795  1.0000
  H   H932      1.0  0.92252  0.23121  0.41200  1.0000
  Fe  Fe59      1.0  0.87702  0.11049  0.32422  1.0000
  C   C537      1.0  0.65838  0.45175  0.33859  1.0000
  H   H933      1.0  0.64395  0.40443  0.56773  1.0000
  H   H934      1.0  0.73435  0.00382  0.33864  1.0000
  H   H935      1.0  0.82010  0.22040  0.41129  1.0000
  H   H936      1.0  0.60634  0.24210  0.41890  1.0000
  H   H937      1.0  0.68124  0.35866  0.62339  1.0000
  H   H938      1.0  0.74985  0.08682  0.34074  1.0000
  H   H939      1.0  0.83543  0.25410  0.44888  1.0000
  C   C538      1.0  0.73228  0.35625  0.64424  1.0000
  Fe  Fe60      1.0  0.85008  0.05144  0.33442  1.0000
  C   C539      1.0  0.82792  0.26192  0.42800  1.0000
  C   C540      1.0  0.69556  0.37312  0.61140  1.0000
  H   H940      1.0  0.68972  0.41534  0.59174  1.0000
  C   C541      1.0  0.65765  0.38683  0.57541  1.0000
  H   H941      1.0  0.82359  0.24814  0.38523  1.0000
  H   H942      1.0  0.62567  0.34746  0.32279  1.0000
  C   C542      1.0  0.95189  0.13290  0.32951  1.0000
  C   C543      1.0  0.74294  0.39818  0.61379  1.0000
  H   H943      1.0  0.70461  0.13500  0.51251  1.0000
  H   H944      1.0  0.84750  0.13590  0.44568  1.0000
  C   C544      1.0  0.86080  0.21879  0.35215  1.0000
  H   H945      1.0  0.84240  0.12835  0.40869  1.0000
  H   H946      1.0  0.83718  0.21884  0.35180  1.0000
  H   H947      1.0  0.86156  0.18493  0.43460  1.0000
  H   H948      1.0  0.67074  0.37906  0.55745  1.0000
  H   H949      1.0  0.91213  0.19673  0.42415  1.0000
  S   S121      1.0  0.63050  0.27423  0.32222  1.0000
  H   H950      1.0  0.80480  0.26675  0.42959  1.0000
  N   N32       1.0  0.66899  0.21618  0.49376  1.0000
  C   C545      1.0  0.65122  0.20890  0.46802  1.0000
  C   C546      1.0  0.68488  0.19023  0.50428  1.0000
  C   C547      1.0  0.64877  0.22561  0.51681  1.0000
  C   C548      1.0  0.68929  0.24030  0.48810  1.0000
  C   C549      1.0  0.71090  0.23589  0.46389  1.0000
  C   C550      1.0  0.63463  0.23378  0.45421  1.0000
  C   C551      1.0  0.66233  0.23155  0.54630  1.0000
  C   C552      1.0  0.69494  0.16829  0.48184  1.0000
  C   C553      1.0  0.92133  0.20839  0.40608  1.0000
  C   C554      1.0  0.72715  0.26333  0.45782  1.0000
  C   C555      1.0  0.61767  0.22373  0.42844  1.0000
  C   C556      1.0  0.63942  0.23630  0.56876  1.0000
  H   H951      1.0  0.63561  0.19191  0.47346  1.0000
  H   H952      1.0  0.66447  0.19993  0.45083  1.0000
  H   H953      1.0  0.70383  0.19681  0.51696  1.0000
  H   H954      1.0  0.67128  0.17772  0.51909  1.0000
  H   H955      1.0  0.63161  0.20947  0.51970  1.0000
  H   H956      1.0  0.63784  0.24569  0.51086  1.0000
  H   H957      1.0  0.67720  0.26003  0.48370  1.0000
  H   H958      1.0  0.70215  0.24521  0.50727  1.0000
  H   H959      1.0  0.70020  0.22942  0.44399  1.0000
  H   H960      1.0  0.72687  0.21970  0.47003  1.0000
  H   H961      1.0  0.61933  0.24362  0.46908  1.0000
  H   H962      1.0  0.64962  0.25026  0.44667  1.0000
  H   H963      1.0  0.67566  0.25101  0.54555  1.0000
  H   H964      1.0  0.67585  0.21376  0.55371  1.0000
  H   H965      1.0  0.67624  0.15658  0.47326  1.0000
  H   H966      1.0  0.70607  0.17837  0.46385  1.0000
  H   H967      1.0  0.83348  0.18368  0.38551  1.0000
  Fe  Fe61      1.0  0.64337  0.30839  0.62816  1.0000
  H   H968      1.0  0.74259  0.25987  0.44039  1.0000
  H   H969      1.0  0.71208  0.28023  0.45124  1.0000
  H   H970      1.0  0.73900  0.27054  0.47688  1.0000
  H   H971      1.0  0.90823  0.18373  0.36938  1.0000
  H   H972      1.0  0.63548  0.45378  0.33723  1.0000
  H   H973      1.0  0.72132  0.13064  0.47847  1.0000
  H   H974      1.0  0.62680  0.21663  0.57208  1.0000
  H   H975      1.0  0.64963  0.24227  0.58915  1.0000
  H   H976      1.0  0.62489  0.25375  0.56244  1.0000
  H   H977      1.0  0.80856  0.99021  0.36169  1.0000
  H   H978      1.0  0.74950  0.36673  0.57920  1.0000
  C   C557      1.0  0.90349  0.20498  0.37859  1.0000
  H   H979      1.0  0.87576  0.25235  0.39539  1.0000
  H   H980      1.0  0.96379  0.17614  0.33884  1.0000
  H   H981      1.0  0.76378  0.39618  0.62495  1.0000
  H   H982      1.0  0.72967  0.32590  0.60847  1.0000
  C   C558      1.0  0.97149  0.15478  0.33548  1.0000
  S   S122      1.0  0.80585  0.06652  0.32399  1.0000
  H   H983      1.0  0.63211  0.21470  0.41216  1.0000
  S   S123      1.0  0.62710  0.34787  0.64973  1.0000
  H   H984      1.0  0.72278  0.17919  0.32366  1.0000
  H   H985      1.0  0.77651  0.39827  0.54759  1.0000
  C   C559      1.0  0.67665  0.39736  0.59956  1.0000
  C   C560      1.0  0.77423  0.40394  0.57029  1.0000
  H   H986      1.0  0.70291  0.36017  0.59327  1.0000
  C   C561      1.0  0.74494  0.33295  0.62492  1.0000
  C   C562      1.0  0.87031  0.20093  0.32624  1.0000
  H   H987      1.0  0.89359  0.20290  0.32263  1.0000
  H   H988      1.0  0.68638  0.17583  0.33213  1.0000
  H   H989      1.0  0.76276  0.29054  0.62797  1.0000
  H   H990      1.0  0.96431  0.20097  0.42151  1.0000
  C   C563      1.0  0.75320  0.30673  0.64214  1.0000
  H   H991      1.0  0.94740  0.08834  0.32055  1.0000
  H   H992      1.0  0.69412  0.25294  0.32329  1.0000
  H   H993      1.0  0.52871  0.21726  0.33006  1.0000
  Fe  Fe62      1.0  0.67248  0.15286  0.91519  1.0000
  S   S124      1.0  0.71421  0.13233  0.90456  1.0000
  S   S125      1.0  0.64829  0.15456  0.95713  1.0000
  Fe  Fe63      1.0  0.66294  0.17297  0.85404  1.0000
  S   S126      1.0  0.70342  0.15302  0.83870  1.0000
  S   S127      1.0  0.63359  0.20346  0.83060  1.0000
  Fe  Fe64      1.0  0.69189  0.11530  0.86588  1.0000
  S   S128      1.0  0.70699  0.07116  0.85257  1.0000
  Fe  Fe65      1.0  0.72305  0.17103  0.87806  1.0000
  S   S129      1.0  0.76728  0.18920  0.87183  1.0000
  S   S130      1.0  0.64928  0.13376  0.87785  1.0000
  S   S131      1.0  0.68341  0.19323  0.89207  1.0000
  Fe  Fe66      1.0  0.88330  0.35647  0.82232  1.0000
  S   S132      1.0  0.86597  0.36911  0.86485  1.0000
  S   S133      1.0  0.92899  0.35042  0.80631  1.0000
  Fe  Fe67      1.0  0.82442  0.36274  0.79418  1.0000
  S   S134      1.0  0.80339  0.37762  0.83412  1.0000
  S   S135      1.0  0.80404  0.35277  0.75169  1.0000
  Fe  Fe68      1.0  0.84293  0.40386  0.84140  1.0000
  S   S136      1.0  0.84483  0.44656  0.86420  1.0000
  Fe  Fe69      1.0  0.82779  0.34205  0.85459  1.0000
  S   S137      1.0  0.80218  0.31844  0.88781  1.0000
  S   S138      1.0  0.86171  0.39240  0.79938  1.0000
  S   S139      1.0  0.84709  0.32586  0.81420  1.0000
  Fe  Fe70      1.0  0.63163  0.27211  0.68070  1.0000
  S   S140      1.0  0.61458  0.30872  0.70559  1.0000
  S   S141      1.0  0.63976  0.22816  0.69845  1.0000
  Fe  Fe71      1.0  0.65134  0.33327  0.68803  1.0000
  S   S142      1.0  0.67449  0.36433  0.71673  1.0000
  H   H994      1.0  0.62819  0.00169  0.86027  1.0000
  H   H995      1.0  0.71847  0.04557  0.96769  1.0000
  H   H996      1.0  0.81399  0.45411  0.76468  1.0000
  H   H997      1.0  0.59271  0.10710  0.90642  1.0000
  C   C564      1.0  0.78294  0.44438  0.79762  1.0000
  C   C565      1.0  0.93120  0.44416  0.77469  1.0000
  H   H998      1.0  0.78130  0.43793  0.75193  1.0000
  H   H999      1.0  0.61566  0.03815  0.94132  1.0000
  C   C566      1.0  0.76691  0.35290  0.74575  1.0000
  C   C567      1.0  0.75533  0.33464  0.72521  1.0000
  C   C568      1.0  0.72645  0.33660  0.71746  1.0000
  C   C569      1.0  0.70928  0.35769  0.72935  1.0000
  C   C570      1.0  0.72062  0.37534  0.75050  1.0000
  C   C571      1.0  0.74921  0.37264  0.75904  1.0000
  H   H1000     1.0  0.76889  0.31919  0.71499  1.0000
  H   H1001     1.0  0.71778  0.32242  0.70168  1.0000
  H   H1002     1.0  0.70739  0.39155  0.75987  1.0000
  H   H1003     1.0  0.75790  0.38658  0.77497  1.0000
  C   C572      1.0  0.96227  0.34623  0.82374  1.0000
  C   C573      1.0  0.96473  0.34479  0.85320  1.0000
  H   H1004     1.0  0.66647  0.26529  0.87805  1.0000
  H   H1005     1.0  0.94585  0.34651  0.86618  1.0000
  H   H1006     1.0  0.68523  0.29594  0.86484  1.0000
  H   H1007     1.0  0.79945  0.44279  0.81436  1.0000
  H   H1008     1.0  0.78643  0.47123  0.90366  1.0000
  C   C574      1.0  0.71680  0.43329  0.69548  1.0000
  C   C575      1.0  0.63557  0.20981  0.79382  1.0000
  C   C576      1.0  0.62091  0.23313  0.78236  1.0000
  C   C577      1.0  0.62227  0.23912  0.75322  1.0000
  C   C578      1.0  0.63815  0.22168  0.73526  1.0000
  C   C579      1.0  0.65248  0.19813  0.74666  1.0000
  C   C580      1.0  0.65132  0.19228  0.77586  1.0000
  H   H1009     1.0  0.60867  0.24671  0.79615  1.0000
  H   H1010     1.0  0.61086  0.25703  0.74458  1.0000
  H   H1011     1.0  0.66449  0.18430  0.73285  1.0000
  H   H1012     1.0  0.66216  0.17395  0.78442  1.0000
  C   C581      1.0  0.77613  0.22533  0.87603  1.0000
  C   C582      1.0  0.80113  0.23568  0.86346  1.0000
  C   C583      1.0  0.80906  0.26432  0.86650  1.0000
  C   C584      1.0  0.79226  0.28268  0.88259  1.0000
  C   C585      1.0  0.76752  0.27220  0.89565  1.0000
  C   C586      1.0  0.75930  0.24366  0.89213  1.0000
  H   H1013     1.0  0.81436  0.22149  0.85119  1.0000
  H   H1014     1.0  0.82833  0.27211  0.85667  1.0000
  H   H1015     1.0  0.75461  0.28629  0.90835  1.0000
  H   H1016     1.0  0.74019  0.23572  0.90203  1.0000
  C   C587      1.0  0.69087  0.03704  0.85071  1.0000
  C   C588      1.0  0.66199  0.03265  0.85642  1.0000
  C   C589      1.0  0.66403  0.01540  0.95515  1.0000
  C   C590      1.0  0.70788  0.01354  0.84354  1.0000
  H   H1017     1.0  0.64857  0.05058  0.86137  1.0000
  H   H1018     1.0  0.73022  0.01672  0.83894  1.0000
  H   H1019     1.0  0.93454  0.25083  0.77108  1.0000
  H   H1020     1.0  0.79323  0.16369  0.96159  1.0000
  C   C591      1.0  0.55116  0.33319  0.75299  1.0000
  C   C592      1.0  0.68553  0.43201  0.80443  1.0000
  C   C593      1.0  0.54434  0.24204  0.71996  1.0000
  H   H1021     1.0  0.56439  0.32885  0.73415  1.0000
  H   H1022     1.0  0.56406  0.32900  0.77220  1.0000
  H   H1023     1.0  0.66358  0.24225  0.92513  1.0000
  H   H1024     1.0  0.49966  0.37609  0.68690  1.0000
  C   C594      1.0  0.55795  0.23625  0.69121  1.0000
  N   N33       1.0  0.93676  0.45992  0.82714  1.0000
  H   H1025     1.0  0.68527  0.08468  0.94457  1.0000
  H   H1026     1.0  0.64054  0.09705  0.92637  1.0000
  H   H1027     1.0  0.69195  0.26462  0.96273  1.0000
  H   H1028     1.0  0.61007  0.07948  0.88653  1.0000
  H   H1029     1.0  0.76265  0.14198  0.95242  1.0000
  H   H1030     1.0  0.56919  0.28111  0.77300  1.0000
  H   H1031     1.0  0.56363  0.28301  0.72424  1.0000
  H   H1032     1.0  0.64619  0.00595  0.96752  1.0000
  C   C595      1.0  0.63379  0.05132  0.93356  1.0000
  C   C596      1.0  0.54411  0.36486  0.75258  1.0000
  H   H1033     1.0  0.76704  0.42749  0.80143  1.0000
  H   H1034     1.0  0.93858  0.40735  0.85759  1.0000
  H   H1035     1.0  0.69011  0.19920  0.96424  1.0000
  H   H1036     1.0  0.75970  0.05855  0.93841  1.0000
  H   H1037     1.0  0.64477  0.22087  0.95087  1.0000
  C   C597      1.0  0.53776  0.28397  0.80668  1.0000
  C   C598      1.0  0.75540  0.18765  0.94924  1.0000
  C   C599      1.0  0.92246  0.44031  0.80612  1.0000
  H   H1038     1.0  0.55246  0.28162  0.85023  1.0000
  H   H1039     1.0  0.64419  0.99586  0.91774  1.0000
  H   H1040     1.0  0.69439  0.41158  0.81225  1.0000
  H   H1041     1.0  0.67054  0.44070  0.82039  1.0000
  N   N34       1.0  0.65977  0.04704  0.95204  1.0000
  H   H1042     1.0  0.84380  0.47115  0.80714  1.0000
  H   H1043     1.0  0.74802  0.24909  0.96020  1.0000
  H   H1044     1.0  0.69028  0.39067  0.66374  1.0000
  H   H1045     1.0  0.76822  0.20659  0.94348  1.0000
  H   H1046     1.0  0.71116  0.22168  0.94248  1.0000
  H   H1047     1.0  0.56416  0.37740  0.75276  1.0000
  H   H1048     1.0  0.51205  0.32147  0.73281  1.0000
  C   C600      1.0  0.94597  0.27134  0.76849  1.0000
  H   H1049     1.0  0.53212  0.37036  0.73304  1.0000
  H   H1050     1.0  0.56031  0.21301  0.68802  1.0000
  C   C601      1.0  0.72997  0.41103  0.67594  1.0000
  C   C602      1.0  0.51153  0.33464  0.67157  1.0000
  C   C603      1.0  0.68128  0.24422  0.96776  1.0000
  H   H1051     1.0  0.97487  0.34933  0.96654  1.0000
  H   H1052     1.0  0.73823  0.18494  0.93333  1.0000
  H   H1053     1.0  0.98546  0.34565  0.78444  1.0000
  H   H1054     1.0  0.73690  0.47209  0.88232  1.0000
  H   H1055     1.0  0.73226  0.43899  0.71237  1.0000
  Fe  Fe72      1.0  0.59106  0.32042  0.66577  1.0000
  H   H1056     1.0  0.58221  0.07059  0.91148  1.0000
  H   H1057     1.0  0.52328  0.23139  0.72009  1.0000
  N   N35       1.0  0.72218  0.25700  0.79517  1.0000
  C   C604      1.0  0.74870  0.27027  0.78297  1.0000
  C   C605      1.0  0.69724  0.26600  0.77712  1.0000
  C   C606      1.0  0.71883  0.26680  0.82535  1.0000
  C   C607      1.0  0.72382  0.22498  0.79511  1.0000
  C   C608      1.0  0.73211  0.21112  0.76653  1.0000
  C   C609      1.0  0.77704  0.26183  0.79748  1.0000
  C   C610      1.0  0.69089  0.25726  0.84014  1.0000
  C   C611      1.0  0.68869  0.29777  0.77948  1.0000
  C   C612      1.0  0.66284  0.30423  0.76111  1.0000
  C   C613      1.0  0.73342  0.17881  0.76910  1.0000
  C   C614      1.0  0.80259  0.27215  0.78041  1.0000
  C   C615      1.0  0.68664  0.27265  0.86824  1.0000
  H   H1058     1.0  0.74764  0.29383  0.78444  1.0000
  H   H1059     1.0  0.75031  0.26587  0.75989  1.0000
  H   H1060     1.0  0.70165  0.26179  0.75436  1.0000
  H   H1061     1.0  0.67816  0.25286  0.78177  1.0000
  H   H1062     1.0  0.72097  0.29030  0.82686  1.0000
  H   H1063     1.0  0.73654  0.25849  0.83861  1.0000
  H   H1064     1.0  0.73884  0.21723  0.81170  1.0000
  H   H1065     1.0  0.70290  0.21569  0.80125  1.0000
  H   H1066     1.0  0.75342  0.21833  0.75946  1.0000
  H   H1067     1.0  0.71626  0.21641  0.74989  1.0000
  H   H1068     1.0  0.77820  0.27197  0.81860  1.0000
  H   H1069     1.0  0.77921  0.23856  0.80007  1.0000
  H   H1070     1.0  0.69165  0.23411  0.84443  1.0000
  H   H1071     1.0  0.67174  0.26149  0.82711  1.0000
  H   H1072     1.0  0.68294  0.30365  0.80144  1.0000
  H   H1073     1.0  0.70629  0.31177  0.77245  1.0000
  H   H1074     1.0  0.66747  0.29917  0.73863  1.0000
  H   H1075     1.0  0.64414  0.29187  0.76836  1.0000
  H   H1076     1.0  0.65747  0.32711  0.76282  1.0000
  H   H1077     1.0  0.71230  0.17005  0.77492  1.0000
  H   H1078     1.0  0.73978  0.16943  0.74851  1.0000
  H   H1079     1.0  0.74929  0.17244  0.78539  1.0000
  H   H1080     1.0  0.80302  0.26183  0.75929  1.0000
  H   H1081     1.0  0.80169  0.29554  0.77763  1.0000
  H   H1082     1.0  0.82257  0.26675  0.79182  1.0000
  H   H1083     1.0  0.70442  0.26804  0.88298  1.0000
  C   C616      1.0  0.91711  0.41783  0.89621  1.0000
  H   H1084     1.0  0.94258  0.46194  0.87263  1.0000
  S   S143      1.0  0.67011  0.29593  0.66584  1.0000
  C   C617      1.0  0.92137  0.42176  0.86440  1.0000
  H   H1085     1.0  0.98175  0.42319  0.85192  1.0000
  H   H1086     1.0  0.55806  0.23193  0.73622  1.0000
  H   H1087     1.0  0.69731  0.42470  0.70570  1.0000
  H   H1088     1.0  0.92647  0.41765  0.81113  1.0000
  H   H1089     1.0  0.92309  0.42553  0.73342  1.0000
  H   H1090     1.0  0.75402  0.30010  0.96947  1.0000
  C   C618      1.0  0.74661  0.24236  0.98278  1.0000
  H   H1091     1.0  0.94803  0.27632  0.74562  1.0000
  C   C619      1.0  0.65616  0.24128  0.94735  1.0000
  C   C620      1.0  0.84390  0.48185  0.85137  1.0000
  H   H1092     1.0  0.72312  0.44363  0.78181  1.0000
  N   N36       1.0  0.75047  0.48119  0.82260  1.0000
  H   H1093     1.0  0.54808  0.25048  0.77776  1.0000
  C   C621      1.0  0.54685  0.27406  0.77674  1.0000
  H   H1094     1.0  0.73665  0.07203  0.91113  1.0000
  C   C622      1.0  0.70257  0.21937  0.96422  1.0000
  H   H1095     1.0  0.51702  0.27440  0.81262  1.0000
  C   C623      1.0  0.73870  0.06857  0.93430  1.0000
  H   H1096     1.0  0.61230  0.08908  0.95082  1.0000
  C   C624      1.0  0.68499  0.06180  0.93853  1.0000
  H   H1097     1.0  0.71757  0.02847  0.93396  1.0000
  C   C625      1.0  0.62279  0.08224  0.93091  1.0000
  H   H1098     1.0  0.80740  0.41680  0.77010  1.0000
  H   H1099     1.0  0.73524  0.43920  0.83410  1.0000
  C   C626      1.0  0.54167  0.27445  0.72529  1.0000
  H   H1100     1.0  0.89851  0.43039  0.90356  1.0000
  C   C627      1.0  0.52364  0.31496  0.75232  1.0000
  H   H1101     1.0  0.50143  0.24605  0.76010  1.0000
  C   C628      1.0  0.96880  0.45879  0.82504  1.0000
  H   H1102     1.0  0.97599  0.46762  0.80441  1.0000
  H   H1103     1.0  0.93645  0.42452  0.90803  1.0000
  H   H1104     1.0  0.71127  0.46690  0.84186  1.0000
  C   C629      1.0  0.79727  0.43808  0.76931  1.0000
  H   H1105     1.0  0.92602  0.46574  0.76689  1.0000
  H   H1106     1.0  0.89889  0.44279  0.80758  1.0000
  H   H1107     1.0  0.58065  0.28484  0.82462  1.0000
  H   H1108     1.0  0.73639  0.39300  0.68957  1.0000
  C   C630      1.0  0.60058  0.08488  0.90736  1.0000
  C   C631      1.0  0.65049  0.00494  0.85555  1.0000
  H   H1109     1.0  0.90159  0.41490  0.85356  1.0000
  H   H1110     1.0  0.91303  0.39509  0.90089  1.0000
  H   H1111     1.0  0.53057  0.28415  0.70694  1.0000
  H   H1112     1.0  0.77751  0.45922  0.85264  1.0000
  H   H1113     1.0  0.50972  0.32183  0.77009  1.0000
  C   C632      1.0  0.55964  0.27485  0.82890  1.0000
  H   H1114     1.0  0.71549  0.34619  0.65756  1.0000
  H   H1115     1.0  0.53129  0.37079  0.77139  1.0000
  H   H1116     1.0  0.64089  0.25892  0.95082  1.0000
  H   H1117     1.0  0.63812  0.04386  0.91166  1.0000
  H   H1118     1.0  0.56215  0.25137  0.82899  1.0000
  H   H1119     1.0  0.97224  0.41253  0.81637  1.0000
  C   C633      1.0  0.70948  0.45316  0.79843  1.0000
  C   C634      1.0  0.49906  0.26924  0.75615  1.0000
  C   C635      1.0  0.91555  0.42312  0.75554  1.0000
  C   C636      1.0  0.92708  0.45331  0.85695  1.0000
  H   H1120     1.0  0.68295  0.06188  0.91500  1.0000
  N   N37       1.0  0.52779  0.28317  0.75267  1.0000
  C   C637      1.0  0.49197  0.35538  0.68054  1.0000
  C   C638      1.0  0.71494  0.04917  0.94486  1.0000
  H   H1121     1.0  0.53580  0.30740  0.80790  1.0000
  C   C639      1.0  0.97525  0.27016  0.78261  1.0000
  H   H1122     1.0  0.73808  0.08930  0.94550  1.0000
  H   H1123     1.0  0.78281  0.15950  0.92517  1.0000
  H   H1124     1.0  0.67912  0.00983  0.91112  1.0000
  C   C640      1.0  0.98269  0.42924  0.82925  1.0000
  C   C641      1.0  0.76927  0.47438  0.79766  1.0000
  H   H1125     1.0  0.51594  0.29201  0.65584  1.0000
  H   H1126     1.0  0.89227  0.42723  0.75592  1.0000
  H   H1127     1.0  0.97870  0.47287  0.84119  1.0000
  H   H1128     1.0  0.93303  0.28834  0.77854  1.0000
  H   H1129     1.0  0.98311  0.22602  0.77584  1.0000
  C   C642      1.0  0.72685  0.45965  0.82567  1.0000
  H   H1130     1.0  0.91969  0.40091  0.76237  1.0000
  C   C643      1.0  0.77468  0.16159  0.94712  1.0000
  H   H1131     1.0  0.90647  0.46418  0.86154  1.0000
  H   H1132     1.0  0.71126  0.45278  0.68345  1.0000
  H   H1133     1.0  0.54458  0.24498  0.67386  1.0000
  H   H1134     1.0  0.67344  0.42771  0.78464  1.0000
  H   H1135     1.0  0.57946  0.24601  0.69019  1.0000
  H   H1136     1.0  0.74940  0.42033  0.66634  1.0000
  C   C644      1.0  0.98709  0.34413  0.80722  1.0000
  H   H1137     1.0  0.95434  0.44034  0.77195  1.0000
  C   C645      1.0  0.50121  0.30805  0.66313  1.0000
  C   C646      1.0  0.74277  0.19049  0.97943  1.0000
  C   C647      1.0  0.76838  0.48074  0.84909  1.0000
  H   H1138     1.0  0.74993  0.36208  0.65883  1.0000
  H   H1139     1.0  0.68337  0.01052  0.96768  1.0000
  H   H1140     1.0  0.64919  0.08294  0.97885  1.0000
  C   C648      1.0  0.65316  0.05970  0.98067  1.0000
  H   H1141     1.0  0.98517  0.29127  0.77983  1.0000
  S   S144      1.0  0.54845  0.34312  0.67222  1.0000
  H   H1142     1.0  0.97154  0.26610  0.80541  1.0000
  C   C649      1.0  0.66585  0.99857  0.92692  1.0000
  H   H1143     1.0  0.72903  0.17162  0.98309  1.0000
  H   H1144     1.0  0.69971  0.47278  0.78984  1.0000
  H   H1145     1.0  0.75748  0.47742  0.77743  1.0000
  H   H1146     1.0  0.76901  0.31233  0.65877  1.0000
  C   C650      1.0  0.70846  0.40129  0.65284  1.0000
  H   H1147     1.0  0.69916  0.13127  0.98507  1.0000
  H   H1148     1.0  0.73411  0.29723  0.65228  1.0000
  H   H1149     1.0  0.85488  0.79220  0.28277  1.0000
  Fe  Fe73      1.0  0.87604  0.67576  0.11224  1.0000
  S   S145      1.0  0.89632  0.63461  0.12556  1.0000
  S   S146      1.0  0.85198  0.68634  0.07135  1.0000
  Fe  Fe74      1.0  0.88934  0.70390  0.17022  1.0000
  S   S147      1.0  0.91089  0.66490  0.18703  1.0000
  S   S148      1.0  0.88129  0.74518  0.19384  1.0000
  Fe  Fe75      1.0  0.93153  0.66161  0.14418  1.0000
  H   H1150     1.0  0.88638  0.69969  0.98877  1.0000
  Fe  Fe76      1.0  0.87382  0.64156  0.16725  1.0000
  S   S149      1.0  0.85144  0.60717  0.19275  1.0000
  S   S150      1.0  0.91215  0.70255  0.12844  1.0000
  S   S151      1.0  0.85139  0.68080  0.15280  1.0000
  C   C651      1.0  0.78894  0.59553  0.00184  1.0000
  C   C652      1.0  0.56921  0.61171  0.29190  1.0000
  S   S152      1.0  0.65865  0.57718  0.27694  1.0000
  Fe  Fe77      1.0  0.70310  0.59472  0.27105  1.0000
  S   S153      1.0  0.72020  0.60869  0.22798  1.0000
  H   H1151     1.0  0.52135  0.73157  0.23920  1.0000
  H   H1152     1.0  0.57399  0.67780  0.26558  1.0000
  S   S154      1.0  0.69502  0.63112  0.30034  1.0000
  C   C653      1.0  0.95726  0.75784  0.15811  1.0000
  H   H1153     1.0  0.77254  0.60003  0.29892  1.0000
  H   H1154     1.0  0.60200  0.56036  0.31390  1.0000
  C   C654      1.0  0.76254  0.55371  0.13538  1.0000
  H   H1155     1.0  0.56470  0.54643  0.27849  1.0000
  C   C655      1.0  0.81518  0.60910  0.20320  1.0000
  C   C656      1.0  0.79541  0.62565  0.18841  1.0000
  C   C657      1.0  0.76639  0.62507  0.19604  1.0000
  C   C658      1.0  0.75699  0.60885  0.21922  1.0000
  C   C659      1.0  0.77685  0.59270  0.23428  1.0000
  C   C660      1.0  0.80572  0.59260  0.22611  1.0000
  H   H1156     1.0  0.80242  0.63840  0.17076  1.0000
  H   H1157     1.0  0.75118  0.63738  0.18402  1.0000
  H   H1158     1.0  0.76984  0.57961  0.25172  1.0000
  H   H1159     1.0  0.82078  0.57952  0.23753  1.0000
  C   C661      1.0  0.97615  0.68786  0.21792  1.0000
  C   C662      1.0  0.87347  0.63753  0.00315  1.0000
  C   C663      1.0  0.87302  0.64931  0.03057  1.0000
  C   C664      1.0  0.85352  0.67068  0.03721  1.0000
  C   C665      1.0  0.83442  0.68000  0.01618  1.0000
  H   H1160     1.0  0.56700  0.51009  0.29081  1.0000
  H   H1161     1.0  0.88878  0.62112  0.99818  1.0000
  H   H1162     1.0  0.88794  0.64208  0.04646  1.0000
  H   H1163     1.0  0.81920  0.69649  0.02113  1.0000
  H   H1164     1.0  0.71878  0.71018  0.20742  1.0000
  C   C666      1.0  0.88569  0.75924  0.29008  1.0000
  C   C667      1.0  0.90185  0.73758  0.27739  1.0000
  C   C668      1.0  0.89980  0.73222  0.24813  1.0000
  C   C669      1.0  0.88224  0.74911  0.23114  1.0000
  C   C670      1.0  0.86592  0.77059  0.24387  1.0000
  C   C671      1.0  0.86729  0.77537  0.27328  1.0000
  C   C672      1.0  0.83488  0.66821  0.98873  1.0000
  H   H1165     1.0  0.91224  0.71554  0.23862  1.0000
  H   H1166     1.0  0.85235  0.78380  0.23087  1.0000
  H   H1167     1.0  0.92096  0.73899  0.03332  1.0000
  H   H1168     1.0  0.97174  0.77640  0.16002  1.0000
  H   H1169     1.0  0.49549  0.65907  0.21453  1.0000
  H   H1170     1.0  0.93499  0.76575  0.15684  1.0000
  H   H1171     1.0  0.58486  0.59932  0.28057  1.0000
  H   H1172     1.0  0.51672  0.70177  0.21705  1.0000
  C   C673      1.0  0.54001  0.60527  0.28932  1.0000
  H   H1173     1.0  0.95824  0.63205  0.22711  1.0000
  H   H1174     1.0  0.65203  0.73687  0.15520  1.0000
  S   S155      1.0  0.97884  0.65761  0.13290  1.0000
  C   C674      1.0  0.75269  0.68849  0.22820  1.0000
  H   H1175     1.0  0.75287  0.74081  0.31091  1.0000
  C   C675      1.0  0.83000  0.67371  0.25544  1.0000
  C   C676      1.0  0.98007  0.66916  0.24456  1.0000
  H   H1176     1.0  0.89191  0.73697  0.99029  1.0000
  H   H1177     1.0  0.73959  0.55663  0.13044  1.0000
  H   H1178     1.0  0.76524  0.95079  0.26682  1.0000
  H   H1179     1.0  0.91611  0.72499  0.29028  1.0000
  H   H1180     1.0  0.59736  0.52680  0.27450  1.0000
  H   H1181     1.0  0.76021  0.70766  0.23961  1.0000
  H   H1182     1.0  0.68975  0.71792  0.29909  1.0000
  H   H1183     1.0  0.96211  0.74610  0.13831  1.0000
  H   H1184     1.0  0.80824  0.94613  0.30509  1.0000
  H   H1185     1.0  0.75649  0.66939  0.24147  1.0000
  N   N38       1.0  0.82434  0.68635  0.30854  1.0000
  Fe  Fe78      1.0  0.67766  0.55194  0.31319  1.0000
  H   H1186     1.0  0.87026  0.67669  0.23293  1.0000
  C   C677      1.0  0.79654  0.70225  0.30571  1.0000
  H   H1187     1.0  0.83990  0.66765  0.21140  1.0000
  H   H1188     1.0  0.95476  0.69750  0.22029  1.0000
  H   H1189     1.0  0.49675  0.76186  0.21353  1.0000
  C   C678      1.0  0.78826  0.90720  0.29199  1.0000
  H   H1190     1.0  0.83114  0.65030  0.25818  1.0000
  H   H1191     1.0  0.93567  0.65562  0.24740  1.0000
  H   H1192     1.0  0.78433  0.69502  0.28700  1.0000
  H   H1193     1.0  0.76538  0.68639  0.20850  1.0000
  C   C679      1.0  0.84732  0.68096  0.22928  1.0000
  C   C680      1.0  0.80449  0.93445  0.28510  1.0000
  N   N39       1.0  0.79162  0.61129  0.08280  1.0000
  C   C681      1.0  0.78135  0.59850  0.05530  1.0000
  C   C682      1.0  0.77634  0.59729  0.10721  1.0000
  C   C683      1.0  0.78303  0.64228  0.08254  1.0000
  C   C684      1.0  0.82359  0.60913  0.08655  1.0000
  C   C685      1.0  0.83844  0.58286  0.07305  1.0000
  C   C686      1.0  0.79153  0.61418  0.02817  1.0000
  C   C687      1.0  0.78752  0.65886  0.11052  1.0000
  C   C688      1.0  0.78110  0.56507  0.11134  1.0000
  H   H1194     1.0  0.66146  0.67616  0.28583  1.0000
  C   C689      1.0  0.86924  0.57996  0.08295  1.0000
  H   H1195     1.0  0.53160  0.70349  0.28057  1.0000
  C   C690      1.0  0.78162  0.69056  0.10675  1.0000
  H   H1196     1.0  0.75761  0.59823  0.05466  1.0000
  H   H1197     1.0  0.78750  0.57587  0.05352  1.0000
  H   H1198     1.0  0.78328  0.60674  0.12766  1.0000
  H   H1199     1.0  0.75297  0.60117  0.10550  1.0000
  H   H1200     1.0  0.76012  0.64449  0.07668  1.0000
  H   H1201     1.0  0.79522  0.65407  0.06609  1.0000
  H   H1202     1.0  0.83447  0.62795  0.07736  1.0000
  H   H1203     1.0  0.82928  0.60989  0.10946  1.0000
  H   H1204     1.0  0.83893  0.58489  0.04967  1.0000
  H   H1205     1.0  0.82743  0.56273  0.07800  1.0000
  H   H1206     1.0  0.77836  0.63346  0.02463  1.0000
  H   H1207     1.0  0.81399  0.62117  0.03008  1.0000
  H   H1208     1.0  0.80967  0.65612  0.11801  1.0000
  H   H1209     1.0  0.77265  0.65135  0.12714  1.0000
  H   H1210     1.0  0.77579  0.55282  0.09201  1.0000
  H   H1211     1.0  0.80353  0.56102  0.11756  1.0000
  H   H1212     1.0  0.77141  0.77192  0.29874  1.0000
  H   H1213     1.0  0.95535  0.75095  0.20296  1.0000
  H   H1214     1.0  0.87902  0.56093  0.07309  1.0000
  H   H1215     1.0  0.88178  0.59885  0.07646  1.0000
  H   H1216     1.0  0.87022  0.57749  0.10631  1.0000
  C   C691      1.0  0.53056  0.69234  0.25992  1.0000
  H   H1217     1.0  0.76654  0.58860  0.99866  1.0000
  C   C692      1.0  0.56119  0.68932  0.24948  1.0000
  H   H1218     1.0  0.79561  0.69985  0.09027  1.0000
  H   H1219     1.0  0.75905  0.69409  0.10066  1.0000
  H   H1220     1.0  0.78587  0.70184  0.12697  1.0000
  N   N40       1.0  0.67093  0.69327  0.24428  1.0000
  C   C693      1.0  0.66266  0.66467  0.23230  1.0000
  C   C694      1.0  0.70291  0.69419  0.24795  1.0000
  C   C695      1.0  0.65758  0.69569  0.27332  1.0000
  C   C696      1.0  0.66072  0.71789  0.22642  1.0000
  C   C697      1.0  0.65897  0.71307  0.19392  1.0000
  C   C698      1.0  0.63033  0.65790  0.23236  1.0000
  H   H1221     1.0  0.77234  0.64954  0.31365  1.0000
  C   C699      1.0  0.72111  0.69102  0.22086  1.0000
  C   C700      1.0  0.65399  0.74102  0.17826  1.0000
  C   C701      1.0  0.62354  0.63188  0.21424  1.0000
  H   H1222     1.0  0.76416  0.74338  0.27441  1.0000
  H   H1223     1.0  0.67322  0.64739  0.24449  1.0000
  H   H1224     1.0  0.67057  0.66184  0.21042  1.0000
  H   H1225     1.0  0.70976  0.71476  0.25732  1.0000
  H   H1226     1.0  0.70973  0.67744  0.26316  1.0000
  H   H1227     1.0  0.76664  0.53068  0.13838  1.0000
  H   H1228     1.0  0.63397  0.69720  0.27159  1.0000
  H   H1229     1.0  0.63892  0.72460  0.23287  1.0000
  H   H1230     1.0  0.67433  0.73690  0.23040  1.0000
  H   H1231     1.0  0.64095  0.69873  0.18867  1.0000
  H   H1232     1.0  0.67845  0.70328  0.18522  1.0000
  H   H1233     1.0  0.62322  0.65302  0.25418  1.0000
  H   H1234     1.0  0.61769  0.67612  0.22451  1.0000
  H   H1235     1.0  0.74111  0.97855  0.23818  1.0000
  H   H1236     1.0  0.76761  0.91222  0.30227  1.0000
  H   H1237     1.0  0.71532  0.67186  0.20856  1.0000
  C   C702      1.0  0.92723  0.71677  0.02852  1.0000
  H   H1238     1.0  0.83555  0.97019  0.24053  1.0000
  H   H1239     1.0  0.63404  0.75128  0.18564  1.0000
  H   H1240     1.0  0.67217  0.75576  0.18169  1.0000
  C   C703      1.0  0.79262  0.60932  0.30694  1.0000
  H   H1241     1.0  0.63585  0.61319  0.22180  1.0000
  H   H1242     1.0  0.60049  0.62682  0.21581  1.0000
  H   H1243     1.0  0.62883  0.63598  0.19171  1.0000
  H   H1244     1.0  0.79183  0.94307  0.24200  1.0000
  H   H1245     1.0  0.53333  0.58779  0.27600  1.0000
  H   H1246     1.0  0.94404  0.72140  0.18158  1.0000
  H   H1247     1.0  0.84420  0.70356  0.22349  1.0000
  H   H1248     1.0  0.86338  0.67942  0.28531  1.0000
  C   C704      1.0  0.78840  0.95307  0.26310  1.0000
  H   H1249     1.0  0.52210  0.67061  0.26304  1.0000
  H   H1250     1.0  0.97759  0.68225  0.26390  1.0000
  H   H1251     1.0  0.80784  0.68002  0.25091  1.0000
  H   H1252     1.0  0.96069  0.63274  0.26512  1.0000
  C   C705      1.0  0.51236  0.70972  0.23879  1.0000
  C   C706      1.0  0.66744  0.72107  0.29186  1.0000
  H   H1253     1.0  0.84604  0.71136  0.27673  1.0000
  H   H1254     1.0  0.82566  0.92831  0.27658  1.0000
  H   H1255     1.0  0.57103  0.71050  0.24607  1.0000
  C   C707      1.0  0.96033  0.73834  0.18377  1.0000
  H   H1256     1.0  0.91111  0.70210  0.03762  1.0000
  H   H1257     1.0  0.76761  0.56480  0.15557  1.0000
  H   H1258     1.0  0.78902  0.64562  0.28013  1.0000
  H   H1259     1.0  0.66601  0.74135  0.28000  1.0000
  H   H1260     1.0  0.94801  0.71246  0.03892  1.0000
  H   H1261     1.0  0.56175  0.67696  0.22947  1.0000
  C   C708      1.0  0.79172  0.64145  0.30295  1.0000
  H   H1262     1.0  0.78440  0.89458  0.27250  1.0000
  H   H1263     1.0  0.93723  0.69006  0.99342  1.0000
  H   H1264     1.0  0.80099  0.89412  0.30695  1.0000
  C   C709      1.0  0.84194  0.68877  0.28200  1.0000
  C   C710      1.0  0.95724  0.64603  0.24602  1.0000
  C   C711      1.0  0.81872  0.65557  0.31586  1.0000
  C   C712      1.0  0.82929  0.98440  0.25834  1.0000
  C   C713      1.0  0.57877  0.53043  0.28855  1.0000
  H   H1265     1.0  0.81438  0.74243  0.28861  1.0000
  N   N41       1.0  0.79733  0.98388  0.26237  1.0000
  H   H1266     1.0  0.84023  0.97593  0.27753  1.0000
  H   H1267     1.0  0.94629  0.72704  0.98840  1.0000
  S   S156      1.0  0.72255  0.56700  0.30478  1.0000
  H   H1268     1.0  0.80293  0.57662  0.00370  1.0000
  H   H1269     1.0  0.49150  0.69502  0.30167  1.0000
  H   H1270     1.0  0.98616  0.62191  0.18347  1.0000
  C   C714      1.0  0.92985  0.71224  0.99658  1.0000
  C   C715      1.0  0.79855  0.73516  0.30436  1.0000
  H   H1271     1.0  0.97477  0.67355  0.19915  1.0000
  H   H1272     1.0  0.81060  0.59995  0.29491  1.0000
  C   C716      1.0  0.51935  0.62079  0.30424  1.0000
  S   S157      1.0  0.61465  0.64261  0.31356  1.0000
  C   C717      1.0  0.76992  0.74847  0.29658  1.0000
  H   H1273     1.0  0.62665  0.72773  0.31301  1.0000
  H   H1274     1.0  0.97603  0.73494  0.24470  1.0000
  Fe  Fe79      1.0  0.65209  0.61179  0.30890  1.0000
  H   H1275     1.0  0.76743  0.96986  0.31712  1.0000
  H   H1276     1.0  0.83750  0.64234  0.31008  1.0000
  C   C718      1.0  0.57806  0.63423  0.30905  1.0000
  C   C719      1.0  0.58926  0.54084  0.31736  1.0000
  H   H1277     1.0  0.48927  0.74449  0.27399  1.0000
  H   H1278     1.0  0.74469  0.98564  0.29125  1.0000
  C   C720      1.0  0.64926  0.72355  0.31855  1.0000
  Fe  Fe80      1.0  0.84901  0.79736  0.41916  1.0000
  S   S158      1.0  0.80532  0.81536  0.41221  1.0000
  S   S159      1.0  0.87355  0.79081  0.46068  1.0000
  Fe  Fe81      1.0  0.85821  0.78853  0.35514  1.0000
  S   S160      1.0  0.81552  0.80694  0.34378  1.0000
  Fe  Fe82      1.0  0.82503  0.84062  0.37662  1.0000
  S   S161      1.0  0.80905  0.88668  0.37496  1.0000
  Fe  Fe83      1.0  0.79922  0.78053  0.38003  1.0000
  S   S162      1.0  0.75735  0.75713  0.37313  1.0000
  S   S163      1.0  0.86928  0.82427  0.38516  1.0000
  S   S164      1.0  0.84127  0.76043  0.38972  1.0000
  Fe  Fe84      1.0  0.87686  0.82079  0.62908  1.0000
  C   C721      1.0  0.85005  0.69598  0.59183  1.0000
  S   S165      1.0  0.84846  0.82295  0.58953  1.0000
  C   C722      1.0  0.84660  0.73857  0.62396  1.0000
  H   H1279     1.0  0.75070  0.84268  0.63325  1.0000
  H   H1280     1.0  0.77272  0.83531  0.60337  1.0000
  S   S166      1.0  0.74410  0.62256  0.36475  1.0000
  C   C723      1.0  0.90266  0.85904  0.44744  1.0000
  S   S167      1.0  0.66849  0.58606  0.34555  1.0000
  H   H1281     1.0  0.84184  0.91301  0.51772  1.0000
  H   H1282     1.0  0.86374  0.90997  0.56556  1.0000
  H   H1283     1.0  0.78737  0.94349  0.37442  1.0000
  H   H1284     1.0  0.79153  0.85037  0.46192  1.0000
  H   H1285     1.0  0.90850  0.85266  0.46927  1.0000
  H   H1286     1.0  0.58731  0.64308  0.37910  1.0000
  C   C724      1.0  0.75408  0.71968  0.37158  1.0000
  C   C725      1.0  0.72972  0.70783  0.35891  1.0000
  C   C726      1.0  0.72648  0.67819  0.35662  1.0000
  C   C727      1.0  0.74740  0.66002  0.36742  1.0000
  C   C728      1.0  0.77158  0.67186  0.38053  1.0000
  C   C729      1.0  0.77500  0.70157  0.38249  1.0000
  H   H1287     1.0  0.90611  0.73099  0.62417  1.0000
  H   H1288     1.0  0.78773  0.65799  0.38919  1.0000
  H   H1289     1.0  0.79361  0.71045  0.39271  1.0000
  C   C730      1.0  0.82512  0.91934  0.36479  1.0000
  C   C731      1.0  0.80908  0.94451  0.36685  1.0000
  C   C732      1.0  0.85818  0.67819  0.61842  1.0000
  S   S168      1.0  0.89032  0.76624  0.32659  1.0000
  C   C733      1.0  0.86505  0.94757  0.34778  1.0000
  C   C734      1.0  0.85322  0.92102  0.35519  1.0000
  H   H1290     1.0  0.62320  0.62933  0.37664  1.0000
  C   C735      1.0  0.55732  0.65061  0.32303  1.0000
  H   H1291     1.0  0.86585  0.90190  0.35351  1.0000
  C   C736      1.0  0.86649  0.80175  0.49595  1.0000
  C   C737      1.0  0.83987  0.81201  0.50438  1.0000
  C   C738      1.0  0.83491  0.81879  0.53304  1.0000
  C   C739      1.0  0.85649  0.81560  0.55353  1.0000
  C   C740      1.0  0.88335  0.80624  0.54493  1.0000
  C   C741      1.0  0.88821  0.79917  0.51635  1.0000
  H   H1292     1.0  0.82291  0.81388  0.48897  1.0000
  H   H1293     1.0  0.81404  0.82602  0.53944  1.0000
  H   H1294     1.0  0.90031  0.80411  0.56031  1.0000
  H   H1295     1.0  0.90892  0.79138  0.51003  1.0000
  C   C742      1.0  0.83299  0.91081  0.65167  1.0000
  H   H1296     1.0  0.56693  0.50047  0.39395  1.0000
  H   H1297     1.0  0.84780  0.93805  0.47719  1.0000
  H   H1298     1.0  0.88216  0.76190  0.58645  1.0000
  C   C743      1.0  0.84096  0.69953  0.33265  1.0000
  H   H1299     1.0  0.83963  0.71391  0.53814  1.0000
  H   H1300     1.0  0.80869  0.73361  0.58027  1.0000
  C   C744      1.0  0.86877  0.68400  0.34171  1.0000
  C   C745      1.0  0.58477  0.58526  0.36558  1.0000
  H   H1301     1.0  0.85755  0.87551  0.55038  1.0000
  H   H1302     1.0  0.80942  0.91238  0.47103  1.0000
  C   C746      1.0  0.88066  0.69625  0.36926  1.0000
  H   H1303     1.0  0.65051  0.70365  0.33116  1.0000
  C   C747      1.0  0.59388  0.53631  0.38044  1.0000
  H   H1304     1.0  0.81605  0.65302  0.33918  1.0000
  H   H1305     1.0  0.82707  0.70131  0.35165  1.0000
  H   H1306     1.0  0.86321  0.68841  0.57375  1.0000
  H   H1307     1.0  0.71892  0.49003  0.32841  1.0000
  H   H1308     1.0  0.91138  0.90419  0.44961  1.0000
  C   C748      1.0  0.81566  0.73393  0.63470  1.0000
  H   H1309     1.0  0.60914  0.58754  0.40544  1.0000
  H   H1310     1.0  0.80155  0.75056  0.62573  1.0000
  C   C749      1.0  0.90730  0.72626  0.60122  1.0000
  H   H1311     1.0  0.82977  0.76485  0.57842  1.0000
  C   C750      1.0  0.83042  0.74144  0.57502  1.0000
  H   H1312     1.0  0.84057  0.63848  0.60216  1.0000
  H   H1313     1.0  0.93457  0.83115  0.42957  1.0000
  H   H1314     1.0  0.78634  0.87875  0.43652  1.0000
  H   H1315     1.0  0.97635  0.96596  0.64177  1.0000
  C   C751      1.0  0.84901  0.97273  0.34980  1.0000
  C   C752      1.0  0.78094  0.80924  0.63941  1.0000
  H   H1316     1.0  0.86495  0.69398  0.38666  1.0000
  H   H1317     1.0  0.90038  0.68475  0.37530  1.0000
  H   H1318     1.0  0.88606  0.71904  0.36662  1.0000
  H   H1319     1.0  0.92375  0.85945  0.40632  1.0000
  C   C753      1.0  0.52812  0.64370  0.32099  1.0000
  H   H1320     1.0  0.53507  0.53457  0.38422  1.0000
  H   H1321     1.0  0.80132  0.76653  0.53073  1.0000
  H   H1322     1.0  0.61496  0.53884  0.36986  1.0000
  C   C754      1.0  0.83450  0.73642  0.54279  1.0000
  H   H1323     1.0  0.56394  0.66828  0.33614  1.0000
  H   H1324     1.0  0.79476  0.60380  0.32970  1.0000
  H   H1325     1.0  0.49128  0.74255  0.32578  1.0000
  H   H1326     1.0  0.87833  0.64328  0.59570  1.0000
  C   C755      1.0  0.52249  0.57798  0.37731  1.0000
  H   H1327     1.0  0.57338  0.60112  0.40817  1.0000
  H   H1328     1.0  0.50199  0.57868  0.41871  1.0000
  S   S169      1.0  0.97758  0.84632  0.64596  1.0000
  H   H1329     1.0  0.84753  0.72159  0.32729  1.0000
  C   C756      1.0  0.60357  0.62969  0.38973  1.0000
  H   H1330     1.0  0.78268  0.69726  0.32408  1.0000
  H   H1331     1.0  0.83598  0.93202  0.42537  1.0000
  C   C757      1.0  0.87027  0.89527  0.54840  1.0000
  S   S170      1.0  0.91389  0.79265  0.63986  1.0000
  N   N42       1.0  0.78635  0.89180  0.62859  1.0000
  C   C758      1.0  0.76984  0.89426  0.60128  1.0000
  N   N43       1.0  0.57211  0.55587  0.36732  1.0000
  C   C759      1.0  0.81342  0.90893  0.62524  1.0000
  C   C760      1.0  0.88127  0.73828  0.58510  1.0000
  C   C761      1.0  0.80774  0.74432  0.52611  1.0000
  C   C762      1.0  0.78651  0.88576  0.57415  1.0000
  H   H1332     1.0  0.93473  0.76238  0.59055  1.0000
  C   C763      1.0  0.59226  0.59959  0.39423  1.0000
  H   H1333     1.0  0.88685  0.94863  0.34047  1.0000
  H   H1334     1.0  0.87309  0.93732  0.41707  1.0000
  C   C764      1.0  0.76646  0.87928  0.54947  1.0000
  H   H1335     1.0  0.88526  0.73281  0.56259  1.0000
  H   H1336     1.0  0.76235  0.91652  0.59825  1.0000
  H   H1337     1.0  0.75007  0.88141  0.60197  1.0000
  H   H1338     1.0  0.98683  0.93140  0.62922  1.0000
  H   H1339     1.0  0.82790  0.68945  0.58634  1.0000
  H   H1340     1.0  0.80834  0.93105  0.61850  1.0000
  H   H1341     1.0  0.82697  0.89967  0.60829  1.0000
  H   H1342     1.0  0.95328  0.73127  0.60280  1.0000
  C   C765      1.0  0.54560  0.55573  0.38532  1.0000
  H   H1343     1.0  0.60344  0.52422  0.32580  1.0000
  H   H1344     1.0  0.90881  0.70299  0.59805  1.0000
  H   H1345     1.0  0.80064  0.90352  0.56758  1.0000
  H   H1346     1.0  0.80012  0.86687  0.57780  1.0000
  C   C766      1.0  0.89251  0.89033  0.44562  1.0000
  H   H1347     1.0  0.57034  0.59962  0.35375  1.0000
  H   H1348     1.0  0.87596  0.93000  0.51961  1.0000
  H   H1349     1.0  0.88557  0.84480  0.43992  1.0000
  H   H1350     1.0  0.60887  0.63946  0.41047  1.0000
  H   H1351     1.0  0.71326  0.72167  0.35080  1.0000
  H   H1352     1.0  0.87227  0.91593  0.62744  1.0000
  C   C767      1.0  0.92862  0.85397  0.42867  1.0000
  C   C768      1.0  0.81434  0.88940  0.47194  1.0000
  H   H1353     1.0  0.59775  0.54225  0.40289  1.0000
  H   H1354     1.0  0.75301  0.89804  0.54454  1.0000
  H   H1355     1.0  0.77910  0.87377  0.53043  1.0000
  H   H1356     1.0  0.75255  0.86088  0.55460  1.0000
  H   H1357     1.0  0.85204  0.74998  0.53468  1.0000
  H   H1358     1.0  0.80472  0.74372  0.32541  1.0000
  C   C769      1.0  0.87674  0.89045  0.49509  1.0000
  H   H1359     1.0  0.55107  0.55866  0.40806  1.0000
  H   H1360     1.0  0.93853  0.73205  0.56754  1.0000
  H   H1361     1.0  0.76909  0.88005  0.47050  1.0000
  H   H1362     1.0  0.53059  0.59998  0.37983  1.0000
  H   H1363     1.0  0.81483  0.85565  0.62593  1.0000
  H   H1364     1.0  0.94701  0.86682  0.43611  1.0000
  C   C770      1.0  0.93507  0.73882  0.58979  1.0000
  C   C771      1.0  0.86063  0.92657  0.64491  1.0000
  H   H1365     1.0  0.70748  0.66945  0.34711  1.0000
  H   H1366     1.0  0.78990  0.72980  0.53147  1.0000
  S   S171      1.0  0.65934  0.50735  0.32055  1.0000
  H   H1367     1.0  0.86531  0.66102  0.34531  1.0000
  Fe  Fe85      1.0  0.71182  0.60324  0.33438  1.0000
  H   H1368     1.0  0.51248  0.65583  0.33262  1.0000
  H   H1369     1.0  0.55078  0.52681  0.33859  1.0000
  H   H1370     1.0  0.88640  0.89363  0.42309  1.0000
  H   H1371     1.0  0.90033  0.89149  0.49776  1.0000
  H   H1372     1.0  0.87100  0.86787  0.49945  1.0000
  C   C772      1.0  0.78885  0.87364  0.45935  1.0000
  C   C773      1.0  0.56411  0.54636  0.33785  1.0000
  H   H1373     1.0  0.51529  0.57523  0.35511  1.0000
  H   H1374     1.0  0.83825  0.88509  0.43282  1.0000
  H   H1375     1.0  0.89319  0.89011  0.55125  1.0000
  H   H1376     1.0  0.88441  0.94123  0.46921  1.0000
  N   N44       1.0  0.85229  0.72794  0.59435  1.0000
  H   H1377     1.0  0.81620  0.88245  0.49426  1.0000
  C   C774      1.0  0.84212  0.88232  0.45591  1.0000
  C   C775      1.0  0.85206  0.97385  0.43364  1.0000
  C   C776      1.0  0.86085  0.64668  0.61115  1.0000
  H   H1378     1.0  0.84537  0.85907  0.45863  1.0000
  H   H1379     1.0  0.85090  0.76184  0.62528  1.0000
  C   C777      1.0  0.85621  0.94165  0.43286  1.0000
  H   H1380     1.0  0.81209  0.74257  0.50307  1.0000
  H   H1381     1.0  0.55043  0.56250  0.32747  1.0000
  C   C778      1.0  0.86444  0.93022  0.46257  1.0000
  H   H1382     1.0  0.60479  0.58497  0.35309  1.0000
  S   S172      1.0  0.89692  0.85990  0.64765  1.0000
  C   C779      1.0  0.86497  0.90907  0.51960  1.0000
  N   N45       1.0  0.86835  0.89847  0.46510  1.0000
  C   C780      1.0  0.82092  0.97104  0.35943  1.0000
  C   C781      1.0  0.58608  0.50427  0.38077  1.0000
  H   H1383     1.0  0.61462  0.49288  0.41548  1.0000
  H   H1384     1.0  0.80702  0.71308  0.62795  1.0000
  C   C782      1.0  0.49625  0.57513  0.39617  1.0000
  H   H1385     1.0  0.65722  0.74132  0.33186  1.0000
  H   H1386     1.0  0.80245  0.80289  0.63207  1.0000
  H   H1387     1.0  0.88548  0.68659  0.32534  1.0000
  C   C783      1.0  0.79412  0.86150  0.63566  1.0000
  H   H1388     1.0  0.87846  0.68507  0.62820  1.0000
  H   H1389     1.0  0.86161  0.72915  0.63949  1.0000
  H   H1390     1.0  0.72630  0.89037  0.63984  1.0000
  H   H1391     1.0  0.85610  0.94890  0.63887  1.0000
  H   H1392     1.0  0.87183  0.98462  0.44091  1.0000
  H   H1393     1.0  0.84154  0.68014  0.63492  1.0000
  H   H1394     1.0  0.76542  0.79280  0.63257  1.0000
  H   H1395     1.0  0.63023  0.48981  0.38065  1.0000
  H   H1396     1.0  0.86585  0.63446  0.63064  1.0000
  C   C784      1.0  0.77275  0.83790  0.62670  1.0000
  H   H1397     1.0  0.83416  0.97958  0.44785  1.0000
  H   H1398     1.0  0.84703  0.98174  0.41209  1.0000
  H   H1399     1.0  0.58180  0.49603  0.35921  1.0000
  H   H1400     1.0  0.76663  0.92836  0.64809  1.0000
  Fe  Fe86      1.0  0.89282  0.78545  0.68222  1.0000
  S   S173      1.0  0.91486  0.82216  0.70365  1.0000
  S   S174      1.0  0.88209  0.74160  0.69956  1.0000
  H   H1401     1.0  0.90470  0.67230  0.94883  1.0000
  S   S175      1.0  0.85417  0.81034  0.66961  1.0000
  Fe  Fe87      1.0  0.87667  0.84733  0.68892  1.0000
  S   S176      1.0  0.85309  0.87847  0.71746  1.0000
  Fe  Fe88      1.0  0.66777  0.90505  0.82995  1.0000
  S   S177      1.0  0.65312  0.89227  0.78622  1.0000
  S   S178      1.0  0.65244  0.94678  0.84979  1.0000
  Fe  Fe89      1.0  0.69311  0.84564  0.84129  1.0000
  S   S179      1.0  0.67946  0.82944  0.79902  1.0000
  S   S180      1.0  0.71783  0.81806  0.87256  1.0000
  Fe  Fe90      1.0  0.69595  0.87091  0.78240  1.0000
  S   S181      1.0  0.72050  0.86567  0.74126  1.0000
  Fe  Fe91      1.0  0.63785  0.85193  0.80670  1.0000
  S   S182      1.0  0.59685  0.82958  0.79268  1.0000
  S   S183      1.0  0.71181  0.88655  0.82457  1.0000
  S   S184      1.0  0.65039  0.86528  0.85053  1.0000
  Fe  Fe92      1.0  0.85321  0.67350  0.84858  1.0000
  S   S185      1.0  0.81585  0.65464  0.82587  1.0000
  S   S186      1.0  0.88482  0.70509  0.82988  1.0000
  Fe  Fe93      1.0  0.83780  0.64355  0.90462  1.0000
  S   S187      1.0  0.79863  0.62312  0.88546  1.0000
  S   S188      1.0  0.85703  0.63185  0.94769  1.0000
  Fe  Fe94      1.0  0.82668  0.61361  0.84801  1.0000
  S   S189      1.0  0.82748  0.57315  0.82115  1.0000
  Fe  Fe95      1.0  0.79124  0.66605  0.86500  1.0000
  S   S190      1.0  0.74806  0.68692  0.85730  1.0000
  S   S191      1.0  0.86610  0.63179  0.86787  1.0000
  S   S192      1.0  0.82820  0.68687  0.88698  1.0000
  C   C785      1.0  0.83587  0.53858  0.83332  1.0000
  C   C786      1.0  0.83838  0.51637  0.81355  1.0000
  C   C787      1.0  0.84292  0.50423  0.87103  1.0000
  C   C788      1.0  0.83878  0.53246  0.86210  1.0000
  H   H1402     1.0  0.83649  0.52102  0.79121  1.0000
  H   H1403     1.0  0.56251  0.77988  0.85214  1.0000
  H   H1404     1.0  0.83710  0.54938  0.87751  1.0000
  C   C789      1.0  0.81369  0.73572  0.66690  1.0000
  C   C790      1.0  0.72763  0.78214  0.86665  1.0000
  C   C791      1.0  0.71697  0.76653  0.84378  1.0000
  C   C792      1.0  0.72380  0.73753  0.84082  1.0000
  C   C793      1.0  0.74213  0.72404  0.86016  1.0000
  C   C794      1.0  0.75340  0.73987  0.88262  1.0000
  C   C795      1.0  0.74605  0.76870  0.88591  1.0000
  H   H1405     1.0  0.70296  0.77665  0.82874  1.0000
  H   H1406     1.0  0.71478  0.72545  0.82351  1.0000
  H   H1407     1.0  0.76712  0.72965  0.89793  1.0000
  H   H1408     1.0  0.75438  0.78056  0.90371  1.0000
  C   C796      1.0  0.56339  0.82718  0.81017  1.0000
  C   C797      1.0  0.54124  0.81164  0.79728  1.0000
  C   C798      1.0  0.51478  0.80791  0.81092  1.0000
  C   C799      1.0  0.51030  0.81935  0.83786  1.0000
  C   C800      1.0  0.53248  0.83484  0.85076  1.0000
  C   C801      1.0  0.55874  0.83906  0.83690  1.0000
  H   H1409     1.0  0.54459  0.80238  0.77661  1.0000
  N   N46       1.0  0.60478  0.76219  0.85770  1.0000
  H   H1410     1.0  0.52927  0.84377  0.87160  1.0000
  H   H1411     1.0  0.57544  0.85125  0.84701  1.0000
  H   H1412     1.0  0.55720  0.73548  0.82575  1.0000
  C   C802      1.0  0.73987  0.89238  0.65890  1.0000
  H   H1413     1.0  0.95932  0.51575  0.84264  1.0000
  Fe  Fe96      1.0  0.93343  0.83143  0.66050  1.0000
  C   C803      1.0  0.88186  0.73307  0.73624  1.0000
  C   C804      1.0  0.90033  0.74625  0.75549  1.0000
  C   C805      1.0  0.90072  0.73777  0.78412  1.0000
  C   C806      1.0  0.88268  0.71603  0.79389  1.0000
  C   C807      1.0  0.86392  0.70314  0.77472  1.0000
  C   C808      1.0  0.86370  0.71146  0.74605  1.0000
  H   H1414     1.0  0.91484  0.76250  0.74815  1.0000
  H   H1415     1.0  0.91543  0.74779  0.79867  1.0000
  H   H1416     1.0  0.85002  0.68629  0.78181  1.0000
  H   H1417     1.0  0.84954  0.70089  0.73135  1.0000
  C   C809      1.0  0.81673  0.87336  0.72613  1.0000
  C   C810      1.0  0.80086  0.85138  0.71400  1.0000
  C   C811      1.0  0.77152  0.84909  0.71924  1.0000
  C   C812      1.0  0.75791  0.86781  0.73787  1.0000
  C   C813      1.0  0.77395  0.88900  0.75124  1.0000
  C   C814      1.0  0.80321  0.89197  0.74508  1.0000
  H   H1418     1.0  0.81107  0.83632  0.70027  1.0000
  H   H1419     1.0  0.75924  0.83266  0.70883  1.0000
  H   H1420     1.0  0.76360  0.90379  0.76540  1.0000
  H   H1421     1.0  0.81531  0.90897  0.75477  1.0000
  N   N47       1.0  0.79773  0.81052  0.80215  1.0000
  C   C815      1.0  0.81937  0.80859  0.77862  1.0000
  C   C816      1.0  0.76767  0.80757  0.79075  1.0000
  C   C817      1.0  0.80053  0.83986  0.81490  1.0000
  C   C818      1.0  0.80330  0.78906  0.82508  1.0000
  C   C819      1.0  0.80383  0.75763  0.81572  1.0000
  C   C820      1.0  0.85112  0.80767  0.78785  1.0000
  C   C821      1.0  0.77895  0.84740  0.83853  1.0000
  C   C822      1.0  0.76282  0.78673  0.76572  1.0000
  C   C823      1.0  0.73112  0.78236  0.75983  1.0000
  C   C824      1.0  0.81789  0.73928  0.83823  1.0000
  C   C825      1.0  0.87071  0.81073  0.76234  1.0000
  C   C826      1.0  0.78265  0.87817  0.84816  1.0000
  H   H1422     1.0  0.81643  0.82666  0.76379  1.0000
  H   H1423     1.0  0.81634  0.78936  0.76544  1.0000
  H   H1424     1.0  0.75283  0.80146  0.80808  1.0000
  H   H1425     1.0  0.75962  0.82844  0.78299  1.0000
  H   H1426     1.0  0.79848  0.85630  0.79804  1.0000
  H   H1427     1.0  0.82188  0.84308  0.82445  1.0000
  H   H1428     1.0  0.82365  0.79414  0.83616  1.0000
  H   H1429     1.0  0.78666  0.79026  0.84174  1.0000
  H   H1430     1.0  0.81578  0.75425  0.79584  1.0000
  H   H1431     1.0  0.78168  0.74979  0.81289  1.0000
  H   H1432     1.0  0.85680  0.82487  0.80276  1.0000
  H   H1433     1.0  0.85601  0.78703  0.79816  1.0000
  H   H1434     1.0  0.78207  0.83374  0.85740  1.0000
  H   H1435     1.0  0.75676  0.84479  0.83103  1.0000
  H   H1436     1.0  0.77249  0.79548  0.74617  1.0000
  H   H1437     1.0  0.77233  0.76565  0.76962  1.0000
  H   H1438     1.0  0.72833  0.76790  0.74147  1.0000
  H   H1439     1.0  0.72050  0.77272  0.77846  1.0000
  H   H1440     1.0  0.72075  0.80292  0.75473  1.0000
  H   H1441     1.0  0.84040  0.74579  0.84136  1.0000
  H   H1442     1.0  0.80647  0.74112  0.85863  1.0000
  H   H1443     1.0  0.81745  0.71682  0.83125  1.0000
  H   H1444     1.0  0.86863  0.83226  0.75314  1.0000
  H   H1445     1.0  0.89319  0.80777  0.76901  1.0000
  H   H1446     1.0  0.86543  0.79474  0.74584  1.0000
  H   H1447     1.0  0.77895  0.89298  0.83022  1.0000
  H   H1448     1.0  0.76692  0.88300  0.86502  1.0000
  H   H1449     1.0  0.80438  0.88167  0.85681  1.0000
  H   H1450     1.0  0.89971  0.54111  0.83252  1.0000
  H   H1451     1.0  0.64972  0.75825  0.90332  1.0000
  C   C827      1.0  0.61862  0.73851  0.87440  1.0000
  C   C828      1.0  0.52629  0.73349  0.85868  1.0000
  H   H1452     1.0  0.70331  0.90053  0.68580  1.0000
  H   H1453     1.0  0.91606  0.64013  0.90940  1.0000
  C   C829      1.0  0.90085  0.71694  0.98152  1.0000
  C   C830      1.0  0.55741  0.73448  0.84923  1.0000
  H   H1454     1.0  0.63783  0.79374  0.86612  1.0000
  H   H1455     1.0  0.49802  0.79581  0.80079  1.0000
  C   C831      1.0  0.69633  0.98589  0.84234  1.0000
  H   H1456     1.0  0.66616  0.70142  0.87565  1.0000
  H   H1457     1.0  0.51494  0.75310  0.85197  1.0000
  H   H1458     1.0  0.50684  0.53503  0.69276  1.0000
  H   H1459     1.0  0.95149  0.65537  0.90845  1.0000
  C   C832      1.0  0.75813  0.53582  0.81966  1.0000
  H   H1460     1.0  0.86272  0.76228  0.95387  1.0000
  H   H1461     1.0  0.56735  0.76139  0.88458  1.0000
  C   C833      1.0  0.74270  0.56373  0.81366  1.0000
  H   H1462     1.0  0.56799  0.71455  0.85602  1.0000
  C   C834      1.0  0.93584  0.51337  0.84163  1.0000
  H   H1463     1.0  0.61829  0.71848  0.86185  1.0000
  H   H1464     1.0  0.76776  0.53776  0.84103  1.0000
  H   H1465     1.0  0.92784  0.50871  0.86320  1.0000
  H   H1466     1.0  0.72717  0.51108  0.79665  1.0000
  H   H1467     1.0  0.67836  0.95739  0.91072  1.0000
  H   H1468     1.0  0.81075  0.76192  0.94634  1.0000
  H   H1469     1.0  0.52480  0.73142  0.88203  1.0000
  H   H1470     1.0  0.77554  0.53388  0.80399  1.0000
  C   C835      1.0  0.66758  0.98140  0.84856  1.0000
  C   C836      1.0  0.57282  0.76082  0.86169  1.0000
  C   C837      1.0  0.64968  0.74369  0.88485  1.0000
  H   H1471     1.0  0.93434  0.79655  0.91849  1.0000
  H   H1472     1.0  0.82627  0.71843  0.67688  1.0000
  C   C838      1.0  0.60472  0.79999  0.89743  1.0000
  H   H1473     1.0  0.75812  0.58162  0.81516  1.0000
  H   H1474     1.0  0.73346  0.56367  0.79201  1.0000
  H   H1475     1.0  0.72555  0.56737  0.82940  1.0000
  N   N48       1.0  0.90149  0.71804  0.94953  1.0000
  C   C839      1.0  0.87103  0.71845  0.93926  1.0000
  C   C840      1.0  0.91558  0.69109  0.93936  1.0000
  H   H1476     1.0  0.71975  0.51401  0.83309  1.0000
  C   C841      1.0  0.91822  0.74393  0.94038  1.0000
  H   H1477     1.0  0.88925  0.76872  0.91327  1.0000
  H   H1478     1.0  0.66522  0.95665  0.94652  1.0000
  H   H1479     1.0  0.92980  0.55861  0.84846  1.0000
  C   C842      1.0  0.91699  0.68641  0.90698  1.0000
  C   C843      1.0  0.92944  0.65723  0.90012  1.0000
  C   C844      1.0  0.82394  0.74522  0.93622  1.0000
  H   H1480     1.0  0.70058  0.97034  0.93903  1.0000
  H   H1481     1.0  0.86074  0.69752  0.94329  1.0000
  H   H1482     1.0  0.86998  0.72101  0.91601  1.0000
  H   H1483     1.0  0.78126  0.90366  0.67269  1.0000
  H   H1484     1.0  0.49837  0.56334  0.71698  1.0000
  H   H1485     1.0  0.79579  0.60781  0.98294  1.0000
  H   H1486     1.0  0.95310  0.76929  0.89885  1.0000
  H   H1487     1.0  0.65171  0.70556  0.91102  1.0000
  C   C845      1.0  0.62074  0.82603  0.90834  1.0000
  C   C846      1.0  0.91002  0.75762  0.91153  1.0000
  H   H1488     1.0  0.93807  0.69012  0.94666  1.0000
  H   H1489     1.0  0.71883  0.93205  0.67058  1.0000
  H   H1490     1.0  0.63292  0.77965  0.77546  1.0000
  C   C847      1.0  0.66406  0.71607  0.89396  1.0000
  H   H1491     1.0  0.93119  0.54847  0.81171  1.0000
  H   H1492     1.0  0.89566  0.68748  0.89697  1.0000
  C   C848      1.0  0.92337  0.54207  0.83294  1.0000
  C   C849      1.0  0.64411  0.76098  0.78457  1.0000
  H   H1493     1.0  0.93128  0.70232  0.89714  1.0000
  H   H1494     1.0  0.90791  0.74186  0.89429  1.0000
  C   C850      1.0  0.67829  0.96893  0.93125  1.0000
  H   H1495     1.0  0.92527  0.78946  0.88206  1.0000
  H   H1496     1.0  0.51543  0.71499  0.84883  1.0000
  H   H1497     1.0  0.68583  0.72077  0.90201  1.0000
  H   H1498     1.0  0.58170  0.80551  0.89728  1.0000
  H   H1499     1.0  0.61472  0.83019  0.93066  1.0000
  H   H1500     1.0  0.64416  0.82272  0.90739  1.0000
  H   H1501     1.0  0.60793  0.78238  0.91266  1.0000
  C   C851      1.0  0.61054  0.75874  0.82646  1.0000
  H   H1502     1.0  0.81155  0.72510  0.93615  1.0000
  H   H1503     1.0  0.65180  0.78096  0.82447  1.0000
  H   H1504     1.0  0.70975  0.96802  0.83704  1.0000
  H   H1505     1.0  0.61485  0.84498  0.89567  1.0000
  C   C852      1.0  0.64187  0.76111  0.81683  1.0000
  C   C853      1.0  0.61438  0.79134  0.86720  1.0000
  H   H1506     1.0  0.82833  0.75173  0.91405  1.0000
  H   H1507     1.0  0.60605  0.73356  0.89375  1.0000
  H   H1508     1.0  0.91625  0.76130  0.95629  1.0000
  H   H1509     1.0  0.60350  0.73750  0.81895  1.0000
  H   H1510     1.0  0.59775  0.77441  0.81425  1.0000
  H   H1511     1.0  0.65418  0.74257  0.82458  1.0000
  C   C854      1.0  0.93211  0.77958  0.90230  1.0000
  C   C855      1.0  0.72370  0.91099  0.67996  1.0000
  H   H1512     1.0  0.66332  0.75353  0.86860  1.0000
  H   H1513     1.0  0.63476  0.74124  0.77564  1.0000
  H   H1514     1.0  0.73634  0.91408  0.69964  1.0000
  H   H1515     1.0  0.60630  0.80780  0.85236  1.0000
  C   C856      1.0  0.85169  0.74147  0.95277  1.0000
  H   H1516     1.0  0.66684  0.76217  0.77828  1.0000
  H   H1517     1.0  0.93001  0.65428  0.87680  1.0000
  H   H1518     1.0  0.83860  0.88925  0.65921  1.0000
  H   H1519     1.0  0.94140  0.73890  0.93984  1.0000
  H   H1520     1.0  0.74160  0.50935  0.87508  1.0000
  H   H1521     1.0  0.93587  0.49674  0.79940  1.0000
  H   H1522     1.0  0.78727  0.48962  0.79647  1.0000
  H   H1523     1.0  0.78835  0.50925  0.89823  1.0000
  C   C857      1.0  0.73738  0.51011  0.81789  1.0000
  H   H1524     1.0  0.87455  0.92666  0.66396  1.0000
  C   C858      1.0  0.84247  0.48810  0.82250  1.0000
  C   C859      1.0  0.75275  0.48870  0.87685  1.0000
  H   H1525     1.0  0.79116  0.73346  0.67362  1.0000
  H   H1526     1.0  0.79796  0.85949  0.65868  1.0000
  H   H1527     1.0  0.82007  0.67556  0.97278  1.0000
  H   H1528     1.0  0.82178  0.75649  0.67460  1.0000
  H   H1529     1.0  0.84584  0.73510  0.97465  1.0000
  H   H1530     1.0  0.82269  0.92262  0.66918  1.0000
  H   H1531     1.0  0.78712  0.49489  0.84670  1.0000
  H   H1532     1.0  0.84431  0.49961  0.89342  1.0000
  H   H1533     1.0  0.74244  0.87124  0.66893  1.0000
  H   H1534     1.0  0.78080  0.81024  0.66289  1.0000
  C   C860      1.0  0.85460  0.64702  0.98201  1.0000
  H   H1535     1.0  0.90358  0.49054  0.81807  1.0000
  C   C861      1.0  0.48916  0.54600  0.70387  1.0000
  H   H1536     1.0  0.76189  0.49459  0.92153  1.0000
  C   C862      1.0  0.92725  0.48982  0.82016  1.0000
  C   C863      1.0  0.77371  0.49102  0.90153  1.0000
  C   C864      1.0  0.76948  0.90523  0.65230  1.0000
