data_image0
_chemical_formula_structural       FeS2FeS2CHSFeS2FeSFeS2HFeS2FeS2FeSFeS3C6H4CHCH5C6H4C6H4C6H5C2H4SCH3FeCH2NH2CHCSH17CH5CHNC11H25CH3CH2C2H3C3H6NHN2CH2CH5C5H2C2HC4HCH2C2H5CHCH2C3H2CH4C2H7CH2C2H9CSCH2CH5CHC2HCH7SNSCFeS2FeS2FeS2FeSFeS3FeS2FeS2FeS2HCH2CH2C3H3C6H4C6H4C6H4C6H5CH2C2H4C2H4CHCHC2H2CHCHCHSFeH3CH7C2H6CH3CH3C2HC2NH5CHNC11H17CSH5FeHCH2CH7CFeCHCH6CHC2NH2CH2C2H2CH7CHC2H2CH2CH5NH2CH6SCHCH8C3HCH3C2H2C2HFeS2FeS2HFeS2FeSNFeSFeS4HC3H2SH6C5H5C4H2C6H4CH4CH9CH2CH3CHCHCHC2H6C3H2CHCHCSCNC12H26CH5CH5CHCH2CHCHCHCH2CHNC3HC3H3CHNC5HCNH2C2HC2H5NHC5H7CH2C2SH4CHCH4CHC2HFeHCH5C2HSH2CHSH5CHCH4FeHCFeS2FeS3FeS2FeS2FeHFeS3CHCSC2HC3FeCH3CH2CHC9H2C2H4C6H4NC11H27C3H9CH4CH6CH4CH4CH5CHNH4CH2CSC2HC3H8CH2C2HCHCHCHCH2C3H2C3H2CH2CHCH5CH4SNH3CH8SCH6C2HCH2CH3NHC2HNHFeSHFeSHSHSHFeSCHCSC6H4C3H10C2HCH5CH5CH5C3H4CHCHC2H2C2H2FeCH6CHNCHCH4SC3HC2H2CHC2NC6HC5H22CHFeH4SC2H9CH2S2H2CHCFeSHSHFeHSC2SCSC6H4C2HC3SH3NHSHCH5CHCHC2H2CH2FeCHCH2FeH6C3H2C2H2CH11CH5NCHC6HC3H12SHC2H3SFeHFeH4CH3NCHCH8C2HSHC3HCFeS2FeSHSHFeHSHSNSC6H4C2HC3HCH3C3HC2H2CH2CHC3H2CHC2H5CH6CH2CH4FeH9CH8CHNC4HCH12C2HC2H2SH4C3H2SHCH6FeCH3SHSFeSHSCSCHFeSCH2SC6H4C2HC3HCH2CNHC2H2CH2CH2SHCH6C2HCH6CHFeH3C4SH5CFeHSCHSH5CHCH3CNH2FeCH5CH5C2H2CHCH4C3FeSHCH2NH2FeS2FeS2FeS2FeS2FeCFeS4FeHCH2C2H2C6H4CH6C4H2C6H5C3FeC2SH3CH4CHSCHNCH3CH2CHCH4CH5SH2N2C12H29C2SH2C2H3CHCHCHCHC3SH5CH4C3H4CH2CH5C2HFeH5CHCH4CFeHSFeS2FeS2FeS2FeHFeS4C2H3C6H3C2HC5H2C2HCH2C6H7CHCH7CHFeCH2CNCHCH4NHSH4CFeCHSHCH5CHSHCHC2HCH3NC10H25CH5SC2HCH2C2H2CH2CH3CHCH3C3H3CH4C2HCH5SC2H2CNHCHSCH9CH2CH9CHCHCH2C2H2C2HCNCHCH3CH4C2HCH2FeSHFeS3FeSFeSHSFeS2FeS2FeSFeS3FeS2HS2C6H4C6HCH2C6H5CHCHCH3C6H3NC12H29CH3FeSH2C2H2C2H7CH5CH5NC10H22CH2C2HCHCH4CHC2HC2HCH3CH5CH2NH7CHFeH6CHSC3HC3NH2CHCH2FeCSFeS2FeSFeS3FeS2FeS2FeSFeS3H2S3HC6H4C3H2C6H4CHC2H2C6H4C6H6FeC3H2CH4CH8NCH3CH2C2H3CH7CHC5NC12H30CH4NSCH2SHCHC3HCHC2H2CH3CH10C3H5NHCHCHC2H3CH6CHCNHCH2FeH6CH3SHC2H2CH3C2
_chemical_formula_sum              "Fe96 S192 C864 H1536 N48"
_cell_length_a       61.0853
_cell_length_b       60.9117
_cell_length_c       30.3074
_cell_angle_alpha    89.7838
_cell_angle_beta     89.6956
_cell_angle_gamma    89.1673

_space_group_name_H-M_alt    "P 1"
_space_group_IT_number       1

loop_
  _space_group_symop_operation_xyz
  'x, y, z'

loop_
  _atom_site_type_symbol
  _atom_site_label
  _atom_site_symmetry_multiplicity
  _atom_site_fract_x
  _atom_site_fract_y
  _atom_site_fract_z
  _atom_site_occupancy
  Fe  Fe1       1.0  0.25530  0.00732  0.80726  1.0000
  S   S1        1.0  0.26245  0.00541  0.88016  1.0000
  S   S2        1.0  0.26302  0.04016  0.77272  1.0000
  Fe  Fe2       1.0  0.22643  0.00092  0.89061  1.0000
  S   S3        1.0  0.20334  0.02314  0.93123  1.0000
  S   S4        1.0  0.21921  0.00351  0.81819  1.0000
  C   C1        1.0  0.23228  0.21561  0.44279  1.0000
  H   H1        1.0  0.23834  0.02651  0.99736  1.0000
  S   S5        1.0  0.03898  0.20556  0.16285  1.0000
  Fe  Fe3       1.0  0.28309  0.13842  0.46740  1.0000
  S   S6        1.0  0.26403  0.13393  0.53088  1.0000
  S   S7        1.0  0.27552  0.13554  0.39355  1.0000
  Fe  Fe4       1.0  0.28240  0.16376  0.55404  1.0000
  S   S8        1.0  0.26678  0.19123  0.59411  1.0000
  Fe  Fe5       1.0  0.29339  0.11496  0.55696  1.0000
  S   S9        1.0  0.29456  0.08025  0.58737  1.0000
  S   S10       1.0  0.29932  0.16936  0.48933  1.0000
  H   H2        1.0  0.99845  0.17221  0.14632  1.0000
  Fe  Fe6       1.0  0.18945  0.14722  0.19699  1.0000
  S   S11       1.0  0.21837  0.14342  0.15169  1.0000
  S   S12       1.0  0.19091  0.14839  0.27244  1.0000
  Fe  Fe7       1.0  0.15684  0.14953  0.12030  1.0000
  S   S13       1.0  0.18362  0.14498  0.06963  1.0000
  S   S14       1.0  0.12324  0.15555  0.08975  1.0000
  Fe  Fe8       1.0  0.19796  0.11917  0.11424  1.0000
  S   S15       1.0  0.21724  0.08806  0.09431  1.0000
  Fe  Fe9       1.0  0.20183  0.16923  0.11020  1.0000
  S   S16       1.0  0.21945  0.19533  0.07176  1.0000
  S   S17       1.0  0.16959  0.12140  0.16231  1.0000
  S   S18       1.0  0.17444  0.17533  0.15820  1.0000
  C   C2        1.0  0.25167  0.13988  0.36113  1.0000
  C   C3        1.0  0.23060  0.14057  0.37942  1.0000
  C   C4        1.0  0.21219  0.14327  0.35185  1.0000
  C   C5        1.0  0.21460  0.14519  0.30578  1.0000
  C   C6        1.0  0.23568  0.14481  0.28762  1.0000
  C   C7        1.0  0.25407  0.14218  0.31515  1.0000
  H   H3        1.0  0.22848  0.13867  0.41468  1.0000
  H   H4        1.0  0.19594  0.14363  0.36626  1.0000
  H   H5        1.0  0.23780  0.14689  0.25242  1.0000
  H   H6        1.0  0.27031  0.14199  0.30074  1.0000
  C   C8        1.0  0.26956  0.21868  0.57596  1.0000
  H   H7        1.0  0.28349  0.21068  0.51261  1.0000
  C   C9        1.0  0.27645  0.09240  0.84493  1.0000
  H   H8        1.0  0.25521  0.11489  0.98656  1.0000
  H   H9        1.0  0.28992  0.08424  0.86342  1.0000
  H   H10       1.0  0.20723  0.18794  0.49713  1.0000
  H   H11       1.0  0.20534  0.09393  0.86415  1.0000
  H   H12       1.0  0.27713  0.08931  0.94854  1.0000
  C   C10       1.0  0.06424  0.19506  0.14228  1.0000
  C   C11       1.0  0.06873  0.19424  0.09703  1.0000
  C   C12       1.0  0.08758  0.18306  0.08151  1.0000
  C   C13       1.0  0.10238  0.17307  0.11103  1.0000
  C   C14       1.0  0.09854  0.17501  0.15640  1.0000
  C   C15       1.0  0.07942  0.18576  0.17189  1.0000
  H   H13       1.0  0.05722  0.20134  0.07386  1.0000
  H   H14       1.0  0.09039  0.18156  0.04636  1.0000
  H   H15       1.0  0.10970  0.16722  0.17945  1.0000
  H   H16       1.0  0.07610  0.18634  0.20697  1.0000
  C   C16       1.0  0.27295  0.05093  0.72167  1.0000
  C   C17       1.0  0.27055  0.07362  0.71336  1.0000
  C   C18       1.0  0.27701  0.08289  0.67261  1.0000
  C   C19       1.0  0.28627  0.06961  0.63969  1.0000
  C   C20       1.0  0.28912  0.04700  0.64834  1.0000
  C   C21       1.0  0.28253  0.03770  0.68901  1.0000
  H   H17       1.0  0.26312  0.08404  0.73821  1.0000
  H   H18       1.0  0.27461  0.10026  0.66647  1.0000
  H   H19       1.0  0.29642  0.03657  0.62329  1.0000
  H   H20       1.0  0.28487  0.02033  0.69506  1.0000
  C   C22       1.0  0.20788  0.04118  0.97639  1.0000
  C   C23       1.0  0.19229  0.05786  0.98534  1.0000
  C   C24       1.0  0.19503  0.07255  0.02075  1.0000
  C   C25       1.0  0.21330  0.07055  0.04816  1.0000
  C   C26       1.0  0.22892  0.05389  0.03924  1.0000
  C   C27       1.0  0.22632  0.03938  0.00344  1.0000
  H   H21       1.0  0.17792  0.05939  0.96476  1.0000
  H   H22       1.0  0.18282  0.08520  0.02724  1.0000
  H   H23       1.0  0.24308  0.05210  0.06030  1.0000
  H   H24       1.0  0.29280  0.03026  0.95564  1.0000
  H   H25       1.0  0.16544  0.21807  0.20217  1.0000
  C   C28       1.0  0.20611  0.03181  0.69309  1.0000
  C   C29       1.0  0.17092  0.99822  0.69817  1.0000
  H   H26       1.0  0.24256  0.22464  0.30598  1.0000
  H   H27       1.0  0.99639  0.12296  0.10800  1.0000
  H   H28       1.0  0.21199  0.05368  0.63686  1.0000
  H   H29       1.0  0.30282  0.20829  0.34848  1.0000
  S   S19       1.0  0.02069  0.23573  0.05140  1.0000
  C   C30       1.0  0.21512  0.07230  0.69611  1.0000
  H   H30       1.0  0.15985  0.23611  0.98011  1.0000
  H   H31       1.0  0.26600  0.20031  0.75246  1.0000
  H   H32       1.0  0.22100  0.23552  0.02258  1.0000
  Fe  Fe10      1.0  0.01488  0.22564  0.12168  1.0000
  C   C31       1.0  0.08552  0.11069  0.13497  1.0000
  H   H33       1.0  0.18857  0.03646  0.68975  1.0000
  H   H34       1.0  0.20972  0.03212  0.72917  1.0000
  N   N1        1.0  0.21051  0.00906  0.67512  1.0000
  H   H35       1.0  0.23986  0.01441  0.17466  1.0000
  H   H36       1.0  0.09231  0.23649  0.16044  1.0000
  C   C32       1.0  0.19594  0.99337  0.70001  1.0000
  H   H37       1.0  0.08969  0.10662  0.10019  1.0000
  C   C33       1.0  0.23395  0.00266  0.68511  1.0000
  S   S20       1.0  0.31045  0.14457  0.58412  1.0000
  H   H38       1.0  0.21661  0.00532  0.20636  1.0000
  H   H39       1.0  0.28054  0.04739  0.99761  1.0000
  H   H40       1.0  0.00944  0.11596  0.03471  1.0000
  H   H41       1.0  0.21564  0.21251  0.24916  1.0000
  H   H42       1.0  0.03007  0.22032  0.89638  1.0000
  H   H43       1.0  0.19745  0.07670  0.69860  1.0000
  H   H44       1.0  0.22208  0.07071  0.72978  1.0000
  H   H45       1.0  0.22371  0.08578  0.67870  1.0000
  H   H46       1.0  0.16660  0.01274  0.71864  1.0000
  H   H47       1.0  0.05280  0.09844  0.13363  1.0000
  H   H48       1.0  0.00414  0.15657  0.07435  1.0000
  H   H49       1.0  0.01133  0.17688  0.22347  1.0000
  H   H50       1.0  0.30580  0.12033  0.70430  1.0000
  H   H51       1.0  0.24555  0.01313  0.66674  1.0000
  H   H52       1.0  0.01224  0.20728  0.93555  1.0000
  H   H53       1.0  0.19957  0.19958  0.29179  1.0000
  H   H54       1.0  0.25556  0.23220  0.63545  1.0000
  C   C34       1.0  0.28773  0.04737  0.96385  1.0000
  H   H55       1.0  0.22448  0.06432  0.90766  1.0000
  H   H56       1.0  0.25399  0.07718  0.97373  1.0000
  H   H57       1.0  0.22095  0.09508  0.95419  1.0000
  H   H58       1.0  0.16544  0.00126  0.66383  1.0000
  H   H59       1.0  0.01654  0.10628  0.13336  1.0000
  C   C35       1.0  0.01402  0.11828  0.10600  1.0000
  H   H60       1.0  0.19449  0.07173  0.80109  1.0000
  N   N2        1.0  0.24344  0.07701  0.23249  1.0000
  C   C36       1.0  0.23816  0.05822  0.20213  1.0000
  C   C37       1.0  0.24847  0.09684  0.20451  1.0000
  C   C38       1.0  0.26274  0.07034  0.26063  1.0000
  C   C39       1.0  0.22440  0.08261  0.26248  1.0000
  C   C40       1.0  0.20262  0.08870  0.23912  1.0000
  C   C41       1.0  0.22796  0.03773  0.22417  1.0000
  C   C42       1.0  0.27199  0.08850  0.29087  1.0000
  C   C43       1.0  0.26955  0.09517  0.17584  1.0000
  C   C44       1.0  0.27225  0.11565  0.14715  1.0000
  C   C45       1.0  0.18364  0.08971  0.27215  1.0000
  C   C46       1.0  0.22413  0.01976  0.19008  1.0000
  H   H61       1.0  0.30248  0.05781  0.96318  1.0000
  H   H62       1.0  0.25319  0.05241  0.18463  1.0000
  H   H63       1.0  0.22696  0.06374  0.17528  1.0000
  H   H64       1.0  0.23474  0.10023  0.18139  1.0000
  H   H65       1.0  0.24945  0.11182  0.22514  1.0000
  H   H66       1.0  0.27638  0.06379  0.23975  1.0000
  H   H67       1.0  0.25827  0.05651  0.28282  1.0000
  H   H68       1.0  0.22147  0.06907  0.28647  1.0000
  H   H69       1.0  0.22819  0.09708  0.28320  1.0000
  H   H70       1.0  0.19828  0.07680  0.21316  1.0000
  H   H71       1.0  0.20403  0.10514  0.22356  1.0000
  H   H72       1.0  0.23888  0.03083  0.25000  1.0000
  H   H73       1.0  0.21186  0.04179  0.23941  1.0000
  H   H74       1.0  0.25974  0.09360  0.31613  1.0000
  H   H75       1.0  0.27680  0.10319  0.27167  1.0000
  H   H76       1.0  0.28433  0.09355  0.19675  1.0000
  H   H77       1.0  0.26899  0.08089  0.15332  1.0000
  H   H78       1.0  0.25869  0.11700  0.12293  1.0000
  H   H79       1.0  0.27239  0.13068  0.16782  1.0000
  H   H80       1.0  0.28793  0.11453  0.12855  1.0000
  H   H81       1.0  0.16858  0.09569  0.25527  1.0000
  H   H82       1.0  0.18050  0.07317  0.28613  1.0000
  H   H83       1.0  0.18728  0.10122  0.29942  1.0000
  H   H84       1.0  0.19109  0.01900  0.61883  1.0000
  H   H85       1.0  0.15544  0.23161  0.06023  1.0000
  C   C47       1.0  0.05224  0.13259  0.10940  1.0000
  H   H86       1.0  0.13522  0.22590  0.12735  1.0000
  H   H87       1.0  0.23768  0.00582  0.72049  1.0000
  H   H88       1.0  0.27420  0.11664  0.79184  1.0000
  C   C48       1.0  0.22523  0.18512  0.49786  1.0000
  H   H89       1.0  0.22843  0.16753  0.50548  1.0000
  H   H90       1.0  0.27202  0.22222  0.41989  1.0000
  C   C49       1.0  0.21844  0.05088  0.67064  1.0000
  C   C50       1.0  0.23552  0.19091  0.45333  1.0000
  H   H91       1.0  0.13866  0.20570  0.19749  1.0000
  H   H92       1.0  0.99988  0.15054  0.23801  1.0000
  H   H93       1.0  0.00657  0.07597  0.03007  1.0000
  C   C51       1.0  0.21322  0.22257  0.08691  1.0000
  C   C52       1.0  0.02214  0.15626  0.08033  1.0000
  C   C53       1.0  0.02335  0.17265  0.00311  1.0000
  H   H94       1.0  0.02589  0.17260  0.09470  1.0000
  H   H95       1.0  0.26768  0.08002  0.82542  1.0000
  H   H96       1.0  0.22788  0.18034  0.42835  1.0000
  H   H97       1.0  0.20732  0.99969  0.53611  1.0000
  H   H98       1.0  0.09121  0.09696  0.15642  1.0000
  H   H99       1.0  0.21777  0.12143  0.01541  1.0000
  N   N3        1.0  0.24778  0.09052  0.90819  1.0000
  H   H100      1.0  0.24210  0.22416  0.46812  1.0000
  N   N4        1.0  0.02809  0.13813  0.11266  1.0000
  N   N5        1.0  0.23850  0.22316  0.39692  1.0000
  C   C54       1.0  0.01681  0.10601  0.06170  1.0000
  H   H101      1.0  0.23237  0.19514  0.52458  1.0000
  H   H102      1.0  0.03268  0.17297  0.97158  1.0000
  C   C55       1.0  0.28695  0.10827  0.81212  1.0000
  H   H103      1.0  0.01192  0.07306  0.08821  1.0000
  H   H104      1.0  0.24979  0.11556  0.85756  1.0000
  H   H105      1.0  0.22853  0.19368  0.36215  1.0000
  H   H106      1.0  0.22144  0.11490  0.91098  1.0000
  H   H107      1.0  0.20696  0.21215  0.37404  1.0000
  C   C56       1.0  0.06084  0.11425  0.14075  1.0000
  C   C57       1.0  0.99852  0.16480  0.21522  1.0000
  C   C58       1.0  0.26279  0.21989  0.38864  1.0000
  C   C59       1.0  0.22567  0.13370  0.99353  1.0000
  C   C60       1.0  0.21636  0.20467  0.28230  1.0000
  H   H108      1.0  0.25325  0.18686  0.45566  1.0000
  H   H109      1.0  0.06193  0.14757  0.11579  1.0000
  C   C61       1.0  0.26088  0.10468  0.87716  1.0000
  C   C62       1.0  0.20620  0.06476  0.82546  1.0000
  H   H110      1.0  0.25692  0.04419  0.93154  1.0000
  C   C63       1.0  0.22401  0.01303  0.59336  1.0000
  C   C64       1.0  0.21810  0.08332  0.84870  1.0000
  C   C65       1.0  0.27028  0.19759  0.36845  1.0000
  C   C66       1.0  0.03406  0.15627  0.03491  1.0000
  H   H111      1.0  0.24120  0.19406  0.72341  1.0000
  C   C67       1.0  0.29520  0.19511  0.36850  1.0000
  H   H112      1.0  0.27843  0.05458  0.89703  1.0000
  H   H113      1.0  0.05135  0.16120  0.03918  1.0000
  C   C68       1.0  0.02375  0.14655  0.15887  1.0000
  C   C69       1.0  0.00090  0.15742  0.16726  1.0000
  H   H114      1.0  0.26482  0.19628  0.33370  1.0000
  H   H115      1.0  0.26352  0.18350  0.38667  1.0000
  H   H116      1.0  0.20489  0.21482  0.15423  1.0000
  H   H117      1.0  0.27133  0.11605  0.89610  1.0000
  H   H118      1.0  0.03628  0.15879  0.16809  1.0000
  C   C70       1.0  0.23215  0.10527  0.93362  1.0000
  H   H119      1.0  0.22689  0.09284  0.82304  1.0000
  C   C71       1.0  0.27091  0.05560  0.93026  1.0000
  H   H120      1.0  0.21287  0.02580  0.16386  1.0000
  H   H121      1.0  0.29823  0.09358  0.33742  1.0000
  C   C72       1.0  0.25402  0.20660  0.72786  1.0000
  C   C73       1.0  0.24286  0.12244  0.96429  1.0000
  C   C74       1.0  0.23423  0.07400  0.88367  1.0000
  H   H122      1.0  0.21295  0.14208  0.97325  1.0000
  H   H123      1.0  0.24468  0.06170  0.86627  1.0000
  C   C75       1.0  0.26254  0.23588  0.60355  1.0000
  H   H124      1.0  0.19694  0.05475  0.84975  1.0000
  H   H125      1.0  0.23041  0.23272  0.71996  1.0000
  H   H126      1.0  0.25094  0.13538  0.94441  1.0000
  H   H127      1.0  0.09443  0.12569  0.14458  1.0000
  C   C76       1.0  0.26260  0.07910  0.94141  1.0000
  C   C77       1.0  0.29226  0.08032  0.31563  1.0000
  H   H128      1.0  0.21810  0.05397  0.80777  1.0000
  H   H129      1.0  0.29805  0.09897  0.78956  1.0000
  H   H130      1.0  0.02538  0.13306  0.18351  1.0000
  H   H131      1.0  0.14607  0.21999  0.24702  1.0000
  H   H132      1.0  0.23624  0.04760  0.66853  1.0000
  H   H133      1.0  0.22713  0.18991  0.27994  1.0000
  H   H134      1.0  0.29997  0.17895  0.35418  1.0000
  C   C78       1.0  0.22450  0.21149  0.36362  1.0000
  H   H135      1.0  0.05703  0.12747  0.07561  1.0000
  H   H136      1.0  0.21483  0.22010  0.44971  1.0000
  C   C79       1.0  0.22552  0.22076  0.31580  1.0000
  C   C80       1.0  0.27816  0.22367  0.53429  1.0000
  H   H137      1.0  0.23354  0.14617  0.01467  1.0000
  H   H138      1.0  0.03431  0.14003  0.01889  1.0000
  H   H139      1.0  0.03422  0.10238  0.05393  1.0000
  H   H140      1.0  0.29666  0.12075  0.82970  1.0000
  H   H141      1.0  0.22923  0.01821  0.52325  1.0000
  H   H142      1.0  0.23571  0.22478  0.77603  1.0000
  H   H143      1.0  0.05799  0.11854  0.17584  1.0000
  H   H144      1.0  0.20353  0.02903  0.54364  1.0000
  H   H145      1.0  0.28826  0.06591  0.33660  1.0000
  C   C81       1.0  0.14778  0.21992  0.21053  1.0000
  S   S21       1.0  0.31108  0.11737  0.49166  1.0000
  C   C82       1.0  0.20647  0.22772  0.12988  1.0000
  H   H146      1.0  0.30557  0.07578  0.29212  1.0000
  H   H147      1.0  0.03415  0.22416  0.95502  1.0000
  C   C83       1.0  0.02170  0.22235  0.92877  1.0000
  H   H148      1.0  0.02324  0.18942  0.01734  1.0000
  H   H149      1.0  0.26255  0.20886  0.69576  1.0000
  H   H150      1.0  0.23252  0.02841  0.60122  1.0000
  H   H151      1.0  0.21550  0.23610  0.31354  1.0000
  H   H152      1.0  0.30153  0.19573  0.40272  1.0000
  C   C84       1.0  0.24349  0.22814  0.74367  1.0000
  H   H153      1.0  0.00624  0.16791  0.99594  1.0000
  C   C85       1.0  0.21539  0.01508  0.54626  1.0000
  C   C86       1.0  0.20521  0.00787  0.62649  1.0000
  H   H154      1.0  0.26907  0.23270  0.36570  1.0000
  C   C87       1.0  0.00484  0.08415  0.06264  1.0000
  H   H155      1.0  0.20057  0.99272  0.73543  1.0000
  H   H156      1.0  0.23650  0.99963  0.59354  1.0000
  H   H157      1.0  0.19956  0.99113  0.61765  1.0000
  H   H158      1.0  0.12957  0.23714  0.03382  1.0000
  H   H159      1.0  0.10572  0.23885  0.08781  1.0000
  H   H160      1.0  0.00389  0.25598  0.83611  1.0000
  H   H161      1.0  0.20524  0.47812  0.94350  1.0000
  S   S22       1.0  0.22495  0.45436  0.42344  1.0000
  N   N6        1.0  0.00501  0.28409  0.91218  1.0000
  S   S23       1.0  0.24205  0.45715  0.20922  1.0000
  C   C88       1.0  0.23981  0.27891  0.89207  1.0000
  Fe  Fe11      1.0  0.00938  0.26890  0.07515  1.0000
  S   S24       1.0  0.02799  0.30049  0.06141  1.0000
  S   S25       1.0  0.00458  0.25908  0.14631  1.0000
  Fe  Fe12      1.0  0.18151  0.36636  0.05706  1.0000
  S   S26       1.0  0.17203  0.36108  0.98551  1.0000
  S   S27       1.0  0.17714  0.39850  0.09610  1.0000
  Fe  Fe13      1.0  0.19260  0.31774  0.06993  1.0000
  S   S28       1.0  0.18520  0.30897  0.99993  1.0000
  S   S29       1.0  0.19901  0.29386  0.12568  1.0000
  Fe  Fe14      1.0  0.20269  0.33994  0.98092  1.0000
  S   S30       1.0  0.23039  0.34240  0.92901  1.0000
  Fe  Fe15      1.0  0.15503  0.33027  0.00923  1.0000
  S   S31       1.0  0.12435  0.31328  0.98367  1.0000
  S   S32       1.0  0.21283  0.34692  0.05146  1.0000
  S   S33       1.0  0.16185  0.33748  0.08014  1.0000
  Fe  Fe16      1.0  0.28752  0.36572  0.58488  1.0000
  S   S34       1.0  0.29694  0.36297  0.65731  1.0000
  S   S35       1.0  0.29130  0.39638  0.54058  1.0000
  Fe  Fe17      1.0  0.27949  0.31642  0.57844  1.0000
  S   S36       1.0  0.28767  0.31005  0.64921  1.0000
  S   S37       1.0  0.27266  0.28998  0.52814  1.0000
  Fe  Fe18      1.0  0.26791  0.34059  0.66472  1.0000
  S   S38       1.0  0.24054  0.33991  0.71781  1.0000
  S   S39       1.0  0.25737  0.34530  0.59342  1.0000
  H   H162      1.0  0.23523  0.29390  0.91093  1.0000
  C   C89       1.0  0.27237  0.26274  0.54778  1.0000
  H   H163      1.0  0.26749  0.24935  0.71316  1.0000
  H   H164      1.0  0.27386  0.41213  0.25459  1.0000
  C   C90       1.0  0.26420  0.25785  0.58975  1.0000
  H   H165      1.0  0.00986  0.31738  0.88882  1.0000
  H   H166      1.0  0.25858  0.27103  0.61091  1.0000
  C   C91       1.0  0.20460  0.26653  0.11030  1.0000
  C   C92       1.0  0.21113  0.26135  0.06728  1.0000
  C   C93       1.0  0.03795  0.30883  0.92996  1.0000
  H   H167      1.0  0.30308  0.46626  0.50443  1.0000
  H   H168      1.0  0.21311  0.27425  0.04308  1.0000
  H   H169      1.0  0.19757  0.25368  0.17510  1.0000
  C   C94       1.0  0.23275  0.34150  0.87020  1.0000
  C   C95       1.0  0.21471  0.33851  0.84269  1.0000
  C   C96       1.0  0.21746  0.33829  0.79632  1.0000
  C   C97       1.0  0.23821  0.34097  0.77664  1.0000
  C   C98       1.0  0.25624  0.34404  0.80416  1.0000
  C   C99       1.0  0.25350  0.34427  0.85054  1.0000
  H   H170      1.0  0.19868  0.33621  0.85713  1.0000
  H   H171      1.0  0.20337  0.33587  0.77550  1.0000
  H   H172      1.0  0.27229  0.34622  0.78971  1.0000
  H   H173      1.0  0.26760  0.34661  0.87136  1.0000
  C   C100      1.0  0.05585  0.30252  0.04442  1.0000
  C   C101      1.0  0.06644  0.28587  0.02037  1.0000
  C   C102      1.0  0.08760  0.28923  0.00285  1.0000
  C   C103      1.0  0.09881  0.30887  0.01063  1.0000
  C   C104      1.0  0.08856  0.32515  0.03615  1.0000
  C   C105      1.0  0.06710  0.32210  0.05236  1.0000
  H   H174      1.0  0.05801  0.27075  0.01381  1.0000
  H   H175      1.0  0.09529  0.27660  0.98283  1.0000
  H   H176      1.0  0.09681  0.34046  0.04191  1.0000
  H   H177      1.0  0.05905  0.33515  0.07067  1.0000
  C   C106      1.0  0.22425  0.43858  0.18221  1.0000
  C   C107      1.0  0.20221  0.43652  0.19403  1.0000
  C   C108      1.0  0.18813  0.42368  0.16816  1.0000
  C   C109      1.0  0.19604  0.41200  0.13117  1.0000
  C   C110      1.0  0.21834  0.41318  0.12076  1.0000
  C   C111      1.0  0.23229  0.42646  0.14597  1.0000
  H   H178      1.0  0.19587  0.44534  0.22226  1.0000
  H   H179      1.0  0.17091  0.42294  0.17655  1.0000
  H   H180      1.0  0.22467  0.40446  0.09233  1.0000
  H   H181      1.0  0.24934  0.42778  0.13658  1.0000
  C   C112      1.0  0.24360  0.43733  0.45376  1.0000
  C   C113      1.0  0.26614  0.43717  0.44539  1.0000
  C   C114      1.0  0.28042  0.42432  0.47183  1.0000
  C   C115      1.0  0.27234  0.41089  0.50607  1.0000
  C   C116      1.0  0.24969  0.41038  0.51318  1.0000
  C   C117      1.0  0.23547  0.42365  0.48744  1.0000
  H   H182      1.0  0.27256  0.44704  0.41878  1.0000
  H   H183      1.0  0.29788  0.42476  0.46580  1.0000
  H   H184      1.0  0.24318  0.40024  0.53939  1.0000
  H   H185      1.0  0.21805  0.42347  0.49405  1.0000
  H   H186      1.0  0.30576  0.41530  0.30371  1.0000
  C   C118      1.0  0.23301  0.27916  0.69506  1.0000
  H   H187      1.0  0.28747  0.47841  0.54923  1.0000
  H   H188      1.0  0.02950  0.26078  0.88852  1.0000
  C   C119      1.0  0.01969  0.30241  0.89716  1.0000
  C   C120      1.0  0.01882  0.26356  0.91793  1.0000
  H   H189      1.0  0.06266  0.27107  0.11551  1.0000
  H   H190      1.0  0.26184  0.47882  0.50033  1.0000
  H   H191      1.0  0.22210  0.48473  0.50263  1.0000
  H   H192      1.0  0.29872  0.44125  0.27817  1.0000
  C   C121      1.0  0.08999  0.25279  0.14438  1.0000
  C   C122      1.0  0.23551  0.37621  0.34622  1.0000
  H   H193      1.0  0.06319  0.24206  0.10280  1.0000
  H   H194      1.0  0.21216  0.28926  0.64079  1.0000
  H   H195      1.0  0.31992  0.28246  0.53711  1.0000
  H   H196      1.0  0.20619  0.30311  0.69193  1.0000
  C   C123      1.0  0.13059  0.28168  0.14286  1.0000
  H   H197      1.0  0.02823  0.29783  0.86596  1.0000
  C   C124      1.0  0.30853  0.29891  0.77490  1.0000
  H   H198      1.0  0.03035  0.26550  0.94596  1.0000
  C   C125      1.0  0.11922  0.32154  0.15434  1.0000
  C   C126      1.0  0.24404  0.26243  0.42849  1.0000
  H   H199      1.0  0.24583  0.36170  0.33683  1.0000
  H   H200      1.0  0.13296  0.27727  0.05315  1.0000
  C   C127      1.0  0.24250  0.28471  0.84323  1.0000
  H   H201      1.0  0.25539  0.27223  0.90569  1.0000
  C   C128      1.0  0.27119  0.41960  0.28758  1.0000
  H   H202      1.0  0.13642  0.32551  0.16248  1.0000
  C   C129      1.0  0.29207  0.28099  0.78591  1.0000
  H   H203      1.0  0.25812  0.37170  0.98943  1.0000
  S   S40       1.0  0.20789  0.48168  0.31203  1.0000
  Fe  Fe19      1.0  0.23181  0.47948  0.36870  1.0000
  H   H204      1.0  0.00601  0.28369  0.81595  1.0000
  H   H205      1.0  0.12389  0.27960  0.17658  1.0000
  H   H206      1.0  0.11011  0.31799  0.18530  1.0000
  C   C130      1.0  0.21701  0.36642  0.20792  1.0000
  H   H207      1.0  0.20052  0.36134  0.19691  1.0000
  H   H208      1.0  0.22367  0.37794  0.18294  1.0000
  H   H209      1.0  0.09932  0.26686  0.08098  1.0000
  H   H210      1.0  0.29167  0.43645  0.33515  1.0000
  H   H211      1.0  0.16630  0.46613  0.25822  1.0000
  H   H212      1.0  0.15872  0.24226  0.13387  1.0000
  H   H213      1.0  0.03936  0.34336  0.91097  1.0000
  C   C131      1.0  0.21093  0.28705  0.67713  1.0000
  C   C132      1.0  0.21528  0.37741  0.25313  1.0000
  H   H214      1.0  0.22777  0.35157  0.20953  1.0000
  H   H215      1.0  0.18382  0.43476  0.30101  1.0000
  H   H216      1.0  0.15372  0.39017  0.84208  1.0000
  H   H217      1.0  0.22676  0.29205  0.83204  1.0000
  H   H218      1.0  0.21495  0.25017  0.39684  1.0000
  H   H219      1.0  0.14764  0.26327  0.98226  1.0000
  C   C133      1.0  0.26073  0.24655  0.74694  1.0000
  H   H220      1.0  0.23456  0.25270  0.82018  1.0000
  H   H221      1.0  0.21816  0.26526  0.75419  1.0000
  H   H222      1.0  0.06361  0.33267  0.93761  1.0000
  C   C134      1.0  0.24007  0.28670  0.41769  1.0000
  H   H223      1.0  0.14781  0.46432  0.21186  1.0000
  H   H224      1.0  0.14806  0.28618  0.14782  1.0000
  H   H225      1.0  0.17323  0.36930  0.85857  1.0000
  C   C135      1.0  0.14534  0.24443  0.04351  1.0000
  C   C136      1.0  0.27039  0.28480  0.76038  1.0000
  H   H226      1.0  0.17361  0.25769  0.00881  1.0000
  C   C137      1.0  0.14165  0.26475  0.07363  1.0000
  C   C138      1.0  0.29320  0.42865  0.30221  1.0000
  N   N7        1.0  0.25290  0.26788  0.76724  1.0000
  H   H227      1.0  0.24777  0.29699  0.44334  1.0000
  H   H228      1.0  0.30177  0.31536  0.78369  1.0000
  H   H229      1.0  0.22225  0.29059  0.41722  1.0000
  H   H230      1.0  0.99475  0.32566  0.95613  1.0000
  H   H231      1.0  0.11151  0.33611  0.13822  1.0000
  C   C139      1.0  0.27946  0.24561  0.52018  1.0000
  H   H232      1.0  0.19276  0.39540  0.31929  1.0000
  N   N8        1.0  0.22064  0.41288  0.90575  1.0000
  C   C140      1.0  0.20234  0.39669  0.90108  1.0000
  C   C141      1.0  0.23864  0.40238  0.93281  1.0000
  C   C142      1.0  0.21150  0.43321  0.92787  1.0000
  C   C143      1.0  0.22997  0.41918  0.86134  1.0000
  C   C144      1.0  0.23833  0.39981  0.83225  1.0000
  C   C145      1.0  0.18411  0.40296  0.86763  1.0000
  C   C146      1.0  0.22847  0.45055  0.94185  1.0000
  C   C147      1.0  0.23276  0.39698  0.98152  1.0000
  C   C148      1.0  0.25254  0.38715  0.00563  1.0000
  C   C149      1.0  0.24504  0.40771  0.78629  1.0000
  C   C150      1.0  0.16622  0.38568  0.86713  1.0000
  H   H233      1.0  0.24554  0.47361  0.11659  1.0000
  H   H234      1.0  0.19409  0.39417  0.93342  1.0000
  H   H235      1.0  0.20886  0.38021  0.89199  1.0000
  H   H236      1.0  0.24402  0.38658  0.91769  1.0000
  H   H237      1.0  0.25356  0.41264  0.93232  1.0000
  H   H238      1.0  0.20167  0.42873  0.95759  1.0000
  H   H239      1.0  0.19974  0.44184  0.90565  1.0000
  H   H240      1.0  0.21782  0.42903  0.84210  1.0000
  H   H241      1.0  0.24419  0.43016  0.86550  1.0000
  H   H242      1.0  0.22568  0.38718  0.82779  1.0000
  H   H243      1.0  0.25294  0.39186  0.84736  1.0000
  H   H244      1.0  0.17625  0.41890  0.87623  1.0000
  H   H245      1.0  0.19077  0.40410  0.83359  1.0000
  H   H246      1.0  0.23715  0.45723  0.91260  1.0000
  H   H247      1.0  0.24081  0.44352  0.96480  1.0000
  H   H248      1.0  0.22736  0.41180  0.99996  1.0000
  H   H249      1.0  0.21945  0.38481  0.98316  1.0000
  C   C151      1.0  0.15734  0.25084  0.00109  1.0000
  S   S41       1.0  0.30911  0.33686  0.56558  1.0000
  H   H250      1.0  0.00595  0.28806  0.98326  1.0000
  H   H251      1.0  0.23079  0.41514  0.76884  1.0000
  H   H252      1.0  0.25834  0.41990  0.78843  1.0000
  H   H253      1.0  0.25113  0.39349  0.76657  1.0000
  H   H254      1.0  0.20865  0.46396  0.99576  1.0000
  Fe  Fe20      1.0  0.23766  0.48004  0.26874  1.0000
  H   H255      1.0  0.23736  0.26361  0.67819  1.0000
  C   C152      1.0  0.06631  0.25441  0.12874  1.0000
  H   H256      1.0  0.14824  0.25491  0.20602  1.0000
  H   H257      1.0  0.27415  0.38813  0.32031  1.0000
  C   C153      1.0  0.30335  0.47848  0.53136  1.0000
  H   H258      1.0  0.22666  0.26670  0.89680  1.0000
  H   H259      1.0  0.22738  0.29254  0.75933  1.0000
  H   H260      1.0  0.29975  0.26500  0.77700  1.0000
  H   H261      1.0  0.30829  0.47958  0.35333  1.0000
  H   H262      1.0  0.23426  0.46241  0.06700  1.0000
  H   H263      1.0  0.24520  0.29166  0.68569  1.0000
  H   H264      1.0  0.12593  0.30693  0.09140  1.0000
  C   C154      1.0  0.15387  0.47517  0.23839  1.0000
  Fe  Fe21      1.0  0.31619  0.33239  0.63757  1.0000
  C   C155      1.0  0.20249  0.24971  0.14170  1.0000
  H   H265      1.0  0.23551  0.36808  0.46103  1.0000
  C   C156      1.0  0.21724  0.46979  0.96558  1.0000
  H   H266      1.0  0.05004  0.29519  0.93361  1.0000
  H   H267      1.0  0.26404  0.30153  0.76834  1.0000
  H   H268      1.0  0.15800  0.38467  0.89984  1.0000
  H   H269      1.0  0.19093  0.44201  0.35713  1.0000
  H   H270      1.0  0.05824  0.32548  0.88111  1.0000
  H   H271      1.0  0.20324  0.39116  0.24987  1.0000
  C   C157      1.0  0.10619  0.25488  0.10518  1.0000
  H   H272      1.0  0.19803  0.27485  0.68434  1.0000
  C   C158      1.0  0.26254  0.40243  0.32102  1.0000
  C   C159      1.0  0.24848  0.26404  0.81569  1.0000
  N   N9        1.0  0.12942  0.26075  0.11639  1.0000
  H   H273      1.0  0.28887  0.47894  0.44462  1.0000
  H   H274      1.0  0.26423  0.40998  0.35425  1.0000
  C   C160      1.0  0.99505  0.27191  0.83276  1.0000
  H   H275      1.0  0.23719  0.34754  0.41845  1.0000
  H   H276      1.0  0.20892  0.36502  0.27654  1.0000
  C   C161      1.0  0.11840  0.30193  0.12311  1.0000
  C   C162      1.0  0.24063  0.38129  0.39532  1.0000
  H   H277      1.0  0.16836  0.42416  0.34698  1.0000
  H   H278      1.0  0.24104  0.39979  0.24338  1.0000
  C   C163      1.0  0.23085  0.36425  0.42652  1.0000
  H   H279      1.0  0.10087  0.29847  0.11738  1.0000
  H   H280      1.0  0.15811  0.27168  0.08045  1.0000
  H   H281      1.0  0.23784  0.25405  0.36115  1.0000
  H   H282      1.0  0.25530  0.29734  0.84071  1.0000
  H   H283      1.0  0.25863  0.38110  0.40067  1.0000
  H   H284      1.0  0.20076  0.40347  0.37331  1.0000
  H   H285      1.0  0.26270  0.25558  0.83154  1.0000
  C   C164      1.0  0.18499  0.42871  0.33552  1.0000
  H   H286      1.0  0.24798  0.38322  0.04024  1.0000
  C   C165      1.0  0.23209  0.27615  0.74589  1.0000
  C   C166      1.0  0.22376  0.41416  0.32154  1.0000
  H   H287      1.0  0.03121  0.31287  0.96299  1.0000
  H   H288      1.0  0.21270  0.36454  0.42442  1.0000
  C   C167      1.0  0.23768  0.38646  0.26758  1.0000
  H   H289      1.0  0.27502  0.28564  0.72498  1.0000
  H   H290      1.0  0.22226  0.42406  0.29065  1.0000
  C   C168      1.0  0.20030  0.40874  0.33823  1.0000
  H   H291      1.0  0.25042  0.37348  0.26179  1.0000
  H   H292      1.0  0.09195  0.26575  0.16941  1.0000
  H   H293      1.0  0.25942  0.43347  0.28431  1.0000
  H   H294      1.0  0.21848  0.37029  0.34453  1.0000
  H   H295      1.0  0.23050  0.42576  0.34616  1.0000
  N   N10       1.0  0.23930  0.39491  0.31428  1.0000
  H   H296      1.0  0.24744  0.29097  0.38526  1.0000
  H   H297      1.0  0.28930  0.28129  0.82209  1.0000
  C   C169      1.0  0.05048  0.32883  0.91367  1.0000
  H   H298      1.0  0.23426  0.39773  0.40493  1.0000
  H   H299      1.0  0.26622  0.39895  0.00606  1.0000
  H   H300      1.0  0.20482  0.46817  0.12036  1.0000
  H   H301      1.0  0.26199  0.25947  0.42923  1.0000
  H   H302      1.0  0.28614  0.24934  0.48798  1.0000
  H   H303      1.0  0.23723  0.25957  0.46203  1.0000
  S   S42       1.0  0.26143  0.47685  0.32526  1.0000
  C   C170      1.0  0.99407  0.28942  0.95569  1.0000
  H   H304      1.0  0.05510  0.25141  0.15698  1.0000
  C   C171      1.0  0.23300  0.24743  0.39400  1.0000
  H   H305      1.0  0.17959  0.47564  0.16922  1.0000
  H   H306      1.0  0.31273  0.29875  0.73916  1.0000
  H   H307      1.0  0.22968  0.48191  0.97554  1.0000
  H   H308      1.0  0.27469  0.23961  0.76615  1.0000
  H   H309      1.0  0.31213  0.45777  0.39373  1.0000
  H   H310      1.0  0.13992  0.47959  0.26042  1.0000
  H   H311      1.0  0.12147  0.24316  0.20263  1.0000
  H   H312      1.0  0.31405  0.27497  0.59351  1.0000
  C   C172      1.0  0.13865  0.24138  0.19148  1.0000
  C   C173      1.0  0.14078  0.24198  0.14041  1.0000
  C   C174      1.0  0.31860  0.47355  0.38105  1.0000
  H   H313      1.0  0.16804  0.48058  0.09745  1.0000
  C   C175      1.0  0.23464  0.47724  0.08818  1.0000
  H   H314      1.0  0.99796  0.24346  0.96050  1.0000
  H   H315      1.0  0.31659  0.45397  0.57633  1.0000
  H   H316      1.0  0.99349  0.23893  0.90277  1.0000
  C   C176      1.0  0.21146  0.48296  0.10410  1.0000
  C   C177      1.0  0.00614  0.24223  0.92785  1.0000
  H   H317      1.0  0.20168  0.48682  0.07427  1.0000
  H   H318      1.0  0.19735  0.48601  0.20933  1.0000
  C   C178      1.0  0.32075  0.47064  0.56411  1.0000
  C   C179      1.0  0.21565  0.23943  0.05575  1.0000
  H   H319      1.0  0.13422  0.48829  0.05633  1.0000
  Fe  Fe22      1.0  0.21295  0.51838  0.31411  1.0000
  S   S43       1.0  0.24115  0.51690  0.26596  1.0000
  S   S44       1.0  0.18690  0.54445  0.29814  1.0000
  Fe  Fe23      1.0  0.26173  0.51390  0.32660  1.0000
  S   S45       1.0  0.29214  0.53392  0.34014  1.0000
  S   S46       1.0  0.23373  0.51645  0.37496  1.0000
  H   H320      1.0  0.26993  0.51967  0.52481  1.0000
  Fe  Fe24      1.0  0.15868  0.66643  0.38368  1.0000
  S   S47       1.0  0.15496  0.67613  0.31300  1.0000
  S   S48       1.0  0.17284  0.63334  0.40669  1.0000
  Fe  Fe25      1.0  0.14401  0.71205  0.41742  1.0000
  S   S49       1.0  0.13960  0.72514  0.34758  1.0000
  N   N11       1.0  0.30270  0.70906  0.93650  1.0000
  Fe  Fe26      1.0  0.12342  0.69321  0.33249  1.0000
  S   S50       1.0  0.09518  0.68691  0.28437  1.0000
  Fe  Fe27      1.0  0.17123  0.70732  0.33256  1.0000
  S   S51       1.0  0.19649  0.71868  0.28313  1.0000
  S   S52       1.0  0.12570  0.68088  0.40309  1.0000
  S   S53       1.0  0.17709  0.69680  0.40254  1.0000
  S   S54       1.0  0.00632  0.71372  0.08833  1.0000
  H   H321      1.0  0.18489  0.57422  0.19818  1.0000
  C   C180      1.0  0.07554  0.70499  0.25960  1.0000
  C   C181      1.0  0.06079  0.69641  0.22878  1.0000
  C   C182      1.0  0.04460  0.70988  0.20888  1.0000
  H   H322      1.0  0.05208  0.69115  0.63962  1.0000
  H   H323      1.0  0.11844  0.58872  0.45880  1.0000
  S   S55       1.0  0.03810  0.73228  0.98623  1.0000
  H   H324      1.0  0.06170  0.67915  0.22061  1.0000
  H   H325      1.0  0.03310  0.70291  0.18602  1.0000
  H   H326      1.0  0.20977  0.58393  0.17307  1.0000
  H   H327      1.0  0.16195  0.70808  0.61899  1.0000
  H   H328      1.0  0.14666  0.49024  0.13284  1.0000
  H   H329      1.0  0.27328  0.59663  0.24347  1.0000
  C   C183      1.0  0.09835  0.72207  0.13536  1.0000
  C   C184      1.0  0.26794  0.72269  0.32605  1.0000
  C   C185      1.0  0.26262  0.71797  0.28238  1.0000
  C   C186      1.0  0.24063  0.71677  0.26964  1.0000
  C   C187      1.0  0.22382  0.71949  0.30084  1.0000
  H   H330      1.0  0.09374  0.69788  0.74329  1.0000
  H   H331      1.0  0.11347  0.73889  0.21564  1.0000
  H   H332      1.0  0.27541  0.71588  0.25813  1.0000
  H   H333      1.0  0.23659  0.71356  0.23560  1.0000
  H   H334      1.0  0.15051  0.50530  0.20146  1.0000
  C   C188      1.0  0.11789  0.73726  0.14413  1.0000
  C   C189      1.0  0.29510  0.56091  0.31867  1.0000
  C   C190      1.0  0.28092  0.56931  0.28650  1.0000
  C   C191      1.0  0.28417  0.59045  0.26883  1.0000
  H   H335      1.0  0.26764  0.55942  0.27468  1.0000
  H   H336      1.0  0.05301  0.65511  0.09710  1.0000
  C   C192      1.0  0.18442  0.56954  0.32769  1.0000
  C   C193      1.0  0.17509  0.58815  0.30698  1.0000
  C   C194      1.0  0.17199  0.60801  0.33022  1.0000
  C   C195      1.0  0.17760  0.60927  0.37484  1.0000
  C   C196      1.0  0.18683  0.59064  0.39550  1.0000
  C   C197      1.0  0.19046  0.57098  0.37199  1.0000
  H   H337      1.0  0.17032  0.58721  0.27278  1.0000
  H   H338      1.0  0.16510  0.62228  0.31381  1.0000
  H   H339      1.0  0.19109  0.59138  0.43007  1.0000
  H   H340      1.0  0.19732  0.55673  0.38854  1.0000
  C   C198      1.0  0.30016  0.69329  0.97473  1.0000
  H   H341      1.0  0.25185  0.62570  0.30553  1.0000
  H   H342      1.0  0.12159  0.71410  0.97133  1.0000
  H   H343      1.0  0.23981  0.64862  0.46153  1.0000
  H   H344      1.0  0.23491  0.67322  0.30389  1.0000
  C   C199      1.0  0.25521  0.49409  0.48551  1.0000
  H   H345      1.0  0.23239  0.57574  0.41486  1.0000
  H   H346      1.0  0.24738  0.69374  0.85765  1.0000
  H   H347      1.0  0.26085  0.58010  0.42785  1.0000
  H   H348      1.0  0.22514  0.63560  0.31963  1.0000
  H   H349      1.0  0.07938  0.72608  0.94199  1.0000
  H   H350      1.0  0.09081  0.71003  0.02694  1.0000
  H   H351      1.0  0.08908  0.70047  0.66834  1.0000
  H   H352      1.0  0.18039  0.52233  0.09348  1.0000
  H   H353      1.0  0.26387  0.66685  0.30171  1.0000
  C   C200      1.0  0.07825  0.71378  0.65550  1.0000
  H   H354      1.0  0.26055  0.68413  0.93376  1.0000
  H   H355      1.0  0.26634  0.72595  0.17667  1.0000
  C   C201      1.0  0.07079  0.68571  0.09830  1.0000
  H   H356      1.0  0.21940  0.65743  0.38755  1.0000
  H   H357      1.0  0.25370  0.56276  0.38233  1.0000
  H   H358      1.0  0.25228  0.49080  0.45008  1.0000
  C   C202      1.0  0.30145  0.60356  0.28335  1.0000
  H   H359      1.0  0.16919  0.50626  0.24682  1.0000
  C   C203      1.0  0.10600  0.71019  0.75299  1.0000
  H   H360      1.0  0.25923  0.66928  0.44475  1.0000
  C   C204      1.0  0.14470  0.50213  0.06646  1.0000
  H   H361      1.0  0.25775  0.64374  0.23509  1.0000
  C   C205      1.0  0.31914  0.49065  0.41776  1.0000
  C   C206      1.0  0.24534  0.65614  0.24593  1.0000
  H   H362      1.0  0.22509  0.51358  0.49130  1.0000
  H   H363      1.0  0.30046  0.67608  0.96232  1.0000
  H   H364      1.0  0.28806  0.69218  0.88137  1.0000
  H   H365      1.0  0.24827  0.67160  0.22746  1.0000
  H   H366      1.0  0.23184  0.68527  0.49389  1.0000
  H   H367      1.0  0.29541  0.72462  0.18751  1.0000
  C   C207      1.0  0.28285  0.72897  0.16271  1.0000
  C   C208      1.0  0.24900  0.57787  0.40068  1.0000
  C   C209      1.0  0.22909  0.72347  0.34493  1.0000
  H   H368      1.0  0.27417  0.71635  0.09784  1.0000
  H   H369      1.0  0.21117  0.56696  0.22182  1.0000
  C   C210      1.0  0.24729  0.66038  0.29541  1.0000
  H   H370      1.0  0.28401  0.69521  0.99118  1.0000
  C   C211      1.0  0.20348  0.54942  0.16131  1.0000
  H   H371      1.0  0.22110  0.54638  0.15402  1.0000
  C   C212      1.0  0.21145  0.50298  0.13542  1.0000
  S   S56       1.0  0.29540  0.72642  0.34136  1.0000
  C   C213      1.0  0.30816  0.50196  0.51435  1.0000
  N   N12       1.0  0.09106  0.61725  0.34226  1.0000
  C   C214      1.0  0.09678  0.60597  0.38521  1.0000
  C   C215      1.0  0.07286  0.60491  0.32029  1.0000
  C   C216      1.0  0.11098  0.61575  0.31242  1.0000
  C   C217      1.0  0.08483  0.64120  0.34801  1.0000
  C   C218      1.0  0.07331  0.64796  0.39183  1.0000
  C   C219      1.0  0.11812  0.61380  0.40726  1.0000
  C   C220      1.0  0.10762  0.62349  0.26400  1.0000
  C   C221      1.0  0.05084  0.60373  0.34564  1.0000
  C   C222      1.0  0.03490  0.58863  0.32217  1.0000
  C   C223      1.0  0.06389  0.67132  0.38884  1.0000
  C   C224      1.0  0.11941  0.60686  0.45565  1.0000
  C   C225      1.0  0.12947  0.62616  0.23992  1.0000
  H   H372      1.0  0.09879  0.58793  0.37997  1.0000
  H   H373      1.0  0.08333  0.60758  0.40969  1.0000
  H   H374      1.0  0.06859  0.61260  0.28806  1.0000
  H   H375      1.0  0.07848  0.58780  0.31281  1.0000
  H   H376      1.0  0.11753  0.59856  0.31133  1.0000
  H   H377      1.0  0.12447  0.62583  0.32592  1.0000
  H   H378      1.0  0.09959  0.65166  0.34586  1.0000
  H   H379      1.0  0.07431  0.64686  0.32015  1.0000
  H   H380      1.0  0.08522  0.64757  0.41937  1.0000
  H   H381      1.0  0.05978  0.63696  0.40090  1.0000
  H   H382      1.0  0.13242  0.60629  0.39000  1.0000
  H   H383      1.0  0.11965  0.63189  0.40534  1.0000
  H   H384      1.0  0.09868  0.63945  0.26256  1.0000
  H   H385      1.0  0.09818  0.61115  0.24543  1.0000
  H   H386      1.0  0.05295  0.59732  0.37962  1.0000
  H   H387      1.0  0.04299  0.62027  0.34681  1.0000
  H   H388      1.0  0.04190  0.67613  0.06129  1.0000
  H   H389      1.0  0.13529  0.61215  0.46951  1.0000
  H   H390      1.0  0.04158  0.57158  0.32081  1.0000
  H   H391      1.0  0.05113  0.67243  0.36289  1.0000
  H   H392      1.0  0.05637  0.67605  0.42092  1.0000
  H   H393      1.0  0.07697  0.68320  0.38085  1.0000
  H   H394      1.0  0.03779  0.67779  0.12045  1.0000
  H   H395      1.0  0.13920  0.63923  0.25561  1.0000
  H   H396      1.0  0.13901  0.61050  0.24031  1.0000
  H   H397      1.0  0.12646  0.63101  0.20510  1.0000
  C   C226      1.0  0.28558  0.63235  0.41452  1.0000
  H   H398      1.0  0.26627  0.59902  0.35617  1.0000
  H   H399      1.0  0.31061  0.65720  0.42116  1.0000
  H   H400      1.0  0.30599  0.51288  0.54340  1.0000
  H   H401      1.0  0.10598  0.61474  0.47503  1.0000
  H   H402      1.0  0.20987  0.67557  0.46023  1.0000
  C   C227      1.0  0.06558  0.72513  0.69409  1.0000
  H   H403      1.0  0.08234  0.67931  0.07293  1.0000
  H   H404      1.0  0.27820  0.66041  0.37202  1.0000
  H   H405      1.0  0.22333  0.61889  0.39263  1.0000
  H   H406      1.0  0.27755  0.63711  0.44588  1.0000
  H   H407      1.0  0.28367  0.55451  0.50413  1.0000
  C   C228      1.0  0.17263  0.51454  0.12285  1.0000
  H   H408      1.0  0.15491  0.70481  0.53847  1.0000
  C   C229      1.0  0.11562  0.73408  0.02989  1.0000
  H   H409      1.0  0.07756  0.68192  0.13143  1.0000
  H   H410      1.0  0.03167  0.59460  0.28808  1.0000
  C   C230      1.0  0.29589  0.49513  0.43690  1.0000
  H   H411      1.0  0.24173  0.67485  0.37480  1.0000
  C   C231      1.0  0.12882  0.70062  0.74373  1.0000
  H   H412      1.0  0.19479  0.55311  0.13003  1.0000
  C   C232      1.0  0.24938  0.59752  0.36922  1.0000
  H   H413      1.0  0.28552  0.61418  0.41256  1.0000
  C   C233      1.0  0.07399  0.72733  0.27000  1.0000
  H   H414      1.0  0.28233  0.63530  0.34441  1.0000
  H   H415      1.0  0.21754  0.51667  0.11466  1.0000
  C   C234      1.0  0.04954  0.67298  0.09398  1.0000
  H   H416      1.0  0.22870  0.65028  0.23793  1.0000
  N   N13       1.0  0.18987  0.50912  0.15702  1.0000
  C   C235      1.0  0.22703  0.68136  0.45956  1.0000
  C   C236      1.0  0.19351  0.52924  0.18503  1.0000
  C   C237      1.0  0.18331  0.49077  0.18774  1.0000
  H   H417      1.0  0.22799  0.69661  0.43941  1.0000
  C   C238      1.0  0.28649  0.71330  0.12406  1.0000
  C   C239      1.0  0.20220  0.56984  0.19045  1.0000
  C   C240      1.0  0.30342  0.53219  0.46174  1.0000
  H   H418      1.0  0.20432  0.52509  0.21331  1.0000
  H   H419      1.0  0.17780  0.53500  0.20014  1.0000
  H   H420      1.0  0.24619  0.61817  0.42730  1.0000
  C   C241      1.0  0.24220  0.66347  0.44100  1.0000
  H   H421      1.0  0.23848  0.59392  0.34094  1.0000
  N   N14       1.0  0.24942  0.63999  0.37077  1.0000
  C   C242      1.0  0.24156  0.61906  0.39207  1.0000
  C   C243      1.0  0.23745  0.65923  0.39165  1.0000
  C   C244      1.0  0.24293  0.63928  0.32272  1.0000
  C   C245      1.0  0.27398  0.64267  0.37367  1.0000
  C   C246      1.0  0.30106  0.55135  0.49517  1.0000
  H   H422      1.0  0.31749  0.63100  0.44562  1.0000
  C   C247      1.0  0.04292  0.73218  0.21949  1.0000
  N   N15       1.0  0.29452  0.51026  0.47622  1.0000
  H   H423      1.0  0.24155  0.49102  0.06874  1.0000
  H   H424      1.0  0.22740  0.70017  0.89994  1.0000
  C   C248      1.0  0.28436  0.70630  0.90364  1.0000
  C   C249      1.0  0.24374  0.70445  0.88643  1.0000
  H   H425      1.0  0.05202  0.71622  0.60712  1.0000
  C   C250      1.0  0.31222  0.57412  0.33373  1.0000
  C   C251      1.0  0.10114  0.71689  0.05375  1.0000
  H   H426      1.0  0.08877  0.72521  0.63684  1.0000
  H   H427      1.0  0.05781  0.71154  0.71297  1.0000
  H   H428      1.0  0.25643  0.71206  0.95008  1.0000
  H   H429      1.0  0.31842  0.63411  0.38653  1.0000
  H   H430      1.0  0.13131  0.71677  0.19729  1.0000
  N   N16       1.0  0.08684  0.72487  0.09168  1.0000
  H   H431      1.0  0.31576  0.71127  0.02864  1.0000
  C   C252      1.0  0.06255  0.70340  0.62278  1.0000
  C   C253      1.0  0.27086  0.51380  0.49007  1.0000
  C   C254      1.0  0.16365  0.49603  0.21884  1.0000
  C   C255      1.0  0.15111  0.72001  0.55536  1.0000
  C   C256      1.0  0.15506  0.72193  0.60115  1.0000
  H   H432      1.0  0.31771  0.66077  0.03221  1.0000
  H   H433      1.0  0.22414  0.49999  0.16125  1.0000
  H   H434      1.0  0.07209  0.69494  0.59638  1.0000
  H   H435      1.0  0.14160  0.71206  0.75510  1.0000
  H   H436      1.0  0.15556  0.50642  0.03828  1.0000
  H   H437      1.0  0.10491  0.70504  0.13890  1.0000
  H   H438      1.0  0.13114  0.69761  0.70784  1.0000
  C   C257      1.0  0.15827  0.49531  0.10658  1.0000
  H   H439      1.0  0.16084  0.52719  0.13555  1.0000
  H   H440      1.0  0.30322  0.71532  0.11012  1.0000
  C   C258      1.0  0.31535  0.59539  0.31632  1.0000
  C   C259      1.0  0.26115  0.70144  0.92208  1.0000
  S   S57       1.0  0.30474  0.62983  0.25877  1.0000
  H   H441      1.0  0.28498  0.69609  0.13584  1.0000
  H   H442      1.0  0.25514  0.72919  0.39120  1.0000
  H   H443      1.0  0.13097  0.68481  0.76162  1.0000
  H   H444      1.0  0.28319  0.72103  0.88170  1.0000
  C   C260      1.0  0.30949  0.63914  0.41696  1.0000
  H   H445      1.0  0.05569  0.71565  0.12071  1.0000
  C   C261      1.0  0.10217  0.73238  0.72862  1.0000
  H   H446      1.0  0.13393  0.51644  0.07450  1.0000
  H   H447      1.0  0.24302  0.72183  0.87524  1.0000
  H   H448      1.0  0.01910  0.58841  0.34048  1.0000
  H   H449      1.0  0.26310  0.52705  0.46966  1.0000
  C   C262      1.0  0.12633  0.73414  0.19124  1.0000
  H   H450      1.0  0.14079  0.73587  0.97923  1.0000
  C   C263      1.0  0.23299  0.49901  0.50700  1.0000
  C   C264      1.0  0.13106  0.72313  0.99647  1.0000
  H   H451      1.0  0.11034  0.73141  0.69596  1.0000
  Fe  Fe28      1.0  0.32003  0.70606  0.30334  1.0000
  H   H452      1.0  0.29771  0.67781  0.06077  1.0000
  C   C265      1.0  0.06665  0.71082  0.09296  1.0000
  H   H453      1.0  0.05685  0.71350  0.06249  1.0000
  H   H454      1.0  0.13162  0.73312  0.12145  1.0000
  H   H455      1.0  0.27908  0.72981  0.00519  1.0000
  H   H456      1.0  0.11197  0.70308  0.06472  1.0000
  H   H457      1.0  0.31037  0.54776  0.52575  1.0000
  C   C266      1.0  0.25114  0.72543  0.35736  1.0000
  C   C267      1.0  0.30390  0.73260  0.95167  1.0000
  H   H458      1.0  0.03062  0.72338  0.81553  1.0000
  S   S58       1.0  0.13582  0.73609  0.47406  1.0000
  H   H459      1.0  0.29520  0.53770  0.43085  1.0000
  H   H460      1.0  0.23487  0.50193  0.54291  1.0000
  C   C268      1.0  0.14206  0.73768  0.53166  1.0000
  H   H461      1.0  0.10455  0.71271  0.78922  1.0000
  S   S59       1.0  0.31307  0.68915  0.23971  1.0000
  H   H462      1.0  0.30770  0.58627  0.49926  1.0000
  H   H463      1.0  0.30130  0.57697  0.44445  1.0000
  H   H464      1.0  0.31639  0.70589  0.84256  1.0000
  H   H465      1.0  0.14255  0.71159  0.01331  1.0000
  H   H466      1.0  0.08650  0.72398  0.16320  1.0000
  C   C269      1.0  0.31453  0.67724  0.04672  1.0000
  H   H467      1.0  0.06761  0.72176  0.78228  1.0000
  C   C270      1.0  0.31001  0.57260  0.47544  1.0000
  H   H468      1.0  0.28554  0.50181  0.40966  1.0000
  H   H469      1.0  0.21618  0.72580  0.36911  1.0000
  H   H470      1.0  0.08515  0.73419  0.29369  1.0000
  H   H471      1.0  0.05158  0.73460  0.67969  1.0000
  Fe  Fe29      1.0  0.00829  0.73820  0.03202  1.0000
  H   H472      1.0  0.31914  0.73523  0.97083  1.0000
  C   C271      1.0  0.31745  0.69516  0.01184  1.0000
  Fe  Fe30      1.0  0.22465  0.96694  0.81403  1.0000
  S   S60       1.0  0.22847  0.96384  0.88729  1.0000
  S   S61       1.0  0.20239  0.94744  0.76884  1.0000
  Fe  Fe31      1.0  0.26426  0.96857  0.87140  1.0000
  S   S62       1.0  0.28830  0.94712  0.91006  1.0000
  S   S63       1.0  0.26047  0.97068  0.79747  1.0000
  S   S64       1.0  0.29658  0.76142  0.82798  1.0000
  Fe  Fe32      1.0  0.17262  0.77813  0.82798  1.0000
  S   S65       1.0  0.18230  0.78848  0.75947  1.0000
  S   S66       1.0  0.19663  0.76957  0.88215  1.0000
  Fe  Fe33      1.0  0.12367  0.78595  0.81312  1.0000
  S   S67       1.0  0.12985  0.79722  0.74312  1.0000
  S   S68       1.0  0.08880  0.78942  0.84092  1.0000
  Fe  Fe34      1.0  0.15338  0.76868  0.73711  1.0000
  H   H473      1.0  0.04767  0.75066  0.11690  1.0000
  Fe  Fe35      1.0  0.15820  0.81627  0.77053  1.0000
  S   S69       1.0  0.16360  0.85124  0.74539  1.0000
  S   S70       1.0  0.14555  0.75616  0.80600  1.0000
  S   S71       1.0  0.15015  0.80709  0.84033  1.0000
  C   C272      1.0  0.06558  0.87346  0.91682  1.0000
  H   H474      1.0  0.31200  0.79973  0.73224  1.0000
  C   C273      1.0  0.08689  0.79247  0.65184  1.0000
  S   S72       1.0  0.00637  0.76729  0.07704  1.0000
  C   C274      1.0  0.07593  0.77415  0.88403  1.0000
  C   C275      1.0  0.08451  0.75414  0.89950  1.0000
  H   H475      1.0  0.13023  0.77110  0.53672  1.0000
  C   C276      1.0  0.28312  0.82078  0.10011  1.0000
  C   C277      1.0  0.04432  0.76961  0.93370  1.0000
  C   C278      1.0  0.05583  0.78182  0.90154  1.0000
  Fe  Fe36      1.0  0.00324  0.74291  0.13273  1.0000
  C   C279      1.0  0.03369  0.74129  0.81680  1.0000
  H   H476      1.0  0.02875  0.77562  0.94630  1.0000
  H   H477      1.0  0.04892  0.79718  0.88971  1.0000
  H   H478      1.0  0.29537  0.92992  0.82141  1.0000
  C   C280      1.0  0.23471  0.84431  0.81239  1.0000
  H   H479      1.0  0.27323  0.98078  0.70269  1.0000
  H   H480      1.0  0.20108  0.84456  0.87480  1.0000
  C   C281      1.0  0.30899  0.90692  0.91993  1.0000
  H   H481      1.0  0.25732  0.75331  0.78028  1.0000
  C   C282      1.0  0.31218  0.89864  0.82978  1.0000
  C   C283      1.0  0.26891  0.76559  0.84238  1.0000
  C   C284      1.0  0.25268  0.75958  0.81241  1.0000
  C   C285      1.0  0.23043  0.76146  0.82387  1.0000
  C   C286      1.0  0.22433  0.76869  0.86596  1.0000
  C   C287      1.0  0.24058  0.77479  0.89593  1.0000
  C   C288      1.0  0.26282  0.77369  0.88381  1.0000
  C   C289      1.0  0.99381  0.81099  0.15915  1.0000
  C   C290      1.0  0.29736  0.78350  0.25715  1.0000
  H   H482      1.0  0.23591  0.78052  0.92843  1.0000
  H   H483      1.0  0.27524  0.77851  0.90692  1.0000
  C   C291      1.0  0.05772  0.74079  0.25017  1.0000
  C   C292      1.0  0.30010  0.92228  0.88994  1.0000
  H   H484      1.0  0.29764  0.83607  0.75712  1.0000
  H   H485      1.0  0.24702  0.86330  0.88816  1.0000
  H   H486      1.0  0.27397  0.75545  0.11935  1.0000
  H   H487      1.0  0.14008  0.98295  0.71535  1.0000
  C   C293      1.0  0.19315  0.91991  0.76575  1.0000
  C   C294      1.0  0.18234  0.91399  0.72708  1.0000
  C   C295      1.0  0.17391  0.89290  0.72190  1.0000
  C   C296      1.0  0.17597  0.87709  0.75524  1.0000
  C   C297      1.0  0.18666  0.88285  0.79455  1.0000
  C   C298      1.0  0.19531  0.90424  0.79976  1.0000
  H   H488      1.0  0.18047  0.92583  0.70063  1.0000
  H   H489      1.0  0.16564  0.88883  0.69157  1.0000
  H   H490      1.0  0.18787  0.87112  0.82111  1.0000
  H   H491      1.0  0.20340  0.90868  0.83006  1.0000
  N   N17       1.0  0.11540  0.87953  0.83531  1.0000
  C   C299      1.0  0.13092  0.86309  0.85625  1.0000
  C   C300      1.0  0.10786  0.87078  0.79144  1.0000
  C   C301      1.0  0.12824  0.90012  0.82603  1.0000
  C   C302      1.0  0.09602  0.88530  0.86460  1.0000
  C   C303      1.0  0.08769  0.86709  0.89641  1.0000
  C   C304      1.0  0.14333  0.87145  0.89739  1.0000
  C   C305      1.0  0.11632  0.91832  0.79901  1.0000
  C   C306      1.0  0.09613  0.84842  0.79187  1.0000
  C   C307      1.0  0.09067  0.84123  0.74498  1.0000
  C   C308      1.0  0.15215  0.85249  0.92560  1.0000
  C   C309      1.0  0.12962  0.93941  0.79801  1.0000
  H   H492      1.0  0.14360  0.85772  0.83185  1.0000
  H   H493      1.0  0.12240  0.84778  0.86548  1.0000
  H   H494      1.0  0.09613  0.88246  0.77564  1.0000
  H   H495      1.0  0.12206  0.86933  0.76833  1.0000
  H   H496      1.0  0.14360  0.89596  0.80786  1.0000
  H   H497      1.0  0.13347  0.90787  0.85738  1.0000
  H   H498      1.0  0.09980  0.89955  0.88611  1.0000
  H   H499      1.0  0.08196  0.89105  0.84413  1.0000
  H   H500      1.0  0.09939  0.86453  0.92389  1.0000
  H   H501      1.0  0.08582  0.85106  0.87997  1.0000
  H   H502      1.0  0.15750  0.88143  0.88659  1.0000
  H   H503      1.0  0.13266  0.88195  0.91850  1.0000
  H   H504      1.0  0.09995  0.92217  0.81327  1.0000
  H   H505      1.0  0.11434  0.91309  0.76421  1.0000
  H   H506      1.0  0.10646  0.83527  0.80674  1.0000
  H   H507      1.0  0.08036  0.84977  0.80992  1.0000
  H   H508      1.0  0.07912  0.85311  0.72929  1.0000
  H   H509      1.0  0.10578  0.83996  0.72450  1.0000
  H   H510      1.0  0.08286  0.82487  0.74610  1.0000
  H   H511      1.0  0.13849  0.84250  0.93876  1.0000
  H   H512      1.0  0.16327  0.84179  0.90588  1.0000
  H   H513      1.0  0.16149  0.85908  0.95385  1.0000
  H   H514      1.0  0.13154  0.94607  0.83183  1.0000
  H   H515      1.0  0.14611  0.93624  0.78348  1.0000
  H   H516      1.0  0.12109  0.95199  0.77749  1.0000
  H   H517      1.0  0.05290  0.87515  0.89082  1.0000
  H   H518      1.0  0.26422  0.79140  0.10400  1.0000
  C   C310      1.0  0.20196  0.82961  0.85398  1.0000
  C   C311      1.0  0.22549  0.82489  0.83961  1.0000
  C   C312      1.0  0.23924  0.77057  0.17024  1.0000
  H   H519      1.0  0.13794  0.77464  0.61691  1.0000
  H   H520      1.0  0.06037  0.86044  0.94027  1.0000
  H   H521      1.0  0.01774  0.75006  0.82084  1.0000
  H   H522      1.0  0.99339  0.79954  0.24187  1.0000
  H   H523      1.0  0.26892  0.95722  0.66824  1.0000
  H   H524      1.0  0.22551  0.80977  0.81928  1.0000
  H   H525      1.0  0.04835  0.78954  0.13534  1.0000
  H   H526      1.0  0.23500  0.82167  0.86998  1.0000
  H   H527      1.0  0.31456  0.76584  0.20490  1.0000
  C   C313      1.0  0.14148  0.75933  0.60021  1.0000
  H   H528      1.0  0.10548  0.76283  0.66194  1.0000
  H   H529      1.0  0.24044  0.75780  0.14436  1.0000
  H   H530      1.0  0.19134  0.83175  0.82462  1.0000
  H   H531      1.0  0.05655  0.75797  0.25886  1.0000
  C   C314      1.0  0.31740  0.78047  0.28669  1.0000
  H   H532      1.0  0.06675  0.88916  0.93514  1.0000
  H   H533      1.0  0.28918  0.84551  0.84358  1.0000
  H   H534      1.0  0.12564  0.74348  0.05328  1.0000
  H   H535      1.0  0.30813  0.91023  0.95493  1.0000
  H   H536      1.0  0.30189  0.75485  0.13365  1.0000
  H   H537      1.0  0.21802  0.75662  0.80065  1.0000
  C   C315      1.0  0.27444  0.85591  0.92879  1.0000
  H   H538      1.0  0.26999  0.82728  0.86506  1.0000
  H   H539      1.0  0.29728  0.80067  0.24492  1.0000
  H   H540      1.0  0.30209  0.75982  0.02829  1.0000
  H   H541      1.0  0.23258  0.97214  0.64562  1.0000
  C   C316      1.0  0.13719  0.75729  0.55458  1.0000
  H   H542      1.0  0.10512  0.74591  0.01125  1.0000
  H   H543      1.0  0.99198  0.79304  0.15467  1.0000
  H   H544      1.0  0.22885  0.85959  0.82857  1.0000
  H   H545      1.0  0.16111  0.96386  0.69750  1.0000
  C   C317      1.0  0.29412  0.80270  0.73640  1.0000
  H   H546      1.0  0.08586  0.77398  0.73360  1.0000
  H   H547      1.0  0.26556  0.86011  0.74265  1.0000
  H   H548      1.0  0.31388  0.89576  0.79475  1.0000
  H   H549      1.0  0.23511  0.88281  0.77152  1.0000
  H   H550      1.0  0.29509  0.75043  0.23542  1.0000
  C   C318      1.0  0.15786  0.97903  0.71683  1.0000
  H   H551      1.0  0.09594  0.80220  0.67640  1.0000
  N   N18       1.0  0.25923  0.84441  0.80599  1.0000
  H   H552      1.0  0.22639  0.84427  0.77969  1.0000
  H   H553      1.0  0.28655  0.78716  0.74757  1.0000
  H   H554      1.0  0.07044  0.75642  0.15253  1.0000
  H   H555      1.0  0.29908  0.81612  0.80086  1.0000
  C   C319      1.0  0.06389  0.75846  0.11872  1.0000
  H   H556      1.0  0.06961  0.79837  0.65075  1.0000
  H   H557      1.0  0.00241  0.83928  0.11841  1.0000
  C   C320      1.0  0.21754  0.76722  0.19460  1.0000
  S   S73       1.0  0.31601  0.80707  0.91171  1.0000
  C   C321      1.0  0.00067  0.82123  0.11514  1.0000
  C   C322      1.0  0.25870  0.76915  0.20257  1.0000
  H   H558      1.0  0.26040  0.89967  0.71917  1.0000
  C   C323      1.0  0.26108  0.90409  0.75465  1.0000
  C   C324      1.0  0.26542  0.82392  0.78062  1.0000
  C   C325      1.0  0.27131  0.84375  0.84929  1.0000
  H   H559      1.0  0.28333  0.86834  0.78528  1.0000
  H   H560      1.0  0.26637  0.84120  0.94279  1.0000
  H   H561      1.0  0.25618  0.82341  0.74899  1.0000
  H   H562      1.0  0.25135  0.89121  0.81784  1.0000
  H   H563      1.0  0.26068  0.80890  0.79912  1.0000
  H   H564      1.0  0.00590  0.79426  0.31988  1.0000
  H   H565      1.0  0.19584  0.81573  0.87400  1.0000
  H   H566      1.0  0.27174  0.86994  0.95160  1.0000
  C   C326      1.0  0.04501  0.74899  0.77449  1.0000
  H   H567      1.0  0.14078  0.74465  0.19662  1.0000
  H   H568      1.0  0.23442  0.96789  0.70407  1.0000
  C   C327      1.0  0.07283  0.74177  0.93115  1.0000
  C   C328      1.0  0.30167  0.91799  0.84476  1.0000
  H   H569      1.0  0.29297  0.78718  0.09338  1.0000
  C   C329      1.0  0.25205  0.88553  0.78318  1.0000
  H   H570      1.0  0.27570  0.80586  0.18189  1.0000
  C   C330      1.0  0.26493  0.86155  0.88352  1.0000
  H   H571      1.0  0.25102  0.91923  0.75982  1.0000
  C   C331      1.0  0.26599  0.86410  0.77851  1.0000
  H   H572      1.0  0.27097  0.83121  0.11799  1.0000
  C   C332      1.0  0.28081  0.79668  0.11333  1.0000
  H   H573      1.0  0.23848  0.78705  0.15463  1.0000
  H   H574      1.0  0.11329  0.75483  0.14032  1.0000
  C   C333      1.0  0.29022  0.82087  0.77028  1.0000
  C   C334      1.0  0.15036  0.74159  0.62396  1.0000
  C   C335      1.0  0.26500  0.97496  0.67240  1.0000
  H   H575      1.0  0.27824  0.90763  0.76352  1.0000
  H   H576      1.0  0.21516  0.77976  0.22081  1.0000
  C   C336      1.0  0.07944  0.74831  0.08361  1.0000
  C   C337      1.0  0.07777  0.76327  0.70891  1.0000
  C   C338      1.0  0.28529  0.79318  0.16336  1.0000
  H   H577      1.0  0.09358  0.75942  0.08075  1.0000
  H   H578      1.0  0.27149  0.98404  0.64342  1.0000
  C   C339      1.0  0.24022  0.97827  0.67624  1.0000
  H   H579      1.0  0.29625  0.77506  0.97831  1.0000
  H   H580      1.0  0.29231  0.85253  0.92633  1.0000
  C   C340      1.0  0.06031  0.78304  0.11074  1.0000
  H   H581      1.0  0.07591  0.79196  0.11446  1.0000
  C   C341      1.0  0.05261  0.74933  0.94833  1.0000
  H   H582      1.0  0.27160  0.87760  0.87302  1.0000
  H   H583      1.0  0.07898  0.74772  0.79418  1.0000
  H   H584      1.0  0.28259  0.78117  0.27814  1.0000
  H   H585      1.0  0.29991  0.82655  0.10728  1.0000
  H   H586      1.0  0.05367  0.78605  0.07715  1.0000
  C   C342      1.0  0.29770  0.76654  0.21898  1.0000
  H   H587      1.0  0.28028  0.82263  0.06409  1.0000
  H   H588      1.0  0.19834  0.97633  0.68752  1.0000
  H   H589      1.0  0.03458  0.74441  0.74623  1.0000
  H   H590      1.0  0.00741  0.81385  0.18247  1.0000
  S   S74       1.0  0.02232  0.74970  0.19619  1.0000
  N   N19       1.0  0.28129  0.77050  0.18250  1.0000
  H   H591      1.0  0.04390  0.74478  0.84603  1.0000
  H   H592      1.0  0.01666  0.81416  0.10440  1.0000
  H   H593      1.0  0.25602  0.78264  0.22676  1.0000
  C   C343      1.0  0.08803  0.76800  0.66311  1.0000
  H   H594      1.0  0.07087  0.74952  0.05123  1.0000
  H   H595      1.0  0.27477  0.76999  0.01785  1.0000
  H   H596      1.0  0.06056  0.76936  0.70668  1.0000
  H   H597      1.0  0.30280  0.79776  0.16740  1.0000
  H   H598      1.0  0.28712  0.80754  0.70399  1.0000
  H   H599      1.0  0.04591  0.76720  0.77584  1.0000
  H   H600      1.0  0.09987  0.74792  0.88632  1.0000
  H   H601      1.0  0.20373  0.76871  0.17104  1.0000
  S   S75       1.0  0.15541  0.74271  0.68207  1.0000
  C   C344      1.0  0.28424  0.74144  0.97914  1.0000
  H   H602      1.0  0.16232  0.97596  0.75185  1.0000
  H   H603      1.0  0.09449  0.79525  0.61892  1.0000
  H   H604      1.0  0.11159  0.74498  0.74659  1.0000
  H   H605      1.0  0.99488  0.82079  0.33645  1.0000
  H   H606      1.0  0.31628  0.79201  0.31493  1.0000
  H   H607      1.0  0.07884  0.75949  0.63698  1.0000
  C   C345      1.0  0.28973  0.76290  0.00220  1.0000
  C   C346      1.0  0.99094  0.80323  0.33131  1.0000
  H   H608      1.0  0.31598  0.75468  0.58087  1.0000
  C   C347      1.0  0.31914  0.88734  0.90494  1.0000
  H   H609      1.0  0.25712  0.75383  0.22231  1.0000
  H   H610      1.0  0.30535  0.74387  0.92288  1.0000
  C   C348      1.0  0.28516  0.75315  0.14772  1.0000
  H   H611      1.0  0.31828  0.76347  0.30002  1.0000
  H   H612      1.0  0.27022  0.74490  0.95694  1.0000
  H   H613      1.0  0.21706  0.75063  0.20993  1.0000
  N   N20       1.0  0.07856  0.73967  0.72445  1.0000
  H   H614      1.0  0.98839  0.81781  0.08924  1.0000
  C   C349      1.0  0.32071  0.88308  0.85971  1.0000
  C   C350      1.0  0.06844  0.73900  0.77011  1.0000
  H   H615      1.0  0.39947  0.21646  0.64565  1.0000
  N   N21       1.0  0.58217  0.23645  0.61249  1.0000
  H   H616      1.0  0.52701  0.10368  0.84930  1.0000
  Fe  Fe37      1.0  0.64073  0.21554  0.93477  1.0000
  S   S76       1.0  0.63519  0.22574  0.86337  1.0000
  H   H617      1.0  0.38137  0.07582  0.55309  1.0000
  Fe  Fe38      1.0  0.61596  0.19472  0.85685  1.0000
  S   S77       1.0  0.58508  0.18816  0.81597  1.0000
  H   H618      1.0  0.37334  0.23036  0.65414  1.0000
  S   S78       1.0  0.61951  0.18556  0.92911  1.0000
  H   H619      1.0  0.63405  0.13501  0.77010  1.0000
  S   S79       1.0  0.50122  0.21688  0.59780  1.0000
  H   H620      1.0  0.56018  0.09052  0.92114  1.0000
  Fe  Fe39      1.0  0.46423  0.21904  0.59687  1.0000
  S   S80       1.0  0.44051  0.19148  0.61359  1.0000
  C   C351      1.0  0.56138  0.20277  0.58200  1.0000
  H   H621      1.0  0.43856  0.12604  0.68409  1.0000
  C   C352      1.0  0.39347  0.11176  0.61980  1.0000
  S   S81       1.0  0.36151  0.15570  0.49915  1.0000
  C   C353      1.0  0.41799  0.18333  0.58107  1.0000
  C   C354      1.0  0.41914  0.18292  0.53498  1.0000
  C   C355      1.0  0.40151  0.17479  0.51039  1.0000
  C   C356      1.0  0.38233  0.16758  0.53144  1.0000
  C   C357      1.0  0.38076  0.16892  0.57737  1.0000
  C   C358      1.0  0.39876  0.17613  0.60210  1.0000
  H   H622      1.0  0.43391  0.18817  0.51837  1.0000
  H   H623      1.0  0.40288  0.17377  0.47484  1.0000
  H   H624      1.0  0.36601  0.16366  0.59385  1.0000
  H   H625      1.0  0.39777  0.17620  0.63774  1.0000
  C   C359      1.0  0.56845  0.20633  0.78363  1.0000
  C   C360      1.0  0.55307  0.19745  0.75441  1.0000
  C   C361      1.0  0.53924  0.21116  0.72873  1.0000
  H   H626      1.0  0.59485  0.21692  0.70028  1.0000
  H   H627      1.0  0.34574  0.07835  0.50882  1.0000
  H   H628      1.0  0.58580  0.13535  0.79983  1.0000
  H   H629      1.0  0.55179  0.17982  0.75175  1.0000
  H   H630      1.0  0.52751  0.20402  0.70656  1.0000
  H   H631      1.0  0.33851  0.06920  0.63365  1.0000
  H   H632      1.0  0.38780  0.10267  0.53262  1.0000
  H   H633      1.0  0.56893  0.23146  0.44472  1.0000
  H   H634      1.0  0.61144  0.13880  0.97842  1.0000
  H   H635      1.0  0.55719  0.21795  0.64594  1.0000
  C   C362      1.0  0.63423  0.22643  0.11719  1.0000
  C   C363      1.0  0.42998  0.12223  0.65289  1.0000
  H   H636      1.0  0.49558  0.22818  0.30419  1.0000
  C   C364      1.0  0.32269  0.12588  0.69709  1.0000
  H   H637      1.0  0.36612  0.11739  0.68866  1.0000
  H   H638      1.0  0.62625  0.22989  0.74084  1.0000
  H   H639      1.0  0.52106  0.09113  0.90193  1.0000
  H   H640      1.0  0.53186  0.11850  0.89995  1.0000
  H   H641      1.0  0.58219  0.20308  0.63784  1.0000
  C   C365      1.0  0.40620  0.11633  0.66287  1.0000
  H   H642      1.0  0.60237  0.11861  0.01789  1.0000
  H   H643      1.0  0.35695  0.13348  0.64295  1.0000
  H   H644      1.0  0.63421  0.20921  0.05465  1.0000
  H   H645      1.0  0.35305  0.20908  0.51938  1.0000
  H   H646      1.0  0.60900  0.21632  0.58767  1.0000
  C   C366      1.0  0.33443  0.10901  0.66773  1.0000
  H   H647      1.0  0.55530  0.07571  0.87134  1.0000
  H   H648      1.0  0.34368  0.03000  0.64907  1.0000
  H   H649      1.0  0.54931  0.21309  0.56395  1.0000
  H   H650      1.0  0.40424  0.10081  0.59957  1.0000
  H   H651      1.0  0.37270  0.03352  0.65661  1.0000
  C   C367      1.0  0.37307  0.23417  0.48587  1.0000
  C   C368      1.0  0.35790  0.11639  0.65617  1.0000
  C   C369      1.0  0.39102  0.23265  0.64712  1.0000
  H   H652      1.0  0.32448  0.10683  0.63775  1.0000
  H   H653      1.0  0.62040  0.21004  0.50994  1.0000
  H   H654      1.0  0.63205  0.21164  0.13652  1.0000
  H   H655      1.0  0.60852  0.14446  0.83183  1.0000
  C   C370      1.0  0.58029  0.23826  0.30874  1.0000
  H   H656      1.0  0.57430  0.22242  0.24572  1.0000
  C   C371      1.0  0.34849  0.20677  0.44944  1.0000
  H   H657      1.0  0.34392  0.09519  0.58052  1.0000
  C   C372      1.0  0.61617  0.13710  0.76455  1.0000
  C   C373      1.0  0.36064  0.08790  0.50102  1.0000
  H   H658      1.0  0.55975  0.23129  0.15845  1.0000
  H   H659      1.0  0.60264  0.13263  0.89787  1.0000
  C   C374      1.0  0.60499  0.22954  0.68365  1.0000
  C   C375      1.0  0.59752  0.23567  0.53166  1.0000
  H   H660      1.0  0.64370  0.03995  0.88539  1.0000
  H   H661      1.0  0.59702  0.21889  0.35884  1.0000
  Fe  Fe40      1.0  0.65066  0.16767  0.90867  1.0000
  C   C376      1.0  0.35525  0.06226  0.63064  1.0000
  H   H662      1.0  0.37450  0.07942  0.67980  1.0000
  H   H663      1.0  0.43068  0.13696  0.63112  1.0000
  H   H664      1.0  0.58815  0.23311  0.17282  1.0000
  H   H665      1.0  0.58311  0.22647  0.52048  1.0000
  H   H666      1.0  0.56182  0.17006  0.61166  1.0000
  H   H667      1.0  0.38908  0.07115  0.63218  1.0000
  C   C377      1.0  0.59456  0.21862  0.32257  1.0000
  H   H668      1.0  0.39884  0.13062  0.68047  1.0000
  N   N22       1.0  0.37095  0.10196  0.62490  1.0000
  C   C378      1.0  0.60163  0.23293  0.58203  1.0000
  H   H669      1.0  0.62694  0.11355  0.98636  1.0000
  C   C379      1.0  0.35640  0.04171  0.65963  1.0000
  H   H670      1.0  0.43873  0.10833  0.63659  1.0000
  H   H671      1.0  0.61810  0.03537  0.85797  1.0000
  H   H672      1.0  0.39246  0.12753  0.60119  1.0000
  H   H673      1.0  0.53689  0.18562  0.62162  1.0000
  S   S82       1.0  0.64552  0.17445  0.83699  1.0000
  C   C380      1.0  0.57081  0.21508  0.62198  1.0000
  C   C381      1.0  0.54987  0.18184  0.59688  1.0000
  C   C382      1.0  0.36038  0.10265  0.57993  1.0000
  H   H674      1.0  0.58137  0.23629  0.80936  1.0000
  C   C383      1.0  0.37415  0.09175  0.54238  1.0000
  C   C384      1.0  0.54051  0.23401  0.73212  1.0000
  H   H675      1.0  0.57472  0.19755  0.55927  1.0000
  H   H676      1.0  0.39483  0.21981  0.55466  1.0000
  C   C385      1.0  0.60339  0.13236  0.80695  1.0000
  H   H677      1.0  0.40613  0.10179  0.68506  1.0000
  C   C386      1.0  0.63545  0.22497  0.07071  1.0000
  C   C387      1.0  0.35207  0.22050  0.49086  1.0000
  N   N23       1.0  0.59625  0.10175  0.86532  1.0000
  C   C388      1.0  0.60009  0.07733  0.87120  1.0000
  C   C389      1.0  0.57207  0.10685  0.85987  1.0000
  C   C390      1.0  0.60783  0.10850  0.82329  1.0000
  C   C391      1.0  0.60566  0.11476  0.90286  1.0000
  C   C392      1.0  0.59671  0.10969  0.94960  1.0000
  C   C393      1.0  0.62436  0.06956  0.87446  1.0000
  H   H678      1.0  0.35729  0.05695  0.59587  1.0000
  C   C394      1.0  0.55571  0.09240  0.88603  1.0000
  C   C395      1.0  0.53251  0.10208  0.88407  1.0000
  C   C396      1.0  0.37334  0.07889  0.64314  1.0000
  C   C397      1.0  0.62613  0.04497  0.88426  1.0000
  C   C398      1.0  0.61021  0.12091  0.98509  1.0000
  H   H679      1.0  0.59269  0.06836  0.84308  1.0000
  H   H680      1.0  0.59167  0.07104  0.90102  1.0000
  H   H681      1.0  0.56860  0.12443  0.86790  1.0000
  H   H682      1.0  0.56719  0.10490  0.82469  1.0000
  H   H683      1.0  0.60349  0.09726  0.79582  1.0000
  H   H684      1.0  0.62584  0.10695  0.82718  1.0000
  H   H685      1.0  0.62376  0.11303  0.90333  1.0000
  H   H686      1.0  0.33144  0.12769  0.72888  1.0000
  H   H687      1.0  0.59705  0.09190  0.95714  1.0000
  H   H688      1.0  0.57970  0.11619  0.95267  1.0000
  H   H689      1.0  0.63306  0.07233  0.84278  1.0000
  H   H690      1.0  0.63304  0.07818  0.90117  1.0000
  H   H691      1.0  0.33495  0.09339  0.68670  1.0000
  H   H692      1.0  0.34568  0.21750  0.42026  1.0000
  H   H693      1.0  0.35595  0.10389  0.48586  1.0000
  H   H694      1.0  0.54216  0.17394  0.56799  1.0000
  H   H695      1.0  0.56455  0.23725  0.32667  1.0000
  H   H696      1.0  0.36284  0.19581  0.44297  1.0000
  H   H697      1.0  0.58653  0.20300  0.31380  1.0000
  H   H698      1.0  0.36846  0.22552  0.57533  1.0000
  H   H699      1.0  0.50258  0.21859  0.24963  1.0000
  H   H700      1.0  0.35722  0.12000  0.56960  1.0000
  C   C399      1.0  0.50332  0.23286  0.27230  1.0000
  H   H701      1.0  0.37061  0.07859  0.47650  1.0000
  Fe  Fe41      1.0  0.32615  0.14813  0.51748  1.0000
  H   H702      1.0  0.38678  0.22259  0.47737  1.0000
  H   H703      1.0  0.61086  0.21929  0.30616  1.0000
  H   H704      1.0  0.61737  0.22108  0.66260  1.0000
  H   H705      1.0  0.33751  0.23143  0.49428  1.0000
  S   S83       1.0  0.52779  0.23701  0.49013  1.0000
  C   C400      1.0  0.61729  0.22786  0.50457  1.0000
  C   C401      1.0  0.56977  0.22919  0.78687  1.0000
  H   H706      1.0  0.61294  0.15435  0.75407  1.0000
  H   H707      1.0  0.61854  0.04110  0.91670  1.0000
  H   H708      1.0  0.33396  0.19634  0.45413  1.0000
  H   H709      1.0  0.61403  0.23062  0.46891  1.0000
  H   H710      1.0  0.61102  0.12601  0.73767  1.0000
  H   H711      1.0  0.35321  0.04599  0.69471  1.0000
  H   H712      1.0  0.58421  0.23758  0.09367  1.0000
  H   H713      1.0  0.53978  0.22958  0.21755  1.0000
  H   H714      1.0  0.53535  0.22496  0.29564  1.0000
  C   C402      1.0  0.38367  0.23357  0.56401  1.0000
  H   H715      1.0  0.32162  0.14212  0.68040  1.0000
  H   H716      1.0  0.63210  0.23717  0.51362  1.0000
  S   S84       1.0  0.63966  0.24329  0.98633  1.0000
  S   S85       1.0  0.63451  0.26539  0.31851  1.0000
  H   H717      1.0  0.53087  0.29500  0.64724  1.0000
  H   H718      1.0  0.51521  0.32473  0.76662  1.0000
  C   C403      1.0  0.32729  0.27932  0.56997  1.0000
  H   H719      1.0  0.55067  0.25320  0.61569  1.0000
  C   C404      1.0  0.63973  0.26428  0.06678  1.0000
  Fe  Fe42      1.0  0.61589  0.29713  0.32595  1.0000
  S   S86       1.0  0.58340  0.30092  0.36434  1.0000
  H   H720      1.0  0.43664  0.27604  0.46922  1.0000
  S   S87       1.0  0.61910  0.30636  0.25348  1.0000
  H   H721      1.0  0.59426  0.24328  0.24553  1.0000
  Fe  Fe43      1.0  0.46350  0.26843  0.58815  1.0000
  H   H722      1.0  0.59198  0.26359  0.11626  1.0000
  S   S88       1.0  0.44075  0.29812  0.57829  1.0000
  C   C405      1.0  0.61712  0.24183  0.71977  1.0000
  C   C406      1.0  0.63814  0.24393  0.04512  1.0000
  S   S89       1.0  0.50038  0.27071  0.58840  1.0000
  C   C407      1.0  0.40112  0.27230  0.46884  1.0000
  S   S90       1.0  0.34804  0.31953  0.66877  1.0000
  C   C408      1.0  0.41455  0.30274  0.60280  1.0000
  C   C409      1.0  0.39912  0.31617  0.58083  1.0000
  C   C410      1.0  0.37844  0.32090  0.59985  1.0000
  C   C411      1.0  0.37318  0.31275  0.64175  1.0000
  C   C412      1.0  0.38869  0.29946  0.66387  1.0000
  C   C413      1.0  0.40915  0.29427  0.64435  1.0000
  H   H723      1.0  0.40319  0.32310  0.54897  1.0000
  H   H724      1.0  0.36680  0.33134  0.58262  1.0000
  H   H725      1.0  0.38480  0.29308  0.69629  1.0000
  H   H726      1.0  0.42075  0.28386  0.66160  1.0000
  C   C414      1.0  0.56884  0.28322  0.40118  1.0000
  C   C415      1.0  0.57619  0.26194  0.41144  1.0000
  H   H727      1.0  0.58322  0.27215  0.19532  1.0000
  C   C416      1.0  0.54343  0.25553  0.45706  1.0000
  C   C417      1.0  0.53639  0.27704  0.44793  1.0000
  C   C418      1.0  0.54891  0.29067  0.41987  1.0000
  S   S91       1.0  0.63413  0.24752  0.19744  1.0000
  H   H728      1.0  0.64831  0.36439  0.45981  1.0000
  H   H729      1.0  0.55603  0.27268  0.30204  1.0000
  H   H730      1.0  0.56392  0.25914  0.10037  1.0000
  N   N24       1.0  0.56091  0.25550  0.23967  1.0000
  H   H731      1.0  0.55550  0.27220  0.17715  1.0000
  S   S92       1.0  0.46301  0.24626  0.64715  1.0000
  H   H732      1.0  0.55697  0.26052  0.76453  1.0000
  C   C419      1.0  0.56335  0.24809  0.43834  1.0000
  H   H733      1.0  0.38658  0.28339  0.46662  1.0000
  H   H734      1.0  0.53995  0.30690  0.69832  1.0000
  H   H735      1.0  0.61497  0.24454  0.58993  1.0000
  H   H736      1.0  0.37018  0.24454  0.45616  1.0000
  H   H737      1.0  0.50415  0.29365  0.72234  1.0000
  C   C420      1.0  0.36249  0.26595  0.53359  1.0000
  H   H738      1.0  0.47125  0.28476  0.80075  1.0000
  C   C421      1.0  0.57361  0.24268  0.16149  1.0000
  H   H739      1.0  0.55948  0.24763  0.56174  1.0000
  C   C422      1.0  0.34408  0.26059  0.56746  1.0000
  C   C423      1.0  0.63583  0.24677  0.13877  1.0000
  H   H740      1.0  0.44398  0.30059  0.75165  1.0000
  H   H741      1.0  0.50139  0.32396  0.64195  1.0000
  C   C424      1.0  0.45277  0.25817  0.77569  1.0000
  H   H742      1.0  0.60541  0.25110  0.74105  1.0000
  H   H743      1.0  0.52111  0.28307  0.46180  1.0000
  Fe  Fe44      1.0  0.50065  0.24200  0.54245  1.0000
  C   C425      1.0  0.42160  0.28629  0.46489  1.0000
  H   H744      1.0  0.35451  0.27124  0.50227  1.0000
  C   C426      1.0  0.63863  0.26572  0.11326  1.0000
  H   H745      1.0  0.56083  0.32125  0.28487  1.0000
  H   H746      1.0  0.59135  0.27734  0.58136  1.0000
  Fe  Fe45      1.0  0.63930  0.27528  0.24710  1.0000
  H   H747      1.0  0.53263  0.32696  0.27127  1.0000
  H   H748      1.0  0.54912  0.30096  0.21855  1.0000
  H   H749      1.0  0.41328  0.35797  0.67935  1.0000
  H   H750      1.0  0.44062  0.36700  0.66664  1.0000
  H   H751      1.0  0.42877  0.34466  0.63618  1.0000
  H   H752      1.0  0.32149  0.48189  0.59281  1.0000
  C   C427      1.0  0.54428  0.29458  0.25145  1.0000
  C   C428      1.0  0.57379  0.27677  0.59077  1.0000
  C   C429      1.0  0.56563  0.25278  0.59443  1.0000
  H   H753      1.0  0.45352  0.28506  0.70564  1.0000
  H   H754      1.0  0.33513  0.29452  0.58180  1.0000
  C   C430      1.0  0.54424  0.31406  0.28308  1.0000
  C   C431      1.0  0.56029  0.27617  0.26712  1.0000
  H   H755      1.0  0.54305  0.28974  0.56421  1.0000
  H   H756      1.0  0.57596  0.25009  0.67744  1.0000
  C   C432      1.0  0.56083  0.29016  0.55685  1.0000
  H   H757      1.0  0.62901  0.25340  0.70504  1.0000
  H   H758      1.0  0.52728  0.28853  0.24987  1.0000
  H   H759      1.0  0.57698  0.28327  0.26860  1.0000
  H   H760      1.0  0.48781  0.33024  0.85140  1.0000
  H   H761      1.0  0.54149  0.32244  0.64760  1.0000
  H   H762      1.0  0.40601  0.27028  0.53895  1.0000
  H   H763      1.0  0.54306  0.30712  0.41247  1.0000
  H   H764      1.0  0.59953  0.26058  0.65080  1.0000
  H   H765      1.0  0.57193  0.28496  0.62334  1.0000
  H   H766      1.0  0.56384  0.28357  0.52323  1.0000
  H   H767      1.0  0.56616  0.30751  0.55734  1.0000
  C   C433      1.0  0.59013  0.24527  0.65609  1.0000
  H   H768      1.0  0.58849  0.25336  0.31997  1.0000
  H   H769      1.0  0.64627  0.37539  0.31755  1.0000
  H   H770      1.0  0.44051  0.34469  0.73501  1.0000
  H   H771      1.0  0.42674  0.32296  0.70677  1.0000
  H   H772      1.0  0.51722  0.32993  0.84658  1.0000
  N   N25       1.0  0.47380  0.31262  0.72145  1.0000
  C   C434      1.0  0.49381  0.30304  0.69883  1.0000
  H   H773      1.0  0.63971  0.28152  0.12925  1.0000
  C   C435      1.0  0.46143  0.32625  0.68773  1.0000
  C   C436      1.0  0.47935  0.32701  0.76030  1.0000
  C   C437      1.0  0.50042  0.32096  0.78652  1.0000
  C   C438      1.0  0.50860  0.31979  0.67461  1.0000
  C   C439      1.0  0.43904  0.33605  0.70303  1.0000
  C   C440      1.0  0.45906  0.29410  0.73537  1.0000
  H   H774      1.0  0.53907  0.30886  0.31672  1.0000
  C   C441      1.0  0.50175  0.33416  0.82918  1.0000
  C   C442      1.0  0.53163  0.31042  0.66651  1.0000
  C   C443      1.0  0.42996  0.35243  0.66917  1.0000
  H   H775      1.0  0.48888  0.29067  0.67395  1.0000
  H   H776      1.0  0.51005  0.33522  0.69363  1.0000
  H   H777      1.0  0.37037  0.28104  0.54629  1.0000
  H   H778      1.0  0.64176  0.27905  0.04736  1.0000
  H   H779      1.0  0.45843  0.31637  0.65752  1.0000
  H   H780      1.0  0.47139  0.34041  0.67664  1.0000
  H   H781      1.0  0.48148  0.34436  0.74946  1.0000
  H   H782      1.0  0.46536  0.32758  0.78405  1.0000
  H   H783      1.0  0.50140  0.30335  0.79533  1.0000
  H   H784      1.0  0.48424  0.26964  0.75610  1.0000
  H   H785      1.0  0.50159  0.35206  0.82192  1.0000
  H   H786      1.0  0.42220  0.29418  0.43183  1.0000
  S   S93       1.0  0.64573  0.31641  0.34439  1.0000
  H   H787      1.0  0.43691  0.26442  0.78906  1.0000
  C   C444      1.0  0.46866  0.27701  0.76820  1.0000
  C   C445      1.0  0.55582  0.24290  0.76145  1.0000
  H   H788      1.0  0.33709  0.46964  0.54787  1.0000
  H   H789      1.0  0.59168  0.25607  0.39838  1.0000
  H   H790      1.0  0.38712  0.26179  0.60814  1.0000
  S   S94       1.0  0.52369  0.25226  0.70031  1.0000
  Fe  Fe46      1.0  0.49994  0.24566  0.64348  1.0000
  H   H791      1.0  0.52671  0.25323  0.30371  1.0000
  Fe  Fe47      1.0  0.65086  0.32276  0.27225  1.0000
  H   H792      1.0  0.35076  0.25848  0.60115  1.0000
  H   H793      1.0  0.41217  0.24683  0.59827  1.0000
  H   H794      1.0  0.59453  0.25318  0.52316  1.0000
  H   H795      1.0  0.32384  0.29607  0.79382  1.0000
  C   C446      1.0  0.56823  0.26189  0.19365  1.0000
  H   H796      1.0  0.40123  0.26104  0.44009  1.0000
  H   H797      1.0  0.44980  0.24931  0.74437  1.0000
  H   H798      1.0  0.41433  0.24627  0.51012  1.0000
  N   N26       1.0  0.37950  0.24817  0.52456  1.0000
  C   C447      1.0  0.40094  0.25887  0.51250  1.0000
  H   H799      1.0  0.42130  0.29945  0.49012  1.0000
  C   C448      1.0  0.39426  0.24517  0.60392  1.0000
  H   H800      1.0  0.33041  0.48431  0.44354  1.0000
  H   H801      1.0  0.65276  0.41177  0.35165  1.0000
  H   H802      1.0  0.33544  0.47056  0.36821  1.0000
  H   H803      1.0  0.65180  0.36405  0.40078  1.0000
  H   H804      1.0  0.33534  0.24539  0.55930  1.0000
  H   H805      1.0  0.64986  0.33851  0.43144  1.0000
  H   H806      1.0  0.52744  0.25589  0.21653  1.0000
  H   H807      1.0  0.49383  0.24686  0.25808  1.0000
  C   C449      1.0  0.53866  0.24521  0.23626  1.0000
  C   C450      1.0  0.57871  0.25135  0.11519  1.0000
  H   H808      1.0  0.45990  0.24629  0.79973  1.0000
  S   S95       1.0  0.46357  0.24136  0.53753  1.0000
  H   H809      1.0  0.39822  0.24209  0.67461  1.0000
  C   C451      1.0  0.52705  0.23934  0.28020  1.0000
  C   C452      1.0  0.57758  0.23928  0.25793  1.0000
  C   C453      1.0  0.35103  0.70892  0.85024  1.0000
  H   H810      1.0  0.39044  0.71936  0.46387  1.0000
  C   C454      1.0  0.40552  0.63942  0.17776  1.0000
  Fe  Fe48      1.0  0.34742  0.69783  0.22071  1.0000
  S   S96       1.0  0.35358  0.71735  0.28270  1.0000
  S   S97       1.0  0.35685  0.70504  0.14871  1.0000
  Fe  Fe49      1.0  0.36516  0.68534  0.31247  1.0000
  S   S98       1.0  0.39452  0.67934  0.35810  1.0000
  H   H811      1.0  0.45709  0.71364  0.19760  1.0000
  S   S99       1.0  0.36113  0.66620  0.24921  1.0000
  H   H812      1.0  0.42863  0.72153  0.52624  1.0000
  Fe  Fe50      1.0  0.51083  0.71617  0.58744  1.0000
  H   H813      1.0  0.61538  0.70223  0.71077  1.0000
  S   S100      1.0  0.52911  0.68717  0.61841  1.0000
  H   H814      1.0  0.32590  0.50285  0.50606  1.0000
  S   S101      1.0  0.47471  0.71741  0.57066  1.0000
  N   N27       1.0  0.64133  0.59627  0.48385  1.0000
  S   S102      1.0  0.62572  0.65351  0.57184  1.0000
  C   C455      1.0  0.55674  0.67981  0.60646  1.0000
  C   C456      1.0  0.56657  0.68497  0.56599  1.0000
  C   C457      1.0  0.58785  0.67706  0.55617  1.0000
  C   C458      1.0  0.59987  0.66474  0.58733  1.0000
  C   C459      1.0  0.59030  0.66014  0.62827  1.0000
  C   C460      1.0  0.56870  0.66734  0.63743  1.0000
  H   H815      1.0  0.55744  0.69428  0.54164  1.0000
  H   H816      1.0  0.59494  0.68037  0.52410  1.0000
  H   H817      1.0  0.59919  0.65037  0.65226  1.0000
  H   H818      1.0  0.56115  0.66309  0.66862  1.0000
  C   C461      1.0  0.41286  0.69733  0.38523  1.0000
  C   C462      1.0  0.41559  0.71917  0.37198  1.0000
  H   H819      1.0  0.40558  0.72591  0.34577  1.0000
  C   C463      1.0  0.41172  0.66363  0.17466  1.0000
  C   C464      1.0  0.44206  0.70200  0.43978  1.0000
  C   C465      1.0  0.42607  0.68894  0.41950  1.0000
  H   H820      1.0  0.62262  0.70942  0.54894  1.0000
  C   C466      1.0  0.59871  0.71793  0.65530  1.0000
  H   H821      1.0  0.45228  0.69515  0.46560  1.0000
  H   H822      1.0  0.42420  0.67207  0.42999  1.0000
  H   H823      1.0  0.60227  0.61923  0.51399  1.0000
  C   C467      1.0  0.63673  0.71186  0.57101  1.0000
  C   C468      1.0  0.61997  0.60141  0.46097  1.0000
  C   C469      1.0  0.65330  0.57848  0.45847  1.0000
  H   H824      1.0  0.63848  0.55694  0.59741  1.0000
  C   C470      1.0  0.45860  0.68460  0.27775  1.0000
  C   C471      1.0  0.46954  0.69294  0.31961  1.0000
  H   H825      1.0  0.63962  0.58409  0.62148  1.0000
  H   H826      1.0  0.64349  0.49349  0.24234  1.0000
  C   C472      1.0  0.61391  0.73800  0.65102  1.0000
  H   H827      1.0  0.47518  0.71007  0.31518  1.0000
  H   H828      1.0  0.35454  0.69102  0.84795  1.0000
  C   C473      1.0  0.37717  0.72905  0.48033  1.0000
  H   H829      1.0  0.42410  0.69930  0.12659  1.0000
  C   C474      1.0  0.60686  0.62159  0.47885  1.0000
  C   C475      1.0  0.41433  0.71235  0.53881  1.0000
  C   C476      1.0  0.42185  0.69843  0.57814  1.0000
  H   H830      1.0  0.42798  0.70908  0.60497  1.0000
  H   H831      1.0  0.32877  0.60526  0.32764  1.0000
  C   C477      1.0  0.43838  0.69903  0.26531  1.0000
  H   H832      1.0  0.43530  0.68712  0.56763  1.0000
  C   C478      1.0  0.59883  0.70870  0.70227  1.0000
  C   C479      1.0  0.35639  0.72711  0.06910  1.0000
  H   H833      1.0  0.35031  0.73327  0.57513  1.0000
  H   H834      1.0  0.62263  0.60384  0.42493  1.0000
  H   H835      1.0  0.46928  0.72060  0.11719  1.0000
  H   H836      1.0  0.45670  0.68620  0.17907  1.0000
  H   H837      1.0  0.60886  0.58714  0.46354  1.0000
  C   C480      1.0  0.42272  0.67134  0.21770  1.0000
  H   H838      1.0  0.58155  0.72283  0.64738  1.0000
  H   H839      1.0  0.39736  0.63442  0.14679  1.0000
  H   H840      1.0  0.57668  0.63972  0.46686  1.0000
  H   H841      1.0  0.59383  0.72156  0.72633  1.0000
  H   H842      1.0  0.62359  0.57630  0.53101  1.0000
  H   H843      1.0  0.62914  0.60306  0.54969  1.0000
  C   C481      1.0  0.44588  0.70076  0.18536  1.0000
  H   H844      1.0  0.61642  0.63688  0.47602  1.0000
  H   H845      1.0  0.47103  0.68447  0.25093  1.0000
  C   C482      1.0  0.64276  0.55547  0.45915  1.0000
  H   H846      1.0  0.40818  0.68840  0.59108  1.0000
  H   H847      1.0  0.43746  0.66059  0.22135  1.0000
  H   H848      1.0  0.36586  0.71658  0.49414  1.0000
  H   H849      1.0  0.39653  0.67315  0.16754  1.0000
  Fe  Fe51      1.0  0.32692  0.65890  0.27261  1.0000
  H   H850      1.0  0.35301  0.71634  0.81692  1.0000
  H   H851      1.0  0.59361  0.72680  0.57406  1.0000
  H   H852      1.0  0.64559  0.63260  0.42353  1.0000
  H   H853      1.0  0.32605  0.68513  0.91011  1.0000
  H   H854      1.0  0.36313  0.71657  0.87249  1.0000
  H   H855      1.0  0.64911  0.52257  0.43411  1.0000
  H   H856      1.0  0.36563  0.71425  0.39666  1.0000
  H   H857      1.0  0.64090  0.54913  0.49328  1.0000
  H   H858      1.0  0.57496  0.61073  0.45619  1.0000
  C   C483      1.0  0.63636  0.58914  0.53054  1.0000
  H   H859      1.0  0.42567  0.69634  0.29120  1.0000
  H   H860      1.0  0.42034  0.62890  0.18246  1.0000
  H   H861      1.0  0.42328  0.66502  0.14652  1.0000
  H   H862      1.0  0.58925  0.62848  0.41777  1.0000
  H   H863      1.0  0.62956  0.73386  0.66810  1.0000
  H   H864      1.0  0.45794  0.69235  0.34786  1.0000
  H   H865      1.0  0.41167  0.66717  0.24590  1.0000
  H   H866      1.0  0.62641  0.55605  0.44340  1.0000
  C   C484      1.0  0.58566  0.62525  0.45316  1.0000
  H   H867      1.0  0.57930  0.72844  0.49834  1.0000
  N   N28       1.0  0.42887  0.69524  0.22003  1.0000
  C   C485      1.0  0.35273  0.72872  0.11489  1.0000
  C   C486      1.0  0.40839  0.70926  0.21637  1.0000
  C   C487      1.0  0.43738  0.70938  0.14007  1.0000
  C   C488      1.0  0.32768  0.71315  0.86690  1.0000
  H   H868      1.0  0.39567  0.70324  0.23974  1.0000
  C   C489      1.0  0.63877  0.73606  0.58552  1.0000
  H   H869      1.0  0.34087  0.71702  0.42933  1.0000
  H   H870      1.0  0.39400  0.63664  0.20562  1.0000
  H   H871      1.0  0.46234  0.69317  0.09944  1.0000
  H   H872      1.0  0.60369  0.70461  0.63275  1.0000
  H   H873      1.0  0.32604  0.50579  0.40308  1.0000
  H   H874      1.0  0.40903  0.70079  0.51294  1.0000
  H   H875      1.0  0.48394  0.68236  0.32769  1.0000
  H   H876      1.0  0.45357  0.66746  0.28453  1.0000
  H   H877      1.0  0.36178  0.71160  0.05527  1.0000
  H   H878      1.0  0.33437  0.69349  0.99884  1.0000
  H   H879      1.0  0.40082  0.70765  0.18344  1.0000
  H   H880      1.0  0.44939  0.71681  0.07426  1.0000
  C   C490      1.0  0.39537  0.72811  0.55249  1.0000
  C   C491      1.0  0.43195  0.73205  0.39152  1.0000
  H   H881      1.0  0.33828  0.70860  0.93393  1.0000
  C   C492      1.0  0.35381  0.72616  0.41143  1.0000
  C   C493      1.0  0.44538  0.72355  0.42541  1.0000
  H   H882      1.0  0.32332  0.56776  0.35853  1.0000
  H   H883      1.0  0.58707  0.69502  0.70484  1.0000
  S   S103      1.0  0.33185  0.67558  0.33757  1.0000
  H   H884      1.0  0.38224  0.71749  0.56576  1.0000
  H   H885      1.0  0.63516  0.70111  0.60037  1.0000
  H   H886      1.0  0.64865  0.62872  0.50808  1.0000
  H   H887      1.0  0.32636  0.67972  0.07397  1.0000
  C   C494      1.0  0.32416  0.70327  0.91370  1.0000
  C   C495      1.0  0.64891  0.57151  0.60229  1.0000
  C   C496      1.0  0.41137  0.73408  0.22595  1.0000
  H   H888      1.0  0.44344  0.71640  0.26894  1.0000
  H   H889      1.0  0.43079  0.72637  0.14335  1.0000
  S   S104      1.0  0.52142  0.73481  0.52694  1.0000
  H   H890      1.0  0.32779  0.57076  0.46809  1.0000
  C   C497      1.0  0.45580  0.70999  0.10578  1.0000
  H   H891      1.0  0.32477  0.73102  0.86694  1.0000
  H   H892      1.0  0.65253  0.73636  0.60944  1.0000
  H   H893      1.0  0.32118  0.53082  0.45371  1.0000
  H   H894      1.0  0.40100  0.73792  0.58119  1.0000
  H   H895      1.0  0.34591  0.73563  0.38429  1.0000
  H   H896      1.0  0.41061  0.73688  0.26218  1.0000
  Fe  Fe52      1.0  0.48487  0.73842  0.51331  1.0000
  C   C498      1.0  0.34322  0.76737  0.10436  1.0000
  H   H897      1.0  0.33832  0.78302  0.11829  1.0000
  H   H898      1.0  0.49753  0.84918  0.62440  1.0000
  H   H899      1.0  0.33266  0.78384  0.26791  1.0000
  S   S105      1.0  0.34567  0.79957  0.82167  1.0000
  H   H900      1.0  0.42744  0.73998  0.21399  1.0000
  S   S106      1.0  0.34151  0.78923  0.02463  1.0000
  Fe  Fe53      1.0  0.37249  0.78629  0.86451  1.0000
  S   S107      1.0  0.40552  0.77238  0.84020  1.0000
  H   H901      1.0  0.39564  0.76569  0.21337  1.0000
  S   S108      1.0  0.36940  0.81418  0.91347  1.0000
  C   C499      1.0  0.51126  0.78896  0.71557  1.0000
  S   S109      1.0  0.48245  0.76992  0.55194  1.0000
  C   C500      1.0  0.36547  0.74181  0.44250  1.0000
  H   H902      1.0  0.40083  0.77828  0.67760  1.0000
  Fe  Fe54      1.0  0.51770  0.76455  0.57052  1.0000
  S   S110      1.0  0.54283  0.79040  0.58937  1.0000
  C   C501      1.0  0.41814  0.76989  0.53084  1.0000
  H   H903      1.0  0.64473  0.74575  0.55673  1.0000
  H   H904      1.0  0.53183  0.76334  0.74427  1.0000
  S   S111      1.0  0.62280  0.83418  0.48610  1.0000
  C   C502      1.0  0.56514  0.80181  0.55957  1.0000
  C   C503      1.0  0.58173  0.81229  0.58323  1.0000
  C   C504      1.0  0.59977  0.82168  0.56134  1.0000
  C   C505      1.0  0.60110  0.82132  0.51527  1.0000
  C   C506      1.0  0.58427  0.81123  0.49149  1.0000
  C   C507      1.0  0.56647  0.80136  0.51348  1.0000
  H   H905      1.0  0.58066  0.81314  0.61882  1.0000
  H   H906      1.0  0.61231  0.82981  0.58000  1.0000
  H   H907      1.0  0.58499  0.81107  0.45582  1.0000
  H   H908      1.0  0.55365  0.79372  0.49473  1.0000
  C   C508      1.0  0.41466  0.76839  0.78480  1.0000
  C   C509      1.0  0.43530  0.75843  0.77707  1.0000
  H   H909      1.0  0.56605  0.75376  0.51564  1.0000
  C   C510      1.0  0.43124  0.76290  0.69756  1.0000
  C   C511      1.0  0.41050  0.77258  0.70526  1.0000
  C   C512      1.0  0.40224  0.77530  0.74853  1.0000
  H   H910      1.0  0.50714  0.81177  0.64168  1.0000
  C   C513      1.0  0.44599  0.81973  0.73731  1.0000
  H   H911      1.0  0.41499  0.82735  0.76945  1.0000
  H   H912      1.0  0.38639  0.78301  0.75386  1.0000
  C   C514      1.0  0.49353  0.83558  0.71434  1.0000
  N   N29       1.0  0.48163  0.81756  0.69058  1.0000
  H   H913      1.0  0.37706  0.74300  0.21576  1.0000
  C   C515      1.0  0.60114  0.75233  0.52765  1.0000
  C   C516      1.0  0.42291  0.82976  0.73671  1.0000
  H   H914      1.0  0.50377  0.87215  0.76455  1.0000
  H   H915      1.0  0.62983  0.92249  0.26394  1.0000
  C   C517      1.0  0.59865  0.74418  0.57596  1.0000
  H   H916      1.0  0.61563  0.74476  0.51124  1.0000
  H   H917      1.0  0.48066  0.79596  0.74763  1.0000
  C   C518      1.0  0.58107  0.74653  0.50045  1.0000
  H   H918      1.0  0.44920  0.80798  0.67046  1.0000
  H   H919      1.0  0.44292  0.77997  0.48310  1.0000
  S   S112      1.0  0.33353  0.85896  0.83854  1.0000
  H   H920      1.0  0.51794  0.78487  0.68251  1.0000
  C   C519      1.0  0.62260  0.77104  0.60896  1.0000
  H   H921      1.0  0.63843  0.77124  0.67471  1.0000
  H   H922      1.0  0.58427  0.75303  0.59078  1.0000
  H   H923      1.0  0.47788  0.78234  0.69618  1.0000
  H   H924      1.0  0.36494  0.77168  0.51454  1.0000
  H   H925      1.0  0.45940  0.74796  0.72847  1.0000
  H   H926      1.0  0.62692  0.77831  0.57637  1.0000
  C   C520      1.0  0.51432  0.76853  0.74452  1.0000
  C   C521      1.0  0.35319  0.74542  0.04098  1.0000
  H   H927      1.0  0.64634  0.80947  0.61070  1.0000
  C   C522      1.0  0.48669  0.79584  0.71296  1.0000
  H   H928      1.0  0.60736  0.77970  0.62005  1.0000
  H   H929      1.0  0.64326  0.84361  0.37503  1.0000
  H   H930      1.0  0.47837  0.86405  0.67888  1.0000
  H   H931      1.0  0.48108  0.80152  0.62714  1.0000
  H   H932      1.0  0.41276  0.82163  0.71142  1.0000
  H   H933      1.0  0.60577  0.75089  0.67168  1.0000
  C   C523      1.0  0.49901  0.87610  0.73005  1.0000
  H   H934      1.0  0.62779  0.89506  0.24248  1.0000
  Fe  Fe55      1.0  0.34071  0.82611  0.87254  1.0000
  H   H935      1.0  0.62728  0.80984  0.65666  1.0000
  H   H936      1.0  0.39684  0.76935  0.47414  1.0000
  H   H937      1.0  0.46819  0.85994  0.73339  1.0000
  C   C524      1.0  0.48632  0.83610  0.61352  1.0000
  C   C525      1.0  0.48317  0.85904  0.71257  1.0000
  C   C526      1.0  0.43161  0.78753  0.50773  1.0000
  C   C527      1.0  0.44353  0.75562  0.73375  1.0000
  S   S113      1.0  0.44110  0.76118  0.64221  1.0000
  H   H938      1.0  0.42351  0.84764  0.72963  1.0000
  H   H939      1.0  0.49102  0.89260  0.72960  1.0000
  H   H940      1.0  0.46922  0.84240  0.61388  1.0000
  H   H941      1.0  0.51068  0.83655  0.70174  1.0000
  H   H942      1.0  0.33853  0.77022  0.60181  1.0000
  C   C528      1.0  0.64279  0.80251  0.64381  1.0000
  Fe  Fe56      1.0  0.34489  0.79278  0.94931  1.0000
  H   H943      1.0  0.44147  0.79637  0.53250  1.0000
  S   S114      1.0  0.50801  0.74569  0.63138  1.0000
  C   C529      1.0  0.49221  0.83101  0.56551  1.0000
  H   H944      1.0  0.52130  0.80219  0.72975  1.0000
  S   S115      1.0  0.34995  0.76435  0.90342  1.0000
  H   H945      1.0  0.42970  0.75850  0.54780  1.0000
  H   H946      1.0  0.35612  0.74392  0.00589  1.0000
  H   H947      1.0  0.64140  0.87331  0.33586  1.0000
  H   H948      1.0  0.40797  0.77820  0.55628  1.0000
  H   H949      1.0  0.42076  0.79968  0.49092  1.0000
  C   C530      1.0  0.34632  0.74901  0.13238  1.0000
  H   H950      1.0  0.51396  0.87668  0.70902  1.0000
  C   C531      1.0  0.34649  0.76569  0.05845  1.0000
  H   H951      1.0  0.45565  0.82821  0.76279  1.0000
  H   H952      1.0  0.50923  0.82445  0.56285  1.0000
  H   H953      1.0  0.60279  0.77041  0.52644  1.0000
  C   C532      1.0  0.33138  0.76305  0.57153  1.0000
  N   N30       1.0  0.61847  0.74674  0.60502  1.0000
  H   H954      1.0  0.49102  0.84625  0.54540  1.0000
  H   H955      1.0  0.48075  0.81888  0.55170  1.0000
  Fe  Fe57      1.0  0.47303  0.74879  0.60974  1.0000
  C   C533      1.0  0.48932  0.81558  0.64326  1.0000
  H   H956      1.0  0.45221  0.83654  0.67546  1.0000
  H   H957      1.0  0.39433  0.74677  0.16789  1.0000
  H   H958      1.0  0.49513  0.83156  0.75012  1.0000
  H   H959      1.0  0.50445  0.75476  0.73182  1.0000
  H   H960      1.0  0.58278  0.75329  0.46654  1.0000
  C   C534      1.0  0.45707  0.82076  0.69109  1.0000
  H   H961      1.0  0.44447  0.80239  0.74791  1.0000
  H   H962      1.0  0.44502  0.75294  0.80484  1.0000
  H   H963      1.0  0.50932  0.77204  0.77910  1.0000
  H   H964      1.0  0.34404  0.75059  0.16756  1.0000
  H   H965      1.0  0.37536  0.76556  0.56738  1.0000
  C   C535      1.0  0.63031  0.90479  0.27292  1.0000
  C   C536      1.0  0.64120  0.77758  0.64083  1.0000
  H   H966      1.0  0.64567  0.80503  0.35068  1.0000
  H   H967      1.0  0.61675  0.90160  0.29659  1.0000
  C   C537      1.0  0.39348  0.74819  0.20441  1.0000
  H   H968      1.0  0.43436  0.74870  0.38012  1.0000
  C   C538      1.0  0.65242  0.89899  0.29366  1.0000
  H   H969      1.0  0.64801  0.80700  0.40983  1.0000
  H   H970      1.0  0.32605  0.87575  0.92832  1.0000
  H   H971      1.0  0.64637  0.86450  0.28139  1.0000
  H   H972      1.0  0.65417  0.90970  0.32292  1.0000
  C   C539      1.0  0.65335  0.87463  0.30822  1.0000
  C   C540      1.0  0.40413  0.75710  0.49730  1.0000
  C   C541      1.0  0.36904  0.75772  0.53697  1.0000
  Fe  Fe58      1.0  0.32282  0.78001  0.86373  1.0000
  S   S116      1.0  0.46651  0.74022  0.44716  1.0000
  H   H973      1.0  0.32730  0.77646  0.54786  1.0000
  C   C542      1.0  0.34733  0.74651  0.55060  1.0000
  H   H974      1.0  0.41562  0.74713  0.47673  1.0000
  H   H975      1.0  0.35302  0.75364  0.45507  1.0000
  N   N31       1.0  0.38642  0.74295  0.51670  1.0000
  H   H976      1.0  0.37763  0.75102  0.42261  1.0000
  H   H977      1.0  0.33902  0.73932  0.52171  1.0000
  Fe  Fe59      1.0  0.71579  0.02412  0.83518  1.0000
  S   S117      1.0  0.73357  0.01544  0.77226  1.0000
  S   S118      1.0  0.68879  0.04990  0.82393  1.0000
  Fe  Fe60      1.0  0.76392  0.01959  0.81284  1.0000
  S   S119      1.0  0.78885  0.04019  0.77501  1.0000
  S   S120      1.0  0.74614  0.02902  0.87530  1.0000
  Fe  Fe61      1.0  0.83986  0.16266  0.80336  1.0000
  S   S121      1.0  0.84084  0.18929  0.85495  1.0000
  S   S122      1.0  0.83578  0.12849  0.83446  1.0000
  Fe  Fe62      1.0  0.84318  0.19644  0.72785  1.0000
  S   S123      1.0  0.84394  0.22496  0.77442  1.0000
  S   S124      1.0  0.84257  0.19885  0.65213  1.0000
  Fe  Fe63      1.0  0.86769  0.20466  0.81532  1.0000
  C   C543      1.0  0.66788  0.11118  0.85846  1.0000
  Fe  Fe64      1.0  0.81733  0.20746  0.81121  1.0000
  S   S125      1.0  0.78959  0.22602  0.84479  1.0000
  S   S126      1.0  0.86875  0.17680  0.76598  1.0000
  S   S127      1.0  0.81456  0.18022  0.76207  1.0000
  S   S128      1.0  0.69040  0.21112  0.79581  1.0000
  Fe  Fe65      1.0  0.98473  0.22893  0.04080  1.0000
  H   H978      1.0  0.83316  0.01546  0.74011  1.0000
  C   C544      1.0  0.91578  0.21939  0.88661  1.0000
  H   H979      1.0  0.72890  0.21656  0.63447  1.0000
  H   H980      1.0  0.71058  0.23340  0.86901  1.0000
  C   C545      1.0  0.89905  0.22125  0.58388  1.0000
  C   C546      1.0  0.93974  0.19440  0.92756  1.0000
  H   H981      1.0  0.73606  0.23539  0.12801  1.0000
  H   H982      1.0  0.84812  0.99486  0.77097  1.0000
  C   C547      1.0  0.67072  0.11165  0.90421  1.0000
  C   C548      1.0  0.92031  0.17746  0.07217  1.0000
  C   C549      1.0  0.76215  0.21952  0.83366  1.0000
  C   C550      1.0  0.75663  0.20588  0.79853  1.0000
  C   C551      1.0  0.73450  0.20264  0.78817  1.0000
  C   C552      1.0  0.71781  0.21277  0.81319  1.0000
  H   H983      1.0  0.89406  0.20429  0.59255  1.0000
  H   H984      1.0  0.94382  0.15052  0.07845  1.0000
  H   H985      1.0  0.76937  0.19833  0.77867  1.0000
  H   H986      1.0  0.73031  0.19242  0.76049  1.0000
  C   C553      1.0  0.76162  0.00735  0.66467  1.0000
  H   H987      1.0  0.73757  0.03054  0.63886  1.0000
  H   H988      1.0  0.74116  0.07831  0.00143  1.0000
  H   H989      1.0  0.70937  0.21055  0.70397  1.0000
  H   H990      1.0  0.79761  0.21662  0.64672  1.0000
  H   H991      1.0  0.84914  0.18286  0.96547  1.0000
  H   H992      1.0  0.83837  0.20303  0.55817  1.0000
  C   C554      1.0  0.68348  0.07394  0.85528  1.0000
  C   C555      1.0  0.68667  0.07452  0.90091  1.0000
  C   C556      1.0  0.92258  0.19799  0.89721  1.0000
  C   C557      1.0  0.83986  0.21946  0.57116  1.0000
  H   H993      1.0  0.69338  0.06024  0.91761  1.0000
  H   H994      1.0  0.95607  0.17713  0.07267  1.0000
  C   C558      1.0  0.80031  0.06541  0.79245  1.0000
  C   C559      1.0  0.80627  0.08116  0.76059  1.0000
  C   C560      1.0  0.81627  0.10098  0.77292  1.0000
  C   C561      1.0  0.82121  0.10491  0.81722  1.0000
  C   C562      1.0  0.81537  0.08908  0.84901  1.0000
  C   C563      1.0  0.80469  0.06962  0.83686  1.0000
  H   H995      1.0  0.80319  0.07800  0.72610  1.0000
  H   H996      1.0  0.82087  0.11284  0.74802  1.0000
  H   H997      1.0  0.81932  0.09180  0.88329  1.0000
  H   H998      1.0  0.80053  0.05756  0.86170  1.0000
  H   H999      1.0  0.86464  0.15941  0.98621  1.0000
  C   C564      1.0  0.70689  0.22633  0.68619  1.0000
  C   C565      1.0  0.79766  0.98929  0.71759  1.0000
  C   C566      1.0  0.92628  0.23708  0.90708  1.0000
  Fe  Fe66      1.0  0.66495  0.20478  0.84859  1.0000
  C   C567      1.0  0.87433  0.20668  0.17327  1.0000
  C   C568      1.0  0.83153  0.00031  0.76034  1.0000
  S   S129      1.0  0.67206  0.19694  0.91943  1.0000
  H   H1000     1.0  0.92419  0.19888  0.01558  1.0000
  H   H1001     1.0  0.75423  0.23481  0.59367  1.0000
  H   H1002     1.0  0.79945  0.00610  0.70355  1.0000
  C   C569      1.0  0.78430  0.17579  0.63299  1.0000
  H   H1003     1.0  0.77403  0.01206  0.63970  1.0000
  H   H1004     1.0  0.76406  0.01785  0.69410  1.0000
  H   H1005     1.0  0.90415  0.22161  0.11717  1.0000
  H   H1006     1.0  0.87876  0.23223  0.09802  1.0000
  C   C570      1.0  0.94996  0.21208  0.94854  1.0000
  H   H1007     1.0  0.68236  0.09337  0.96067  1.0000
  S   S130      1.0  0.66203  0.13451  0.93637  1.0000
  C   C571      1.0  0.69793  0.22589  0.02492  1.0000
  H   H1008     1.0  0.67146  0.09204  0.79896  1.0000
  N   N32       1.0  0.89589  0.21117  0.05097  1.0000
  C   C572      1.0  0.68020  0.09324  0.92526  1.0000
  H   H1009     1.0  0.76599  0.20086  0.59936  1.0000
  H   H1010     1.0  0.89899  0.18081  0.97880  1.0000
  H   H1011     1.0  0.88422  0.18349  0.12376  1.0000
  C   C573      1.0  0.73889  0.01271  0.64638  1.0000
  H   H1012     1.0  0.72603  0.00858  0.67100  1.0000
  H   H1013     1.0  0.90752  0.16611  0.06091  1.0000
  C   C574      1.0  0.87642  0.19996  0.12486  1.0000
  H   H1014     1.0  0.78247  0.20897  0.69370  1.0000
  C   C575      1.0  0.76951  0.19626  0.63403  1.0000
  H   H1015     1.0  0.91933  0.17925  0.10855  1.0000
  H   H1016     1.0  0.79975  0.17923  0.61486  1.0000
  H   H1017     1.0  0.78838  0.17030  0.66703  1.0000
  H   H1018     1.0  0.77583  0.16226  0.61596  1.0000
  C   C576      1.0  0.72334  0.22551  0.84960  1.0000
  H   H1019     1.0  0.94496  0.17777  0.93512  1.0000
  H   H1020     1.0  0.89077  0.20806  0.18849  1.0000
  H   H1021     1.0  0.94417  0.16398  0.02534  1.0000
  H   H1022     1.0  0.82167  0.00419  0.79032  1.0000
  H   H1023     1.0  0.70458  0.23032  0.26480  1.0000
  S   S131      1.0  0.97103  0.20648  0.98758  1.0000
  H   H1024     1.0  0.73598  0.00339  0.61557  1.0000
  H   H1025     1.0  0.85957  0.19862  0.11154  1.0000
  N   N33       1.0  0.76893  0.23706  0.65875  1.0000
  N   N34       1.0  0.74914  0.11410  0.86253  1.0000
  C   C577      1.0  0.75471  0.10698  0.81612  1.0000
  C   C578      1.0  0.76695  0.12874  0.87945  1.0000
  C   C579      1.0  0.74905  0.09363  0.89100  1.0000
  C   C580      1.0  0.72708  0.12552  0.86620  1.0000
  C   C581      1.0  0.71915  0.13922  0.82572  1.0000
  C   C582      1.0  0.73989  0.08890  0.79684  1.0000
  C   C583      1.0  0.74593  0.09721  0.94133  1.0000
  C   C584      1.0  0.77083  0.15032  0.85369  1.0000
  C   C585      1.0  0.78829  0.16399  0.87613  1.0000
  C   C586      1.0  0.70293  0.15723  0.83949  1.0000
  C   C587      1.0  0.74215  0.08731  0.74676  1.0000
  C   C588      1.0  0.74307  0.07535  0.96547  1.0000
  H   H1026     1.0  0.77177  0.10049  0.81484  1.0000
  H   H1027     1.0  0.75494  0.12100  0.79285  1.0000
  H   H1028     1.0  0.76328  0.13398  0.91382  1.0000
  H   H1029     1.0  0.78284  0.11952  0.88064  1.0000
  H   H1030     1.0  0.76455  0.08400  0.88621  1.0000
  H   H1031     1.0  0.73560  0.08261  0.88083  1.0000
  H   H1032     1.0  0.71402  0.11339  0.87237  1.0000
  H   H1033     1.0  0.72656  0.13621  0.89599  1.0000
  H   H1034     1.0  0.71084  0.12831  0.80199  1.0000
  H   H1035     1.0  0.73245  0.14741  0.80746  1.0000
  H   H1036     1.0  0.74469  0.07262  0.81076  1.0000
  H   H1037     1.0  0.72241  0.09194  0.80507  1.0000
  H   H1038     1.0  0.73128  0.10769  0.94820  1.0000
  H   H1039     1.0  0.76055  0.10501  0.95571  1.0000
  H   H1040     1.0  0.77643  0.14695  0.81946  1.0000
  H   H1041     1.0  0.75581  0.16071  0.85328  1.0000
  H   H1042     1.0  0.80365  0.15434  0.88058  1.0000
  H   H1043     1.0  0.79190  0.17851  0.85540  1.0000
  H   H1044     1.0  0.78241  0.16986  0.90882  1.0000
  H   H1045     1.0  0.71149  0.17037  0.85761  1.0000
  H   H1046     1.0  0.69521  0.16448  0.80966  1.0000
  H   H1047     1.0  0.68989  0.15069  0.86109  1.0000
  H   H1048     1.0  0.73184  0.07375  0.73459  1.0000
  H   H1049     1.0  0.73665  0.10286  0.73083  1.0000
  H   H1050     1.0  0.75942  0.08369  0.73736  1.0000
  H   H1051     1.0  0.75761  0.06447  0.96017  1.0000
  H   H1052     1.0  0.72827  0.06686  0.95366  1.0000
  H   H1053     1.0  0.87132  0.22196  0.37311  1.0000
  H   H1054     1.0  0.88325  0.20407  0.95878  1.0000
  C   C589      1.0  0.87864  0.19710  0.02994  1.0000
  C   C590      1.0  0.84208  0.22238  0.61701  1.0000
  S   S132      1.0  0.98009  0.21592  0.10957  1.0000
  H   H1055     1.0  0.79609  0.23338  0.73776  1.0000
  H   H1056     1.0  0.86497  0.19412  0.19179  1.0000
  C   C591      1.0  0.88314  0.18980  0.98162  1.0000
  C   C592      1.0  0.74546  0.22905  0.85950  1.0000
  H   H1057     1.0  0.91481  0.18422  0.88154  1.0000
  H   H1058     1.0  0.75412  0.19164  0.65105  1.0000
  H   H1059     1.0  0.91187  0.21307  0.52004  1.0000
  C   C593      1.0  0.86539  0.17441  0.96534  1.0000
  H   H1060     1.0  0.90295  0.22877  0.99020  1.0000
  C   C594      1.0  0.69166  0.22287  0.24428  1.0000
  H   H1061     1.0  0.87594  0.18185  0.04909  1.0000
  C   C595      1.0  0.67412  0.09239  0.83422  1.0000
  H   H1062     1.0  0.86920  0.16929  0.93094  1.0000
  C   C596      1.0  0.78057  0.21505  0.65927  1.0000
  H   H1063     1.0  0.67557  0.23064  0.25252  1.0000
  C   C597      1.0  0.74735  0.23598  0.68357  1.0000
  C   C598      1.0  0.94247  0.16666  0.06147  1.0000
  C   C599      1.0  0.91823  0.20030  0.05004  1.0000
  S   S133      1.0  0.89479  0.22510  0.84743  1.0000
  H   H1064     1.0  0.74853  0.22382  0.71098  1.0000
  H   H1065     1.0  0.69184  0.22502  0.66605  1.0000
  H   H1066     1.0  0.68430  0.21674  0.17642  1.0000
  H   H1067     1.0  0.86255  0.20599  0.03044  1.0000
  H   H1068     1.0  0.90054  0.22055  0.45023  1.0000
  C   C600      1.0  0.88915  0.22264  0.36599  1.0000
  H   H1069     1.0  0.89138  0.22588  0.33014  1.0000
  H   H1070     1.0  0.69089  0.20511  0.25246  1.0000
  H   H1071     1.0  0.93046  0.21075  0.06667  1.0000
  H   H1072     1.0  0.86546  0.22267  0.17620  1.0000
  C   C601      1.0  0.88939  0.21718  0.09779  1.0000
  C   C602      1.0  0.89912  0.22418  0.53375  1.0000
  C   C603      1.0  0.94307  0.23348  0.93828  1.0000
  H   H1073     1.0  0.71311  0.21807  0.18829  1.0000
  H   H1074     1.0  0.89686  0.20649  0.37397  1.0000
  H   H1075     1.0  0.91563  0.22407  0.59742  1.0000
  H   H1076     1.0  0.88302  0.21870  0.52126  1.0000
  C   C604      1.0  0.69688  0.22576  0.19523  1.0000
  H   H1077     1.0  0.97625  0.21684  0.45583  1.0000
  H   H1078     1.0  0.70858  0.21154  0.03316  1.0000
  C   C605      1.0  0.94399  0.23117  0.46746  1.0000
  H   H1079     1.0  0.83762  0.23505  0.50686  1.0000
  H   H1080     1.0  0.70236  0.22316  0.11021  1.0000
  H   H1081     1.0  0.80866  0.99036  0.63772  1.0000
  H   H1082     1.0  0.78702  0.99138  0.74723  1.0000
  H   H1083     1.0  0.98226  0.17285  0.22016  1.0000
  C   C606      1.0  0.72653  0.23091  0.65633  1.0000
  C   C607      1.0  0.89711  0.23216  0.02432  1.0000
  H   H1084     1.0  0.93631  0.21861  0.44649  1.0000
  Fe  Fe67      1.0  0.74506  0.99223  0.88919  1.0000
  H   H1085     1.0  0.94421  0.22543  0.50222  1.0000
  H   H1086     1.0  0.79509  0.23236  0.58034  1.0000
  H   H1087     1.0  0.70086  0.23044  0.98986  1.0000
  H   H1088     1.0  0.66065  0.12520  0.84177  1.0000
  H   H1089     1.0  0.68053  0.22115  0.02850  1.0000
  C   C608      1.0  0.96783  0.23304  0.45241  1.0000
  H   H1090     1.0  0.98750  0.14586  0.16050  1.0000
  C   C609      1.0  0.83947  0.23760  0.54194  1.0000
  H   H1091     1.0  0.88729  0.23291  0.59962  1.0000
  H   H1092     1.0  0.98711  0.08681  0.06953  1.0000
  H   H1093     1.0  0.96868  0.23815  0.41720  1.0000
  H   H1094     1.0  0.87795  0.23884  0.44915  1.0000
  C   C610      1.0  0.89594  0.23782  0.44277  1.0000
  Fe  Fe68      1.0  0.76158  0.47370  0.33913  1.0000
  H   H1095     1.0  0.81717  0.26803  0.73530  1.0000
  S   S134      1.0  0.79283  0.45468  0.35654  1.0000
  Fe  Fe69      1.0  0.71307  0.46863  0.32796  1.0000
  S   S135      1.0  0.68401  0.44556  0.33512  1.0000
  S   S136      1.0  0.73348  0.47646  0.38752  1.0000
  Fe  Fe70      1.0  0.83448  0.28646  0.44916  1.0000
  S   S137      1.0  0.84452  0.26320  0.39489  1.0000
  S   S138      1.0  0.84143  0.28247  0.52314  1.0000
  Fe  Fe71      1.0  0.81623  0.32151  0.38265  1.0000
  S   S139      1.0  0.82600  0.30044  0.32484  1.0000
  S   S140      1.0  0.79283  0.34993  0.36532  1.0000
  Fe  Fe72      1.0  0.81208  0.27286  0.36447  1.0000
  H   H1096     1.0  0.97883  0.29687  0.87116  1.0000
  Fe  Fe73      1.0  0.85748  0.29311  0.35977  1.0000
  S   S141      1.0  0.89196  0.29721  0.33085  1.0000
  S   S142      1.0  0.80117  0.29386  0.42099  1.0000
  S   S143      1.0  0.84880  0.31619  0.41559  1.0000
  S   S144      1.0  0.68980  0.27681  0.38365  1.0000
  C   C611      1.0  0.89873  0.27642  0.46274  1.0000
  C   C612      1.0  0.67227  0.47226  0.23388  1.0000
  H   H1097     1.0  0.90560  0.29145  0.52780  1.0000
  H   H1098     1.0  0.70831  0.42116  0.26675  1.0000
  H   H1099     1.0  0.79694  0.26078  0.59680  1.0000
  C   C613      1.0  0.90393  0.28428  0.28361  1.0000
  C   C614      1.0  0.89190  0.27088  0.25561  1.0000
  C   C615      1.0  0.90194  0.26140  0.21800  1.0000
  C   C616      1.0  0.92417  0.26492  0.20801  1.0000
  C   C617      1.0  0.93623  0.27828  0.23611  1.0000
  C   C618      1.0  0.92613  0.28794  0.27354  1.0000
  H   H1100     1.0  0.87481  0.26795  0.26269  1.0000
  H   H1101     1.0  0.77641  0.25889  0.20765  1.0000
  H   H1102     1.0  0.68632  0.37227  0.44188  1.0000
  C   C619      1.0  0.68106  0.35503  0.43824  1.0000
  C   C620      1.0  0.76032  0.25957  0.34340  1.0000
  H   H1103     1.0  0.88052  0.27668  0.46561  1.0000
  C   C621      1.0  0.73295  0.26793  0.39951  1.0000
  C   C622      1.0  0.71674  0.27003  0.36716  1.0000
  C   C623      1.0  0.72234  0.26688  0.32279  1.0000
  C   C624      1.0  0.74406  0.26141  0.31104  1.0000
  C   C625      1.0  0.78337  0.25325  0.68207  1.0000
  H   H1104     1.0  0.79242  0.28345  0.74887  1.0000
  H   H1105     1.0  0.70995  0.26844  0.29768  1.0000
  C   C626      1.0  0.68965  0.46804  0.11100  1.0000
  C   C627      1.0  0.84147  0.25893  0.55825  1.0000
  H   H1106     1.0  0.86687  0.39182  0.34011  1.0000
  C   C628      1.0  0.84386  0.26182  0.60406  1.0000
  H   H1107     1.0  0.68229  0.28031  0.12227  1.0000
  H   H1108     1.0  0.84551  0.27823  0.61708  1.0000
  C   C629      1.0  0.79301  0.42555  0.35872  1.0000
  C   C630      1.0  0.80990  0.41425  0.38109  1.0000
  C   C631      1.0  0.81025  0.39109  0.38364  1.0000
  C   C632      1.0  0.79388  0.37903  0.36309  1.0000
  C   C633      1.0  0.77729  0.39035  0.34008  1.0000
  C   C634      1.0  0.77679  0.41344  0.33795  1.0000
  H   H1109     1.0  0.82253  0.42349  0.39725  1.0000
  H   H1110     1.0  0.82295  0.38264  0.40202  1.0000
  H   H1111     1.0  0.76463  0.38121  0.32393  1.0000
  H   H1112     1.0  0.76378  0.42188  0.32039  1.0000
  H   H1113     1.0  0.84612  0.44580  0.28309  1.0000
  H   H1114     1.0  0.77334  0.26989  0.15268  1.0000
  H   H1115     1.0  0.89239  0.25130  0.19639  1.0000
  C   C635      1.0  0.75469  0.26291  0.38768  1.0000
  H   H1116     1.0  0.72635  0.29947  0.15134  1.0000
  C   C636      1.0  0.89752  0.33380  0.20826  1.0000
  H   H1117     1.0  0.68809  0.46947  0.25093  1.0000
  H   H1118     1.0  0.74838  0.25880  0.27692  1.0000
  H   H1119     1.0  0.71776  0.48524  0.04512  1.0000
  H   H1120     1.0  0.87827  0.31571  0.49309  1.0000
  H   H1121     1.0  0.88996  0.31739  0.21170  1.0000
  H   H1122     1.0  0.91560  0.25522  0.54231  1.0000
  H   H1123     1.0  0.98215  0.31327  0.03062  1.0000
  C   C637      1.0  0.73162  0.45319  0.14612  1.0000
  H   H1124     1.0  0.92192  0.28358  0.02914  1.0000
  Fe  Fe74      1.0  0.66449  0.28511  0.33205  1.0000
  C   C638      1.0  0.89574  0.31686  0.48309  1.0000
  H   H1125     1.0  0.75792  0.46554  0.18699  1.0000
  H   H1126     1.0  0.95330  0.28125  0.22892  1.0000
  C   C639      1.0  0.71255  0.45965  0.17797  1.0000
  N   N35       1.0  0.68977  0.46081  0.15871  1.0000
  C   C640      1.0  0.85677  0.43242  0.26972  1.0000
  H   H1127     1.0  0.76697  0.26096  0.41299  1.0000
  C   C641      1.0  0.90261  0.24857  0.52067  1.0000
  H   H1128     1.0  0.88720  0.25715  0.53134  1.0000
  H   H1129     1.0  0.88634  0.37342  0.31544  1.0000
  H   H1130     1.0  0.70461  0.41426  0.15537  1.0000
  H   H1131     1.0  0.80368  0.26389  0.78757  1.0000
  N   N36       1.0  0.84960  0.36915  0.25959  1.0000
  H   H1132     1.0  0.92121  0.25369  0.89894  1.0000
  S   S145      1.0  0.66769  0.35298  0.24330  1.0000
  H   H1133     1.0  0.92528  0.29772  0.48523  1.0000
  H   H1134     1.0  0.93561  0.29835  0.29480  1.0000
  H   H1135     1.0  0.70492  0.29401  0.19081  1.0000
  H   H1136     1.0  0.77656  0.27023  0.67826  1.0000
  C   C642      1.0  0.90765  0.29512  0.49216  1.0000
  Fe  Fe75      1.0  0.96998  0.25040  0.12801  1.0000
  C   C643      1.0  0.84399  0.24372  0.63331  1.0000
  H   H1137     1.0  0.70129  0.38513  0.23139  1.0000
  S   S146      1.0  0.78746  0.25261  0.32823  1.0000
  H   H1138     1.0  0.89686  0.32128  0.44754  1.0000
  C   C644      1.0  0.67324  0.37771  0.27198  1.0000
  H   H1139     1.0  0.77151  0.24863  0.75088  1.0000
  H   H1140     1.0  0.82383  0.37446  0.21143  1.0000
  H   H1141     1.0  0.91439  0.26845  0.98063  1.0000
  H   H1142     1.0  0.89578  0.33961  0.17366  1.0000
  H   H1143     1.0  0.84583  0.24625  0.66841  1.0000
  C   C645      1.0  0.65990  0.38520  0.30657  1.0000
  H   H1144     1.0  0.98143  0.27700  0.96353  1.0000
  S   S147      1.0  0.97377  0.26313  0.05835  1.0000
  H   H1145     1.0  0.75166  0.43681  0.19616  1.0000
  C   C646      1.0  0.69077  0.39084  0.25790  1.0000
  H   H1146     1.0  0.93564  0.26113  0.43158  1.0000
  C   C647      1.0  0.85770  0.39184  0.24856  1.0000
  C   C648      1.0  0.78714  0.24911  0.73214  1.0000
  H   H1147     1.0  0.76634  0.44518  0.14731  1.0000
  C   C649      1.0  0.87444  0.36320  0.37833  1.0000
  H   H1148     1.0  0.88015  0.34597  0.37351  1.0000
  H   H1149     1.0  0.88728  0.37204  0.39667  1.0000
  H   H1150     1.0  0.85918  0.36352  0.39840  1.0000
  N   N37       1.0  0.71764  0.34362  0.39994  1.0000
  C   C650      1.0  0.69290  0.34378  0.39867  1.0000
  C   C651      1.0  0.72715  0.33278  0.35904  1.0000
  C   C652      1.0  0.72443  0.32987  0.43933  1.0000
  C   C653      1.0  0.72674  0.36633  0.40584  1.0000
  C   C654      1.0  0.71893  0.38421  0.37287  1.0000
  C   C655      1.0  0.74940  0.32556  0.44471  1.0000
  C   C656      1.0  0.71458  0.33615  0.31515  1.0000
  C   C657      1.0  0.72784  0.32757  0.27583  1.0000
  C   C658      1.0  0.72536  0.40705  0.38867  1.0000
  C   C659      1.0  0.75402  0.31219  0.48655  1.0000
  H   H1151     1.0  0.68694  0.32660  0.39644  1.0000
  H   H1152     1.0  0.68660  0.35205  0.36856  1.0000
  H   H1153     1.0  0.74442  0.33789  0.35374  1.0000
  H   H1154     1.0  0.72804  0.31462  0.36347  1.0000
  H   H1155     1.0  0.71637  0.31354  0.43818  1.0000
  H   H1156     1.0  0.71886  0.33772  0.47053  1.0000
  H   H1157     1.0  0.72336  0.37235  0.43989  1.0000
  H   H1158     1.0  0.74491  0.36593  0.40297  1.0000
  H   H1159     1.0  0.70097  0.38447  0.36866  1.0000
  H   H1160     1.0  0.72677  0.38146  0.34028  1.0000
  H   H1161     1.0  0.75844  0.34114  0.44761  1.0000
  H   H1162     1.0  0.75621  0.31627  0.41621  1.0000
  H   H1163     1.0  0.69901  0.32693  0.31624  1.0000
  H   H1164     1.0  0.71059  0.35362  0.30893  1.0000
  H   H1165     1.0  0.71802  0.32953  0.24532  1.0000
  H   H1166     1.0  0.74314  0.33702  0.27202  1.0000
  H   H1167     1.0  0.73200  0.30989  0.28030  1.0000
  H   H1168     1.0  0.74270  0.40728  0.39938  1.0000
  H   H1169     1.0  0.72330  0.41914  0.36147  1.0000
  H   H1170     1.0  0.71474  0.41228  0.41670  1.0000
  H   H1171     1.0  0.77196  0.31022  0.49109  1.0000
  H   H1172     1.0  0.74724  0.32069  0.51607  1.0000
  H   H1173     1.0  0.74676  0.29565  0.48403  1.0000
  H   H1174     1.0  0.88044  0.23968  0.02088  1.0000
  H   H1175     1.0  0.89533  0.36604  0.23610  1.0000
  C   C660      1.0  0.70844  0.29737  0.15564  1.0000
  H   H1176     1.0  0.90245  0.28134  0.42814  1.0000
  H   H1177     1.0  0.95072  0.24724  0.95413  1.0000
  H   H1178     1.0  0.72835  0.43790  0.12796  1.0000
  H   H1179     1.0  0.72064  0.24915  0.05063  1.0000
  H   H1180     1.0  0.68432  0.34609  0.46950  1.0000
  S   S148      1.0  0.74116  0.46468  0.28054  1.0000
  C   C661      1.0  0.80094  0.26730  0.75197  1.0000
  C   C662      1.0  0.91256  0.25001  0.04242  1.0000
  H   H1181     1.0  0.83634  0.36834  0.32621  1.0000
  C   C663      1.0  0.66356  0.40590  0.32570  1.0000
  H   H1182     1.0  0.67782  0.43351  0.19776  1.0000
  H   H1183     1.0  0.66119  0.44061  0.15168  1.0000
  C   C664      1.0  0.69473  0.41132  0.27773  1.0000
  C   C665      1.0  0.75315  0.44996  0.17087  1.0000
  H   H1184     1.0  0.78234  0.33172  0.24384  1.0000
  H   H1185     1.0  0.97659  0.24515  0.47290  1.0000
  C   C666      1.0  0.69728  0.31930  0.14436  1.0000
  H   H1186     1.0  0.85938  0.35581  0.19630  1.0000
  H   H1187     1.0  0.85786  0.39437  0.21210  1.0000
  C   C667      1.0  0.70304  0.24537  0.05467  1.0000
  H   H1188     1.0  0.82907  0.41412  0.24842  1.0000
  H   H1189     1.0  0.78187  0.35921  0.26516  1.0000
  H   H1190     1.0  0.91525  0.33194  0.21573  1.0000
  C   C668      1.0  0.88692  0.35017  0.24033  1.0000
  H   H1191     1.0  0.78688  0.35458  0.20696  1.0000
  C   C669      1.0  0.87065  0.37425  0.33374  1.0000
  H   H1192     1.0  0.83838  0.40731  0.30271  1.0000
  H   H1193     1.0  0.81651  0.33939  0.28329  1.0000
  H   H1194     1.0  0.67932  0.31836  0.15011  1.0000
  C   C670      1.0  0.68087  0.41916  0.31124  1.0000
  C   C671      1.0  0.85152  0.36355  0.30815  1.0000
  C   C672      1.0  0.78988  0.34815  0.24075  1.0000
  H   H1195     1.0  0.81578  0.37998  0.26702  1.0000
  H   H1196     1.0  0.85269  0.34540  0.31281  1.0000
  H   H1197     1.0  0.94019  0.26441  0.48852  1.0000
  C   C673      1.0  0.67853  0.43894  0.16275  1.0000
  H   H1198     1.0  0.73435  0.46633  0.12136  1.0000
  H   H1199     1.0  0.85572  0.33565  0.23847  1.0000
  H   H1200     1.0  0.70438  0.23970  0.71064  1.0000
  H   H1201     1.0  0.88993  0.34365  0.27405  1.0000
  C   C674      1.0  0.89979  0.24092  0.39242  1.0000
  C   C675      1.0  0.81442  0.34609  0.24970  1.0000
  H   H1202     1.0  0.82117  0.33423  0.22531  1.0000
  C   C676      1.0  0.86199  0.35242  0.23209  1.0000
  H   H1203     1.0  0.90326  0.33013  0.50265  1.0000
  H   H1204     1.0  0.87500  0.39385  0.25830  1.0000
  H   H1205     1.0  0.86216  0.43710  0.23595  1.0000
  H   H1206     1.0  0.71291  0.44810  0.20651  1.0000
  H   H1207     1.0  0.65982  0.47979  0.16872  1.0000
  S   S149      1.0  0.67112  0.29205  0.26076  1.0000
  C   C677      1.0  0.82577  0.36859  0.24612  1.0000
  C   C678      1.0  0.84395  0.41109  0.26867  1.0000
  H   H1208     1.0  0.87128  0.43061  0.29143  1.0000
  H   H1209     1.0  0.70042  0.32388  0.10941  1.0000
  C   C679      1.0  0.76832  0.25645  0.17528  1.0000
  N   N38       1.0  0.70681  0.25563  0.13762  1.0000
  H   H1210     1.0  0.95735  0.30302  0.00593  1.0000
  C   C680      1.0  0.65625  0.35548  0.43198  1.0000
  H   H1211     1.0  0.70370  0.33242  0.16591  1.0000
  S   S150      1.0  0.93570  0.25237  0.15987  1.0000
  C   C681      1.0  0.78600  0.24817  0.58317  1.0000
  H   H1212     1.0  0.72863  0.27005  0.43387  1.0000
  H   H1213     1.0  0.91747  0.24069  0.38398  1.0000
  H   H1214     1.0  0.90888  0.25404  0.07733  1.0000
  H   H1215     1.0  0.77111  0.27165  0.53736  1.0000
  H   H1216     1.0  0.76962  0.24324  0.52008  1.0000
  H   H1217     1.0  0.73878  0.27265  0.19653  1.0000
  H   H1218     1.0  0.98131  0.26175  0.77024  1.0000
  H   H1219     1.0  0.89350  0.27816  0.01867  1.0000
  H   H1220     1.0  0.70699  0.28312  0.09177  1.0000
  C   C682      1.0  0.91040  0.27132  0.01594  1.0000
  H   H1221     1.0  0.67285  0.46667  0.09712  1.0000
  H   H1222     1.0  0.75682  0.26189  0.61369  1.0000
  C   C683      1.0  0.70045  0.27887  0.12496  1.0000
  H   H1223     1.0  0.70365  0.25985  0.20877  1.0000
  H   H1224     1.0  0.67886  0.25563  0.18161  1.0000
  H   H1225     1.0  0.71710  0.47580  0.19210  1.0000
  H   H1226     1.0  0.80000  0.25339  0.66691  1.0000
  H   H1227     1.0  0.97042  0.31460  0.93205  1.0000
  H   H1228     1.0  0.73897  0.26307  0.11166  1.0000
  H   H1229     1.0  0.68277  0.38498  0.12413  1.0000
  H   H1230     1.0  0.69992  0.45699  0.09029  1.0000
  H   H1231     1.0  0.96314  0.33191  0.00429  1.0000
  C   C684      1.0  0.77996  0.25561  0.53647  1.0000
  H   H1232     1.0  0.73958  0.24362  0.20588  1.0000
  C   C685      1.0  0.69636  0.25034  0.18161  1.0000
  H   H1233     1.0  0.96624  0.28370  0.79684  1.0000
  C   C686      1.0  0.97060  0.31520  0.00261  1.0000
  H   H1234     1.0  0.66196  0.45758  0.23847  1.0000
  H   H1235     1.0  0.69284  0.42295  0.10333  1.0000
  C   C687      1.0  0.67618  0.47742  0.18434  1.0000
  C   C688      1.0  0.93197  0.25364  0.46434  1.0000
  H   H1236     1.0  0.65906  0.40282  0.12025  1.0000
  H   H1237     1.0  0.74351  0.25197  0.69990  1.0000
  C   C689      1.0  0.74349  0.25671  0.18165  1.0000
  C   C690      1.0  0.68925  0.41923  0.13838  1.0000
  H   H1238     1.0  0.96429  0.25583  0.81741  1.0000
  C   C691      1.0  0.69718  0.24046  0.10362  1.0000
  N   N39       1.0  0.90759  0.25361  0.47262  1.0000
  C   C692      1.0  0.98263  0.31231  0.95865  1.0000
  H   H1239     1.0  0.69313  0.25961  0.04261  1.0000
  C   C693      1.0  0.73144  0.25251  0.13754  1.0000
  H   H1240     1.0  0.89254  0.25664  0.38081  1.0000
  H   H1241     1.0  0.97430  0.27008  0.89111  1.0000
  H   H1242     1.0  0.79509  0.25764  0.51645  1.0000
  C   C694      1.0  0.67423  0.39934  0.13922  1.0000
  H   H1243     1.0  0.92986  0.24438  0.03998  1.0000
  H   H1244     1.0  0.66967  0.39490  0.17362  1.0000
  H   H1245     1.0  0.72216  0.24534  0.63541  1.0000
  H   H1246     1.0  0.77400  0.24043  0.16168  1.0000
  C   C695      1.0  0.97548  0.26812  0.80259  1.0000
  C   C696      1.0  0.76530  0.24556  0.61238  1.0000
  H   H1247     1.0  0.67901  0.24060  0.10611  1.0000
  C   C697      1.0  0.98737  0.28099  0.87814  1.0000
  H   H1248     1.0  0.74965  0.23956  0.88679  1.0000
  H   H1249     1.0  0.65828  0.48746  0.29237  1.0000
  Fe  Fe76      1.0  0.96955  0.71602  0.08064  1.0000
  S   S151      1.0  0.94663  0.68742  0.09377  1.0000
  H   H1250     1.0  0.92910  0.70180  0.00856  1.0000
  Fe  Fe77      1.0  0.68765  0.64698  0.69319  1.0000
  S   S152      1.0  0.71790  0.64423  0.65117  1.0000
  S   S153      1.0  0.68820  0.64421  0.76862  1.0000
  S   S154      1.0  0.68560  0.64691  0.56568  1.0000
  Fe  Fe78      1.0  0.69880  0.62052  0.60992  1.0000
  S   S155      1.0  0.71287  0.58664  0.59172  1.0000
  Fe  Fe79      1.0  0.70192  0.67084  0.61030  1.0000
  S   S156      1.0  0.71905  0.69855  0.57528  1.0000
  H   H1251     1.0  0.75349  0.68509  0.89370  1.0000
  S   S157      1.0  0.67282  0.67557  0.65493  1.0000
  Fe  Fe80      1.0  0.82442  0.65280  0.01556  1.0000
  S   S158      1.0  0.80935  0.64787  0.08256  1.0000
  S   S159      1.0  0.85694  0.66796  0.99422  1.0000
  Fe  Fe81      1.0  0.78120  0.64149  0.96770  1.0000
  S   S160      1.0  0.76279  0.63581  0.03184  1.0000
  S   S161      1.0  0.77225  0.64154  0.89398  1.0000
  Fe  Fe82      1.0  0.78011  0.66606  0.05573  1.0000
  S   S162      1.0  0.76473  0.69184  0.10028  1.0000
  Fe  Fe83      1.0  0.79323  0.61771  0.05503  1.0000
  S   S163      1.0  0.79636  0.58625  0.09743  1.0000
  S   S164      1.0  0.79595  0.67302  0.99076  1.0000
  S   S165      1.0  0.81066  0.62135  0.98912  1.0000
  Fe  Fe84      1.0  0.73111  0.51217  0.36694  1.0000
  S   S166      1.0  0.70845  0.50437  0.31124  1.0000
  S   S167      1.0  0.72212  0.54552  0.39824  1.0000
  H   H1252     1.0  0.66873  0.59268  0.74172  1.0000
  S   S168      1.0  0.73400  0.51944  0.20191  1.0000
  S   S169      1.0  0.76110  0.51011  0.32317  1.0000
  C   C698      1.0  0.75152  0.53842  0.17435  1.0000
  C   C699      1.0  0.74229  0.55453  0.14627  1.0000
  C   C700      1.0  0.75560  0.56946  0.12284  1.0000
  C   C701      1.0  0.77844  0.56822  0.12651  1.0000
  C   C702      1.0  0.78764  0.55195  0.15426  1.0000
  C   C703      1.0  0.77432  0.53721  0.17804  1.0000
  H   H1253     1.0  0.72470  0.55548  0.14252  1.0000
  H   H1254     1.0  0.74824  0.58176  0.10154  1.0000
  H   H1255     1.0  0.80526  0.55070  0.15722  1.0000
  H   H1256     1.0  0.78177  0.52464  0.19857  1.0000
  C   C704      1.0  0.71562  0.57548  0.53770  1.0000
  C   C705      1.0  0.71337  0.58850  0.49983  1.0000
  C   C706      1.0  0.71541  0.57897  0.45760  1.0000
  C   C707      1.0  0.72003  0.55639  0.45259  1.0000
  C   C708      1.0  0.72252  0.54341  0.49046  1.0000
  C   C709      1.0  0.72033  0.55292  0.53273  1.0000
  H   H1257     1.0  0.71029  0.60594  0.50310  1.0000
  C   C710      1.0  0.72734  0.69023  0.99113  1.0000
  H   H1258     1.0  0.72606  0.52603  0.48719  1.0000
  H   H1259     1.0  0.72223  0.54270  0.56176  1.0000
  C   C711      1.0  0.71178  0.64295  0.80289  1.0000
  C   C712      1.0  0.73279  0.64682  0.78632  1.0000
  C   C713      1.0  0.75100  0.64616  0.81474  1.0000
  C   C714      1.0  0.74850  0.64194  0.86018  1.0000
  C   C715      1.0  0.72749  0.63808  0.87683  1.0000
  C   C716      1.0  0.70927  0.63850  0.84827  1.0000
  H   H1260     1.0  0.73496  0.65069  0.75174  1.0000
  H   H1261     1.0  0.76716  0.64925  0.80152  1.0000
  H   H1262     1.0  0.72530  0.63464  0.91160  1.0000
  H   H1263     1.0  0.69309  0.63553  0.86149  1.0000
  H   H1264     1.0  0.71969  0.66925  0.04681  1.0000
  C   C717      1.0  0.76723  0.72006  0.08791  1.0000
  H   H1265     1.0  0.69066  0.64316  0.46226  1.0000
  C   C718      1.0  0.69710  0.49201  0.10252  1.0000
  H   H1266     1.0  0.77589  0.71535  0.01980  1.0000
  C   C719      1.0  0.71082  0.72531  0.59060  1.0000
  H   H1267     1.0  0.71931  0.72147  0.65904  1.0000
  H   H1268     1.0  0.73707  0.72779  0.48271  1.0000
  H   H1269     1.0  0.82598  0.72328  0.92987  1.0000
  C   C720      1.0  0.92143  0.68280  0.06637  1.0000
  C   C721      1.0  0.90577  0.66916  0.08628  1.0000
  C   C722      1.0  0.88592  0.66446  0.06486  1.0000
  C   C723      1.0  0.88162  0.67318  0.02299  1.0000
  C   C724      1.0  0.89739  0.68660  0.00287  1.0000
  C   C725      1.0  0.91707  0.69159  0.02459  1.0000
  H   H1270     1.0  0.90912  0.66201  0.11831  1.0000
  H   H1271     1.0  0.87425  0.65364  0.08018  1.0000
  H   H1272     1.0  0.89432  0.69329  0.97034  1.0000
  N   N40       1.0  0.75936  0.58642  0.30607  1.0000
  C   C726      1.0  0.74232  0.57067  0.28990  1.0000
  C   C727      1.0  0.78016  0.57372  0.31636  1.0000
  C   C728      1.0  0.75111  0.59611  0.34905  1.0000
  C   C729      1.0  0.76371  0.60493  0.27379  1.0000
  C   C730      1.0  0.76093  0.59993  0.22390  1.0000
  C   C731      1.0  0.71869  0.58022  0.28655  1.0000
  C   C732      1.0  0.76720  0.61123  0.37373  1.0000
  C   C733      1.0  0.79078  0.56061  0.27809  1.0000
  C   C734      1.0  0.81073  0.54739  0.29389  1.0000
  C   C735      1.0  0.76983  0.61850  0.19516  1.0000
  C   C736      1.0  0.70439  0.56622  0.25693  1.0000
  C   C737      1.0  0.75589  0.62286  0.41243  1.0000
  H   H1273     1.0  0.74150  0.55612  0.31220  1.0000
  H   H1274     1.0  0.74689  0.56369  0.25734  1.0000
  H   H1275     1.0  0.79312  0.58492  0.32792  1.0000
  H   H1276     1.0  0.77708  0.56192  0.34394  1.0000
  H   H1277     1.0  0.74646  0.58278  0.37239  1.0000
  H   H1278     1.0  0.73595  0.60606  0.34350  1.0000
  H   H1279     1.0  0.75261  0.61923  0.28045  1.0000
  H   H1280     1.0  0.78054  0.61129  0.27854  1.0000
  H   H1281     1.0  0.74338  0.59809  0.21568  1.0000
  H   H1282     1.0  0.76943  0.58461  0.21408  1.0000
  H   H1283     1.0  0.71100  0.58054  0.31989  1.0000
  H   H1284     1.0  0.71861  0.59724  0.27338  1.0000
  H   H1285     1.0  0.77391  0.62394  0.35132  1.0000
  H   H1286     1.0  0.78100  0.60144  0.38772  1.0000
  H   H1287     1.0  0.77919  0.54875  0.26419  1.0000
  H   H1288     1.0  0.79663  0.57189  0.25194  1.0000
  H   H1289     1.0  0.80596  0.53542  0.31987  1.0000
  H   H1290     1.0  0.81793  0.53810  0.26572  1.0000
  H   H1291     1.0  0.82339  0.55845  0.30712  1.0000
  H   H1292     1.0  0.76178  0.63441  0.20363  1.0000
  H   H1293     1.0  0.78782  0.61984  0.19926  1.0000
  H   H1294     1.0  0.76657  0.61502  0.15985  1.0000
  H   H1295     1.0  0.68740  0.57294  0.25670  1.0000
  H   H1296     1.0  0.71080  0.56624  0.22256  1.0000
  H   H1297     1.0  0.70401  0.54904  0.26928  1.0000
  H   H1298     1.0  0.74987  0.61067  0.43682  1.0000
  H   H1299     1.0  0.84483  0.71623  0.16558  1.0000
  H   H1300     1.0  0.74192  0.63319  0.40078  1.0000
  H   H1301     1.0  0.74474  0.68487  0.99205  1.0000
  C   C738      1.0  0.65712  0.70416  0.54579  1.0000
  H   H1302     1.0  0.84969  0.67734  0.18495  1.0000
  H   H1303     1.0  0.84793  0.66968  0.12782  1.0000
  H   H1304     1.0  0.66736  0.59467  0.56463  1.0000
  Fe  Fe85      1.0  0.65698  0.65009  0.61245  1.0000
  S   S170      1.0  0.66908  0.62181  0.65413  1.0000
  H   H1305     1.0  0.84697  0.69906  0.06981  1.0000
  H   H1306     1.0  0.70577  0.60488  0.72315  1.0000
  C   C739      1.0  0.75473  0.72802  0.49089  1.0000
  C   C740      1.0  0.84262  0.68205  0.15254  1.0000
  H   H1307     1.0  0.76422  0.69918  0.93909  1.0000
  H   H1308     1.0  0.67151  0.70421  0.56784  1.0000
  C   C741      1.0  0.84127  0.71180  0.09367  1.0000
  C   C742      1.0  0.79104  0.70215  0.86631  1.0000
  H   H1309     1.0  0.76268  0.70428  0.43925  1.0000
  H   H1310     1.0  0.66354  0.56637  0.62154  1.0000
  H   H1311     1.0  0.68974  0.71153  0.80866  1.0000
  H   H1312     1.0  0.74589  0.72904  0.97298  1.0000
  H   H1313     1.0  0.78695  0.68723  0.84718  1.0000
  H   H1314     1.0  0.71127  0.49634  0.12338  1.0000
  H   H1315     1.0  0.71598  0.65647  0.99389  1.0000
  C   C743      1.0  0.67472  0.64767  0.44693  1.0000
  H   H1316     1.0  0.67876  0.57762  0.69444  1.0000
  H   H1317     1.0  0.72021  0.67878  0.92569  1.0000
  H   H1318     1.0  0.66924  0.50676  0.25307  1.0000
  H   H1319     1.0  0.67819  0.56468  0.74829  1.0000
  H   H1320     1.0  0.79972  0.69698  0.89684  1.0000
  C   C744      1.0  0.70669  0.70614  0.80021  1.0000
  H   H1321     1.0  0.70503  0.59090  0.77573  1.0000
  H   H1322     1.0  0.76773  0.63363  0.42927  1.0000
  H   H1323     1.0  0.88183  0.73198  0.09554  1.0000
  H   H1324     1.0  0.76197  0.59643  0.85752  1.0000
  H   H1325     1.0  0.67042  0.57661  0.47025  1.0000
  N   N41       1.0  0.74531  0.57904  0.72726  1.0000
  C   C745      1.0  0.75952  0.56017  0.71127  1.0000
  C   C746      1.0  0.74918  0.58252  0.77595  1.0000
  C   C747      1.0  0.72172  0.57228  0.72214  1.0000
  C   C748      1.0  0.74891  0.59991  0.70128  1.0000
  C   C749      1.0  0.77258  0.60430  0.68472  1.0000
  C   C750      1.0  0.75468  0.55211  0.66372  1.0000
  C   C751      1.0  0.77261  0.58858  0.79033  1.0000
  C   C752      1.0  0.77500  0.58677  0.84043  1.0000
  C   C753      1.0  0.77455  0.62739  0.66537  1.0000
  C   C754      1.0  0.77343  0.53793  0.64542  1.0000
  H   H1326     1.0  0.75775  0.54575  0.73371  1.0000
  H   H1327     1.0  0.77711  0.56426  0.71272  1.0000
  H   H1328     1.0  0.73879  0.59628  0.78862  1.0000
  H   H1329     1.0  0.71777  0.56988  0.68667  1.0000
  H   H1330     1.0  0.73851  0.60023  0.67118  1.0000
  H   H1331     1.0  0.74328  0.61433  0.72094  1.0000
  H   H1332     1.0  0.77724  0.59258  0.65822  1.0000
  H   H1333     1.0  0.78483  0.60254  0.71118  1.0000
  H   H1334     1.0  0.73972  0.54193  0.66380  1.0000
  H   H1335     1.0  0.75187  0.56606  0.64070  1.0000
  H   H1336     1.0  0.72808  0.73168  0.85897  1.0000
  H   H1337     1.0  0.78538  0.57779  0.77558  1.0000
  H   H1338     1.0  0.77584  0.60591  0.78122  1.0000
  H   H1339     1.0  0.77406  0.56937  0.85125  1.0000
  H   H1340     1.0  0.76400  0.62924  0.63582  1.0000
  H   H1341     1.0  0.76980  0.63998  0.69023  1.0000
  H   H1342     1.0  0.79176  0.63027  0.65512  1.0000
  H   H1343     1.0  0.78862  0.54766  0.64250  1.0000
  H   H1344     1.0  0.77650  0.52349  0.66712  1.0000
  H   H1345     1.0  0.76906  0.53197  0.61203  1.0000
  H   H1346     1.0  0.70970  0.68456  0.85584  1.0000
  H   H1347     1.0  0.80223  0.71236  0.84612  1.0000
  C   C755      1.0  0.70343  0.49574  0.05426  1.0000
  H   H1348     1.0  0.66025  0.71485  0.51674  1.0000
  H   H1349     1.0  0.85342  0.72364  0.98722  1.0000
  C   C756      1.0  0.72063  0.71726  0.87563  1.0000
  C   C757      1.0  0.70404  0.58868  0.73951  1.0000
  H   H1350     1.0  0.79110  0.59331  0.85058  1.0000
  C   C758      1.0  0.75501  0.70177  0.90798  1.0000
  H   H1351     1.0  0.82317  0.70988  0.09426  1.0000
  C   C759      1.0  0.77024  0.71530  0.87752  1.0000
  H   H1352     1.0  0.87552  0.71888  0.04571  1.0000
  H   H1353     1.0  0.81143  0.73795  0.13091  1.0000
  H   H1354     1.0  0.74421  0.56762  0.79480  1.0000
  H   H1355     1.0  0.73524  0.69239  0.83083  1.0000
  C   C760      1.0  0.76477  0.70623  0.47541  1.0000
  H   H1356     1.0  0.71897  0.55616  0.73866  1.0000
  C   C761      1.0  0.73552  0.73233  0.94374  1.0000
  C   C762      1.0  0.85046  0.70485  0.13930  1.0000
  H   H1357     1.0  0.67011  0.61594  0.41866  1.0000
  C   C763      1.0  0.71969  0.69485  0.94309  1.0000
  C   C764      1.0  0.71887  0.69846  0.84154  1.0000
  H   H1358     1.0  0.71341  0.58918  0.42860  1.0000
  C   C765      1.0  0.77241  0.72723  0.04533  1.0000
  H   H1359     1.0  0.69630  0.67679  0.01370  1.0000
  H   H1360     1.0  0.67800  0.65550  0.41446  1.0000
  H   H1361     1.0  0.70201  0.69951  0.94423  1.0000
  C   C766      1.0  0.68105  0.58031  0.73031  1.0000
  H   H1362     1.0  0.67336  0.53705  0.44963  1.0000
  H   H1363     1.0  0.83002  0.70865  0.00592  1.0000
  H   H1364     1.0  0.82447  0.68197  0.15537  1.0000
  H   H1365     1.0  0.68416  0.49376  0.18361  1.0000
  H   H1366     1.0  0.86863  0.70448  0.13856  1.0000
  C   C767      1.0  0.71392  0.67206  0.01250  1.0000
  H   H1367     1.0  0.67178  0.61169  0.50021  1.0000
  H   H1368     1.0  0.76225  0.71972  0.84592  1.0000
  N   N42       1.0  0.73269  0.71160  0.91755  1.0000
  H   H1369     1.0  0.68349  0.50367  0.11056  1.0000
  H   H1370     1.0  0.72542  0.70504  0.01209  1.0000
  H   H1371     1.0  0.78245  0.70530  0.48365  1.0000
  H   H1372     1.0  0.77525  0.73060  0.89423  1.0000
  H   H1373     1.0  0.75637  0.69247  0.49237  1.0000
  H   H1374     1.0  0.70352  0.72256  0.88340  1.0000
  H   H1375     1.0  0.70571  0.69234  0.77645  1.0000
  C   C768      1.0  0.66079  0.62729  0.44057  1.0000
  H   H1376     1.0  0.66600  0.65981  0.46826  1.0000
  Fe  Fe86      1.0  0.73841  0.50136  0.26817  1.0000
  H   H1377     1.0  0.71545  0.71983  0.78390  1.0000
  H   H1378     1.0  0.75881  0.73024  0.15396  1.0000
  H   H1379     1.0  0.66573  0.56776  0.54076  1.0000
  H   H1380     1.0  0.70798  0.51318  0.04933  1.0000
  H   H1381     1.0  0.75645  0.72842  0.52730  1.0000
  H   H1382     1.0  0.70085  0.73423  0.52492  1.0000
  C   C769      1.0  0.83611  0.72527  0.99800  1.0000
  H   H1383     1.0  0.68948  0.49203  0.03227  1.0000
  S   S171      1.0  0.97155  0.73786  0.02065  1.0000
  C   C770      1.0  0.76286  0.73566  0.12091  1.0000
  C   C771      1.0  0.66008  0.49122  0.25663  1.0000
  C   C772      1.0  0.71355  0.73273  0.63379  1.0000
  H   H1384     1.0  0.70281  0.73256  0.97601  1.0000
  C   C773      1.0  0.65625  0.58086  0.55788  1.0000
  C   C774      1.0  0.87158  0.73373  0.06543  1.0000
  C   C775      1.0  0.82296  0.73402  0.95884  1.0000
  N   N43       1.0  0.84759  0.73440  0.07770  1.0000
  H   H1385     1.0  0.80519  0.73400  0.96657  1.0000
  H   H1386     1.0  0.65932  0.54413  0.39905  1.0000
  C   C776      1.0  0.65703  0.53887  0.43390  1.0000
  H   H1387     1.0  0.90639  0.73729  0.00261  1.0000
  C   C777      1.0  0.65571  0.61614  0.48550  1.0000
  H   H1388     1.0  0.65488  0.68713  0.53396  1.0000
  H   H1389     1.0  0.65488  0.58318  0.42311  1.0000
  Fe  Fe87      1.0  0.96965  0.76522  0.07067  1.0000
  C   C778      1.0  0.71888  0.76247  0.99155  1.0000
  S   S172      1.0  0.94804  0.79574  0.06155  1.0000
  Fe  Fe88      1.0  0.70375  0.83942  0.47574  1.0000
  S   S173      1.0  0.71886  0.84625  0.54216  1.0000
  S   S174      1.0  0.72010  0.82569  0.41281  1.0000
  Fe  Fe89      1.0  0.69376  0.82314  0.57005  1.0000
  S   S175      1.0  0.70128  0.79814  0.62368  1.0000
  Fe  Fe90      1.0  0.69226  0.87207  0.55096  1.0000
  S   S176      1.0  0.69894  0.90744  0.57347  1.0000
  S   S177      1.0  0.68091  0.81419  0.50385  1.0000
  S   S178      1.0  0.67859  0.86658  0.48230  1.0000
  Fe  Fe91      1.0  0.82461  0.83030  0.13556  1.0000
  S   S179      1.0  0.81142  0.83240  0.06685  1.0000
  S   S180      1.0  0.85599  0.81208  0.15668  1.0000
  Fe  Fe92      1.0  0.78206  0.84971  0.17608  1.0000
  S   S181      1.0  0.76560  0.85280  0.10935  1.0000
  S   S182      1.0  0.76750  0.86402  0.24039  1.0000
  Fe  Fe93      1.0  0.78042  0.81928  0.09589  1.0000
  S   S183      1.0  0.76480  0.79333  0.05326  1.0000
  Fe  Fe94      1.0  0.79763  0.86594  0.08430  1.0000
  S   S184      1.0  0.80243  0.89271  0.03100  1.0000
  S   S185      1.0  0.79408  0.81513  0.16407  1.0000
  S   S186      1.0  0.81356  0.86489  0.15168  1.0000
  H   H1390     1.0  0.96049  0.82114  0.14815  1.0000
  H   H1391     1.0  0.68547  0.91343  0.41872  1.0000
  S   S187      1.0  0.74620  0.97480  0.95670  1.0000
  S   S188      1.0  0.66801  0.84926  0.58278  1.0000
  S   S189      1.0  0.72854  0.94662  0.76025  1.0000
  H   H1392     1.0  0.67149  0.86400  0.22677  1.0000
  C   C779      1.0  0.78629  0.91533  0.01095  1.0000
  C   C780      1.0  0.76537  0.92040  0.02740  1.0000
  C   C781      1.0  0.75335  0.93853  0.01031  1.0000
  C   C782      1.0  0.76189  0.95173  0.97619  1.0000
  C   C783      1.0  0.78282  0.94670  0.95985  1.0000
  C   C784      1.0  0.79487  0.92862  0.97701  1.0000
  H   H1393     1.0  0.75855  0.91050  0.05365  1.0000
  H   H1394     1.0  0.73732  0.94241  0.02376  1.0000
  H   H1395     1.0  0.78990  0.95699  0.93455  1.0000
  H   H1396     1.0  0.81110  0.92504  0.96424  1.0000
  C   C785      1.0  0.76761  0.76541  0.06821  1.0000
  C   C786      1.0  0.76333  0.75828  0.11127  1.0000
  C   C787      1.0  0.69229  0.86748  0.28546  1.0000
  H   H1397     1.0  0.75954  0.77017  0.13672  1.0000
  H   H1398     1.0  0.77538  0.75531  0.00200  1.0000
  C   C788      1.0  0.70622  0.91805  0.62632  1.0000
  C   C789      1.0  0.70758  0.94097  0.63205  1.0000
  C   C790      1.0  0.71366  0.95010  0.67300  1.0000
  C   C791      1.0  0.71880  0.93639  0.70877  1.0000
  C   C792      1.0  0.71725  0.91351  0.70312  1.0000
  C   C793      1.0  0.71102  0.90439  0.66233  1.0000
  H   H1399     1.0  0.70379  0.95174  0.60460  1.0000
  H   H1400     1.0  0.71447  0.96770  0.67674  1.0000
  H   H1401     1.0  0.72096  0.90269  0.73044  1.0000
  H   H1402     1.0  0.71001  0.88677  0.65866  1.0000
  C   C794      1.0  0.70354  0.76997  0.61087  1.0000
  H   H1403     1.0  0.71323  0.89384  0.34312  1.0000
  C   C795      1.0  0.68342  0.87657  0.36336  1.0000
  C   C796      1.0  0.69960  0.76226  0.56831  1.0000
  H   H1404     1.0  0.93611  0.78210  0.26759  1.0000
  H   H1405     1.0  0.69413  0.77351  0.54299  1.0000
  C   C797      1.0  0.73421  0.83649  0.36607  1.0000
  C   C798      1.0  0.73806  0.82278  0.32940  1.0000
  C   C799      1.0  0.74877  0.83066  0.29116  1.0000
  C   C800      1.0  0.75568  0.85245  0.28899  1.0000
  C   C801      1.0  0.75208  0.86604  0.32593  1.0000
  C   C802      1.0  0.74155  0.85810  0.36432  1.0000
  H   H1406     1.0  0.73256  0.80599  0.33032  1.0000
  H   H1407     1.0  0.75134  0.82001  0.26305  1.0000
  H   H1408     1.0  0.75739  0.88290  0.32470  1.0000
  H   H1409     1.0  0.73904  0.86877  0.39238  1.0000
  C   C803      1.0  0.92144  0.79891  0.08490  1.0000
  C   C804      1.0  0.91332  0.78400  0.11589  1.0000
  C   C805      1.0  0.89303  0.78806  0.13688  1.0000
  C   C806      1.0  0.88021  0.80663  0.12587  1.0000
  C   C807      1.0  0.88787  0.82107  0.09351  1.0000
  C   C808      1.0  0.90851  0.81735  0.07354  1.0000
  H   H1410     1.0  0.92285  0.76953  0.12416  1.0000
  H   H1411     1.0  0.88728  0.77681  0.16193  1.0000
  H   H1412     1.0  0.87825  0.83552  0.08500  1.0000
  H   H1413     1.0  0.91458  0.82896  0.04948  1.0000
  H   H1414     1.0  0.96916  0.78320  0.29498  1.0000
  H   H1415     1.0  0.77623  0.77094  0.53825  1.0000
  Fe  Fe95      1.0  0.73339  0.98011  0.79400  1.0000
  C   C809      1.0  0.94346  0.82597  0.23174  1.0000
  C   C810      1.0  0.93245  0.75436  0.22564  1.0000
  C   C811      1.0  0.73274  0.77198  0.46761  1.0000
  H   H1416     1.0  0.95791  0.80968  0.31138  1.0000
  H   H1417     1.0  0.79569  0.79877  0.35458  1.0000
  C   C812      1.0  0.92641  0.83188  0.19559  1.0000
  H   H1418     1.0  0.72641  0.78893  0.47358  1.0000
  H   H1419     1.0  0.65630  0.80694  0.66632  1.0000
  H   H1420     1.0  0.70544  0.75137  0.93045  1.0000
  H   H1421     1.0  0.80271  0.80942  0.40805  1.0000
  C   C813      1.0  0.90482  0.84028  0.21534  1.0000
  H   H1422     1.0  0.65724  0.77121  0.62881  1.0000
  H   H1423     1.0  0.94996  0.84179  0.24415  1.0000
  H   H1424     1.0  0.93455  0.81897  0.26030  1.0000
  H   H1425     1.0  0.77561  0.79929  0.59777  1.0000
  H   H1426     1.0  0.69687  0.76251  0.38068  1.0000
  H   H1427     1.0  0.69597  0.88486  0.27782  1.0000
  H   H1428     1.0  0.96871  0.77631  0.20875  1.0000
  H   H1429     1.0  0.73081  0.77418  0.97728  1.0000
  N   N44       1.0  0.96207  0.81111  0.21689  1.0000
  C   C814      1.0  0.70136  0.76512  0.41570  1.0000
  H   H1430     1.0  0.77682  0.95235  0.73654  1.0000
  H   H1431     1.0  0.93289  0.84496  0.17364  1.0000
  H   H1432     1.0  0.92291  0.81752  0.17480  1.0000
  C   C815      1.0  0.75754  0.79935  0.59395  1.0000
  H   H1433     1.0  0.66442  0.83303  0.30402  1.0000
  H   H1434     1.0  0.70046  0.85213  0.17525  1.0000
  C   C816      1.0  0.97249  0.80100  0.29779  1.0000
  C   C817      1.0  0.70117  0.90849  0.40267  1.0000
  H   H1435     1.0  0.79279  0.77023  0.41278  1.0000
  H   H1436     1.0  0.73328  0.79828  0.54326  1.0000
  H   H1437     1.0  0.76703  0.77597  0.38669  1.0000
  C   C818      1.0  0.65619  0.81082  0.37791  1.0000
  H   H1438     1.0  0.75084  0.81523  0.60637  1.0000
  H   H1439     1.0  0.89681  0.82713  0.23483  1.0000
  H   H1440     1.0  0.90755  0.85476  0.23666  1.0000
  H   H1441     1.0  0.89352  0.84523  0.18832  1.0000
  H   H1442     1.0  0.71287  0.76084  0.67696  1.0000
  H   H1443     1.0  0.75405  0.98054  0.70863  1.0000
  H   H1444     1.0  0.81093  0.76542  0.11010  1.0000
  C   C819      1.0  0.77220  0.74982  0.03536  1.0000
  H   H1445     1.0  0.66938  0.88021  0.38593  1.0000
  C   C820      1.0  0.75890  0.77377  0.52802  1.0000
  C   C821      1.0  0.70505  0.85961  0.20719  1.0000
  C   C822      1.0  0.68660  0.85657  0.24089  1.0000
  C   C823      1.0  0.84409  0.75151  0.11301  1.0000
  C   C824      1.0  0.67275  0.84135  0.33174  1.0000
  N   N45       1.0  0.74925  0.89003  0.88109  1.0000
  C   C825      1.0  0.72884  0.90372  0.87264  1.0000
  C   C826      1.0  0.75035  0.87067  0.84985  1.0000
  C   C827      1.0  0.74772  0.88122  0.92776  1.0000
  C   C828      1.0  0.76968  0.90350  0.87781  1.0000
  C   C829      1.0  0.77425  0.91460  0.83287  1.0000
  C   C830      1.0  0.72549  0.92437  0.90183  1.0000
  C   C831      1.0  0.76582  0.86443  0.94191  1.0000
  C   C832      1.0  0.74067  0.87403  0.80290  1.0000
  C   C833      1.0  0.74667  0.85490  0.77248  1.0000
  C   C834      1.0  0.79422  0.92937  0.83549  1.0000
  C   C835      1.0  0.70324  0.93521  0.89293  1.0000
  C   C836      1.0  0.76080  0.85482  0.98744  1.0000
  H   H1446     1.0  0.71412  0.89327  0.87643  1.0000
  H   H1447     1.0  0.72833  0.90996  0.83820  1.0000
  H   H1448     1.0  0.76760  0.86469  0.84626  1.0000
  H   H1449     1.0  0.74114  0.85654  0.86382  1.0000
  H   H1450     1.0  0.73153  0.87339  0.93319  1.0000
  H   H1451     1.0  0.74869  0.89473  0.95221  1.0000
  H   H1452     1.0  0.76943  0.91638  0.90355  1.0000
  H   H1453     1.0  0.78441  0.89323  0.88510  1.0000
  H   H1454     1.0  0.76018  0.92492  0.82203  1.0000
  H   H1455     1.0  0.77804  0.90196  0.80766  1.0000
  H   H1456     1.0  0.72591  0.92048  0.93750  1.0000
  H   H1457     1.0  0.73828  0.93663  0.89432  1.0000
  H   H1458     1.0  0.78193  0.87255  0.94417  1.0000
  H   H1459     1.0  0.76741  0.85050  0.91864  1.0000
  H   H1460     1.0  0.72250  0.87506  0.80492  1.0000
  H   H1461     1.0  0.74641  0.88926  0.78701  1.0000
  H   H1462     1.0  0.77721  0.95572  0.60056  1.0000
  H   H1463     1.0  0.73902  0.85760  0.73967  1.0000
  H   H1464     1.0  0.76470  0.85370  0.76784  1.0000
  H   H1465     1.0  0.80896  0.91974  0.84554  1.0000
  H   H1466     1.0  0.79739  0.93692  0.80276  1.0000
  H   H1467     1.0  0.79127  0.94273  0.85970  1.0000
  H   H1468     1.0  0.70139  0.95014  0.91366  1.0000
  H   H1469     1.0  0.70187  0.94007  0.85765  1.0000
  H   H1470     1.0  0.68434  0.83864  0.24484  1.0000
  H   H1471     1.0  0.74538  0.84539  0.98696  1.0000
  H   H1472     1.0  0.77432  0.84355  0.99764  1.0000
  H   H1473     1.0  0.75933  0.86812  0.01233  1.0000
  H   H1474     1.0  0.98579  0.79610  0.36345  1.0000
  H   H1475     1.0  0.91436  0.74641  0.05679  1.0000
  C   C837      1.0  0.95475  0.78819  0.20545  1.0000
  H   H1476     1.0  0.68910  0.83312  0.33482  1.0000
  H   H1477     1.0  0.81405  0.96202  0.64513  1.0000
  H   H1478     1.0  0.70826  0.87732  0.20155  1.0000
  H   H1479     1.0  0.74900  0.76174  0.54694  1.0000
  N   N46       1.0  0.67542  0.86555  0.32185  1.0000
  S   S190      1.0  0.71293  0.98840  0.85382  1.0000
  C   C838      1.0  0.76625  0.74783  0.46866  1.0000
  H   H1480     1.0  0.71019  0.89696  0.42479  1.0000
  H   H1481     1.0  0.73186  0.77920  0.39689  1.0000
  S   S191      1.0  0.76549  0.98330  0.82983  1.0000
  H   H1482     1.0  0.70354  0.77164  0.99958  1.0000
  C   C839      1.0  0.97215  0.82154  0.17633  1.0000
  H   H1483     1.0  0.78382  0.74717  0.47842  1.0000
  C   C840      1.0  0.77628  0.93333  0.67605  1.0000
  C   C841      1.0  0.77429  0.91196  0.70229  1.0000
  C   C842      1.0  0.76384  0.98274  0.67780  1.0000
  H   H1484     1.0  0.77648  0.81609  0.38378  1.0000
  C   C843      1.0  0.83353  0.74046  0.03874  1.0000
  H   H1485     1.0  0.69443  0.86517  0.38203  1.0000
  C   C844      1.0  0.81962  0.76198  0.17857  1.0000
  C   C845      1.0  0.93487  0.77909  0.23180  1.0000
  H   H1486     1.0  0.75053  0.78596  0.61436  1.0000
  H   H1487     1.0  0.72310  0.76156  0.49018  1.0000
  C   C846      1.0  0.80411  0.96617  0.56042  1.0000
  H   H1488     1.0  0.84832  0.76810  0.10034  1.0000
  H   H1489     1.0  0.68978  0.92386  0.90144  1.0000
  H   H1490     1.0  0.81961  0.96772  0.75636  1.0000
  C   C847      1.0  0.71001  0.75503  0.64383  1.0000
  H   H1491     1.0  0.80232  0.76415  0.18935  1.0000
  H   H1492     1.0  0.92899  0.75044  0.19070  1.0000
  H   H1493     1.0  0.95015  0.78722  0.17004  1.0000
  H   H1494     1.0  0.75880  0.81029  0.52677  1.0000
  H   H1495     1.0  0.75977  0.93781  0.66384  1.0000
  H   H1496     1.0  0.78722  0.92975  0.64755  1.0000
  H   H1497     1.0  0.76364  0.91450  0.73164  1.0000
  H   H1498     1.0  0.76678  0.89922  0.68130  1.0000
  H   H1499     1.0  0.79065  0.90595  0.71320  1.0000
  H   H1500     1.0  0.83169  0.97785  0.70579  1.0000
  C   C848      1.0  0.78808  0.97005  0.59858  1.0000
  C   C849      1.0  0.75136  0.79660  0.54550  1.0000
  C   C850      1.0  0.82028  0.75364  0.13113  1.0000
  H   H1501     1.0  0.91087  0.76598  0.01256  1.0000
  H   H1502     1.0  0.74057  0.83920  0.78631  1.0000
  H   H1503     1.0  0.70812  0.86022  0.29672  1.0000
  H   H1504     1.0  0.91854  0.74844  0.24596  1.0000
  H   H1505     1.0  0.82782  0.77801  0.18107  1.0000
  N   N47       1.0  0.75670  0.77027  0.47887  1.0000
  H   H1506     1.0  0.66526  0.90288  0.26902  1.0000
  C   C851      1.0  0.76948  0.78808  0.45548  1.0000
  H   H1507     1.0  0.69490  0.75134  0.43580  1.0000
  C   C852      1.0  0.72625  0.76624  0.41984  1.0000
  H   H1508     1.0  0.87852  0.76902  0.05905  1.0000
  C   C853      1.0  0.77935  0.78261  0.40942  1.0000
  C   C854      1.0  0.78914  0.80299  0.38780  1.0000
  H   H1509     1.0  0.76625  0.74459  0.43270  1.0000
  H   H1510     1.0  0.82780  0.75005  0.20107  1.0000
  H   H1511     1.0  0.83622  0.75781  0.02856  1.0000
  C   C855      1.0  0.80042  0.97430  0.64245  1.0000
  H   H1512     1.0  0.75917  0.80323  0.45181  1.0000
  H   H1513     1.0  0.78373  0.79309  0.47575  1.0000
  H   H1514     1.0  0.80278  0.94549  0.71280  1.0000
  H   H1515     1.0  0.71123  0.92337  0.39802  1.0000
  H   H1516     1.0  0.72035  0.85143  0.21879  1.0000
  H   H1517     1.0  0.81598  0.74008  0.04832  1.0000
  C   C856      1.0  0.78610  0.95167  0.70472  1.0000
  H   H1518     1.0  0.74467  0.74469  0.92414  1.0000
  C   C857      1.0  0.69701  0.89780  0.35798  1.0000
  N   N48       1.0  0.78696  0.97436  0.68450  1.0000
  H   H1519     1.0  0.68900  0.91014  0.33648  1.0000
  C   C858      1.0  0.88027  0.75383  0.03937  1.0000
  H   H1520     1.0  0.67217  0.80194  0.37671  1.0000
  H   H1521     1.0  0.79486  0.96376  0.52939  1.0000
  Fe  Fe96      1.0  0.65658  0.84151  0.51408  1.0000
  H   H1522     1.0  0.69360  0.78071  0.42710  1.0000
  H   H1523     1.0  0.81430  0.95123  0.56658  1.0000
  H   H1524     1.0  0.85572  0.74884  0.14072  1.0000
  H   H1525     1.0  0.73304  0.75015  0.40921  1.0000
  H   H1526     1.0  0.98616  0.82698  0.25731  1.0000
  H   H1527     1.0  0.91946  0.78712  0.22044  1.0000
  C   C859      1.0  0.65962  0.83554  0.37427  1.0000
  H   H1528     1.0  0.94756  0.74543  0.23611  1.0000
  H   H1529     1.0  0.75516  0.97289  0.65288  1.0000
  H   H1530     1.0  0.72560  0.75561  0.02277  1.0000
  S   S192      1.0  0.96643  0.74346  0.12980  1.0000
  H   H1531     1.0  0.97540  0.83924  0.18242  1.0000
  C   C860      1.0  0.97939  0.81027  0.25228  1.0000
  C   C861      1.0  0.90444  0.75062  0.02725  1.0000
  H   H1532     1.0  0.82803  0.75094  0.95014  1.0000
  H   H1533     1.0  0.87136  0.75638  0.00797  1.0000
  C   C862      1.0  0.71408  0.74400  0.95917  1.0000
  H   H1534     1.0  0.77767  0.98445  0.58968  1.0000
  H   H1535     1.0  0.66863  0.84055  0.40414  1.0000
  H   H1536     1.0  0.81492  0.98054  0.55601  1.0000
  C   C863      1.0  0.82076  0.98211  0.73392  1.0000
  C   C864      1.0  0.70340  0.74003  0.55815  1.0000
