data_image0
_chemical_formula_structural       HFeS2FeS2FeSFeHS3FeHSC2H7SHSHFeSFeSH2CH3CH2FeCHC3H4C6H4C6H4C6H4C6H4C6FeH12C4H6FeS2H2CH2CH5CH4C2SH2C2HCH2CH6C2H2SCH7NC4HC3HCH19CFeC3HCHCNH7NH5CH2CH4CFeC2H2CH6C2H4CNC4HCH2NH7CH6SH4CSHCH5NCH7FeC4H5C2HSC4H3C2HNCH2CHCHSC3H2FeH4CH3C2HCH3CH3C2H2C3HC3HCH4SHCH2CH2CHCHCH3CH2SH3SHC2H3CSHCHCSCHFe2SFeH2SHS3CFeSFeS2HSFeS3CSHFeHSHCH2S2CHC4H4C2HC4H3C6H4CH2SC2HCH2CH2C4H3C4HCH4C3HC2H5FeHCHCH6CH5CH2CSFeNC10H15CH4CH4CH2CNH6NC2HC3SHCH3CH9CHC2H4NH2CH3SCHC2H2C2HCH4CNFeHC2HCH2CH2CH5C2FeH2CH2CHCHSH3CSCHCSH5FeHC2HCH3NCH2CHS2CFeS2FeH2FeHFeS3C6H4CH4CFeH2C3NCH2C5HC2HFe2C2H2CH3NCHCHCH4CH2CSH11CH3CHC2SH2NCH3SH8CH4SCHCHC2H2C2HCH5CHC2H4CH5SHCH2CH2C2H10C4H3C2H2CH3SCSC2SHFeS2FeS2FeSFe2S3FeHSH2CH3C3SHSHFeSFeSCH2SH3CSFeHCH2NH3C7H5C5H3C7H4C6H4C7H3NHC2H2C4FeH5CH2C2H5CH12CH7C2H5CNC3HCH2NCH5C3H9S2CHCHC3HC3H2NH2C2HCHCH2CH5CHFeH2CHCNH2SHSHC2H3CH9CH3C2H6CNCFeC2HCH3CHCH6CNH3SC3H2C2H3CH4CH2SH5C2H3NH3CSHCNH3C3H5C5HSH6CHFeCH3CH7SH4CH2CH2CHC3H2CH8CHC2HCH4CHCH2SC2HCHCH2CHSCHCH2NH2C2HCHCFeHSC2HCSCH4SCSCH2CSCFeSFeS2FeHFeS3H3FeHSH3S3C4FeCH3C2H2SHCHCH2C6H4CHCHC4H2CH2C4H3C6H3C2HCHCHCHCH9CH2CHCH3FeH6FeH3CHNHCHSH2CH8CH2CH6CH3CHCFeH2CHFeCHCH7NHSH2CHCH2CH2C2H4CH2C5H14NC8HC3H5CSCH2SHSHCHSH2CHC2H6FeH4CH2SH3C3HCSHCH2S2HFeS3H2FeHFeS3C6H2SC2H4CH3C2H3CHC5HSFeC2HSH2C2H5CHCH3SHC2HSC2FeH2C2H4CH3CH5CH3CH3CHNH5FeC2H5CHC2HFeCH3C2SHCHCH2C2FeS2FeS2FeSFeHS3FeHSH2CSH4S2CSHFeSFeSCHCH5CHFeH4C2HSC6H5C5H4C6H4C6H6C5H7CHSCH2SHC2HC2H2C4HCHCH2CH2CHNH5C2HC3H4CH4SCFeH2CHC2H2SH9CH2NC6H2C4H4CH7CHCH3SH11CH4CH2CH15CH2CH2Fe2H4CNCH2CH3CH5C2HCH2C2H2NH2C2H2N2CHC2HS2CHCHSH3C2H4C2H3SFeCH2NHCH2CHCHCH3C4H7CNCH2CH5CH3CH3CH2C2HCHCH2SHCH6C3H3SHFeH5CFeC3HCHCH4CFeSC3HSCH6SFe2SFeS2FeSFeS3C3FeHSH3CS2CHC4H4C6H4C6H4C6H2CHC2H3SH2CHCH2C4H7CHCNC11H35C2HSH6NH2CSCHSHCHCH3FeCHC3H5CHNH3NH5SC2H2C3H2CHNH2CH2CH6CH3C2HCH7CH2CNHCHCSCH3C2H2CH3C2SC3H3C2H6NH3SH2CH6SC2HFeH2CH3C3H3CH3SH7CHC2H2CH2C2H3CHCH2CHCH4FeH2SH2S2CFeS2FeCSFeHFeS3C6H3FeC2H2C2HCHC2HSH2SC5HFeSC2H6C2H3CH4CHCHCH2CH3C2H12FeH3CNC11SH16CSC4HNH5C3SHCNCHCH2CHC2H2NH8CHCH3SH2FeS2FeS2FeSFeCS3FeHSH2C2H3FeS2HSCFeSFeSCHSH2CH3CFeHC2H4C7H4C6H4C6H4C6H4C6SNHCH3CH6FeH3SCH3CH7CH2CH2NH3NC6HC4H4C2HCH2CH5CH4CH5C2H2C2HCH4CNC12H23CH5CH3CH2CHCH4CHC3H11C3HNCH2C2H2CH4FeH2SHCHCH3CHC2HCH2CH6CHSH3SH4CHSNH2FeH9SHCSH3CH2CH8CH7CHCH5NCSH3SC3H2C2H5CH5FeH2CH4CHCHSCH3CH3SCH9CH3CH2CSHCHFeSCHCH2FeH6SHFeSFeS2HSFeS3HSHFeHSCHCS3CNSC3H4C2H3C3H2C6H5CHSH3C2HCHC5H2C6H3CH6SCHC3HSHC2H2C2HCHC2HCH4CHSCHCFeCHCH8C2H3C2HCHCH3CH2C2HCHNC2HCHCH12SH3CNC9H17C2HCH2CH2FeCHCHCH2CH5FeH2C3H4FeSH4CH3FeH2CH2NC2HC2H2CH3C2HCHC3HCH2CHFeHSH12CH2C2HCHS2CFeS2FeH3CFeHS2C6H2CHC3H2CH3C5H2CHC3H2SCHC3HCH2CFe3H4CH2SH8CH11C2HCSH7CH2C2H3CSH3FeHCNH9CH3CHC4HSH2C2H2CH3CHCH2C2HNH2C2HNCSH3C4HCH4CHC2
_chemical_formula_sum              "H2048 Fe128 S256 C1152 N64"
_cell_length_a       47.8756
_cell_length_b       46.8604
_cell_length_c       42.2684
_cell_angle_alpha    82.4153
_cell_angle_beta     88.0904
_cell_angle_gamma    124.595

_space_group_name_H-M_alt    "P 1"
_space_group_IT_number       1

loop_
  _space_group_symop_operation_xyz
  'x, y, z'

loop_
  _atom_site_type_symbol
  _atom_site_label
  _atom_site_symmetry_multiplicity
  _atom_site_fract_x
  _atom_site_fract_y
  _atom_site_fract_z
  _atom_site_occupancy
  H   H1        1.0  0.16176  0.13292  0.21980  1.0000
  Fe  Fe1       1.0  0.11031  0.23846  0.10477  1.0000
  S   S1        1.0  0.08928  0.19777  0.07256  1.0000
  S   S2        1.0  0.14291  0.29770  0.08584  1.0000
  Fe  Fe2       1.0  0.08182  0.18270  0.16286  1.0000
  S   S3        1.0  0.05748  0.13721  0.13634  1.0000
  S   S4        1.0  0.07886  0.17198  0.21583  1.0000
  Fe  Fe3       1.0  0.10790  0.17048  0.10419  1.0000
  S   S5        1.0  0.13459  0.14719  0.08354  1.0000
  Fe  Fe4       1.0  0.04045  0.16724  0.10769  1.0000
  H   H2        1.0  0.27892  0.24553  0.00054  1.0000
  S   S6        1.0  0.13300  0.21397  0.13300  1.0000
  S   S7        1.0  0.06052  0.20992  0.13743  1.0000
  S   S8        1.0  0.34328  0.15135  0.18396  1.0000
  Fe  Fe5       1.0  0.37216  0.23279  0.99940  1.0000
  H   H3        1.0  0.46745  0.40618  0.24245  1.0000
  S   S9        1.0  0.36828  0.24598  0.04869  1.0000
  C   C1        1.0  0.02903  0.23287  0.29713  1.0000
  C   C2        1.0  0.06648  0.03473  0.10691  1.0000
  H   H4        1.0  0.14904  0.28321  0.20207  1.0000
  H   H5        1.0  0.35727  0.05970  0.06427  1.0000
  H   H6        1.0  0.14192  0.99129  0.28698  1.0000
  H   H7        1.0  0.24488  0.01443  0.28494  1.0000
  H   H8        1.0  0.04243  0.23590  0.99929  1.0000
  H   H9        1.0  0.22706  0.16926  0.27887  1.0000
  H   H10       1.0  0.15623  0.10625  0.27740  1.0000
  S   S10       1.0  0.15337  0.40766  0.16853  1.0000
  H   H11       1.0  0.24537  0.45986  0.02798  1.0000
  S   S11       1.0  0.24941  0.03611  0.19504  1.0000
  H   H12       1.0  0.30127  0.03471  0.07914  1.0000
  Fe  Fe6       1.0  0.21113  0.03067  0.16129  1.0000
  S   S12       1.0  0.19250  0.06692  0.15958  1.0000
  Fe  Fe7       1.0  0.26619  0.01522  0.15882  1.0000
  S   S13       1.0  0.31827  0.02333  0.14811  1.0000
  H   H13       1.0  0.17323  0.05140  0.25863  1.0000
  H   H14       1.0  0.41932  0.09901  0.05036  1.0000
  C   C3        1.0  0.22860  0.12904  0.00977  1.0000
  H   H15       1.0  0.46236  0.01779  0.01931  1.0000
  H   H16       1.0  0.13499  0.18131  0.01733  1.0000
  H   H17       1.0  0.15900  0.18042  0.98417  1.0000
  C   C4        1.0  0.12246  0.12228  0.27500  1.0000
  H   H18       1.0  0.09884  0.33504  0.07180  1.0000
  H   H19       1.0  0.35491  0.33170  0.01570  1.0000
  Fe  Fe8       1.0  0.19626  0.46590  0.16735  1.0000
  C   C5        1.0  0.23696  0.21878  0.25583  1.0000
  H   H20       1.0  0.25099  0.05453  0.06095  1.0000
  C   C6        1.0  0.13599  0.99531  0.26238  1.0000
  C   C7        1.0  0.01713  0.03767  0.10804  1.0000
  C   C8        1.0  0.13499  0.28699  0.22061  1.0000
  H   H21       1.0  0.08014  0.16357  0.29773  1.0000
  H   H22       1.0  0.27792  0.09713  0.09941  1.0000
  H   H23       1.0  0.24237  0.44881  0.07090  1.0000
  H   H24       1.0  0.09666  0.27984  0.02097  1.0000
  C   C9        1.0  0.35101  0.17877  0.14684  1.0000
  C   C10       1.0  0.35983  0.21304  0.14490  1.0000
  C   C11       1.0  0.36523  0.23346  0.11464  1.0000
  C   C12       1.0  0.36215  0.21992  0.08616  1.0000
  C   C13       1.0  0.35309  0.18565  0.08820  1.0000
  C   C14       1.0  0.34758  0.16523  0.11836  1.0000
  H   H25       1.0  0.36242  0.22374  0.16664  1.0000
  H   H26       1.0  0.37202  0.25994  0.11328  1.0000
  H   H27       1.0  0.34983  0.17471  0.06656  1.0000
  H   H28       1.0  0.33993  0.13853  0.11972  1.0000
  C   C15       1.0  0.43219  0.11387  0.11159  1.0000
  C   C16       1.0  0.40701  0.12059  0.11219  1.0000
  C   C17       1.0  0.37231  0.09349  0.12384  1.0000
  C   C18       1.0  0.36209  0.05906  0.13488  1.0000
  C   C19       1.0  0.38735  0.05239  0.13477  1.0000
  C   C20       1.0  0.42214  0.07956  0.12343  1.0000
  H   H29       1.0  0.41446  0.14708  0.10403  1.0000
  H   H30       1.0  0.35339  0.09914  0.12413  1.0000
  H   H31       1.0  0.37999  0.02597  0.14328  1.0000
  H   H32       1.0  0.44100  0.07373  0.12308  1.0000
  C   C21       1.0  0.14902  0.12337  0.10514  1.0000
  C   C22       1.0  0.15195  0.12281  0.13793  1.0000
  C   C23       1.0  0.16433  0.10459  0.15404  1.0000
  C   C24       1.0  0.17436  0.08679  0.13780  1.0000
  C   C25       1.0  0.17070  0.08659  0.10505  1.0000
  C   C26       1.0  0.15823  0.10486  0.08887  1.0000
  H   H33       1.0  0.14481  0.13658  0.15091  1.0000
  H   H34       1.0  0.16576  0.10393  0.17943  1.0000
  H   H35       1.0  0.17806  0.07294  0.09208  1.0000
  H   H36       1.0  0.15604  0.10492  0.06349  1.0000
  C   C27       1.0  0.14634  0.32783  0.10980  1.0000
  C   C28       1.0  0.12188  0.31685  0.13621  1.0000
  C   C29       1.0  0.12433  0.34167  0.15369  1.0000
  C   C30       1.0  0.15170  0.37759  0.14563  1.0000
  C   C31       1.0  0.17633  0.38852  0.11945  1.0000
  C   C32       1.0  0.17344  0.36385  0.10140  1.0000
  H   H37       1.0  0.10075  0.28935  0.14283  1.0000
  H   H38       1.0  0.10497  0.33298  0.17372  1.0000
  H   H39       1.0  0.19733  0.41604  0.11306  1.0000
  H   H40       1.0  0.19239  0.37268  0.08094  1.0000
  C   C33       1.0  0.04778  0.06056  0.22251  1.0000
  C   C34       1.0  0.20400  0.24838  0.05471  1.0000
  C   C35       1.0  0.04264  0.10319  0.24380  1.0000
  C   C36       1.0  0.06990  0.13010  0.22128  1.0000
  C   C37       1.0  0.08663  0.12251  0.19969  1.0000
  C   C38       1.0  0.07564  0.08761  0.20036  1.0000
  Fe  Fe9       1.0  0.34632  0.16198  0.23536  1.0000
  H   H41       1.0  0.45932  0.21383  0.98917  1.0000
  H   H42       1.0  0.10774  0.14359  0.18220  1.0000
  H   H43       1.0  0.08891  0.08169  0.18424  1.0000
  H   H44       1.0  0.00301  0.29714  0.04124  1.0000
  H   H45       1.0  0.30211  0.10676  0.98365  1.0000
  H   H46       1.0  0.23979  0.21672  0.30744  1.0000
  H   H47       1.0  0.30642  0.23500  0.01595  1.0000
  H   H48       1.0  0.01941  0.08297  0.08228  1.0000
  H   H49       1.0  0.47471  0.41164  0.19928  1.0000
  H   H50       1.0  0.32115  0.00850  0.04253  1.0000
  H   H51       1.0  0.24260  0.44453  0.25395  1.0000
  H   H52       1.0  0.06500  0.21943  0.01651  1.0000
  C   C39       1.0  0.08315  0.06197  0.03405  1.0000
  C   C40       1.0  0.23751  0.18104  0.03175  1.0000
  C   C41       1.0  0.41415  0.18930  0.04201  1.0000
  C   C42       1.0  0.27128  0.10390  0.07598  1.0000
  H   H53       1.0  0.34488  0.05833  0.00449  1.0000
  H   H54       1.0  0.99809  0.07283  0.01238  1.0000
  H   H55       1.0  0.14379  0.03979  0.22917  1.0000
  H   H56       1.0  0.17485  0.17299  0.23167  1.0000
  H   H57       1.0  0.13229  0.30802  0.20965  1.0000
  H   H58       1.0  0.04259  0.28470  0.27260  1.0000
  Fe  Fe10      1.0  0.36005  0.13500  0.29994  1.0000
  S   S14       1.0  0.47511  0.14853  0.09377  1.0000
  S   S15       1.0  0.24030  0.48190  0.19592  1.0000
  H   H59       1.0  0.32388  0.08834  0.22399  1.0000
  H   H60       1.0  0.03118  0.26901  0.03056  1.0000
  C   C43       1.0  0.02017  0.25955  0.28659  1.0000
  H   H61       1.0  0.40097  0.07444  0.01868  1.0000
  H   H62       1.0  0.01001  0.29803  0.08246  1.0000
  C   C44       1.0  0.31562  0.00003  0.30318  1.0000
  H   H63       1.0  0.06367  0.33262  0.05531  1.0000
  H   H64       1.0  0.45640  0.05686  0.22776  1.0000
  H   H65       1.0  0.08339  0.03015  0.09328  1.0000
  H   H66       1.0  0.41649  0.02049  0.04286  1.0000
  H   H67       1.0  0.27179  0.18310  0.99437  1.0000
  C   C45       1.0  0.29402  0.99911  0.04715  1.0000
  H   H68       1.0  0.08829  0.32165  0.03359  1.0000
  H   H69       1.0  0.39747  0.16917  0.06354  1.0000
  H   H70       1.0  0.32748  0.45627  0.24179  1.0000
  H   H71       1.0  0.40197  0.17905  0.02048  1.0000
  C   C46       1.0  0.25517  0.16552  0.01717  1.0000
  C   C47       1.0  0.17715  0.15065  0.23673  1.0000
  S   S16       1.0  0.39373  0.17944  0.25850  1.0000
  H   H72       1.0  0.26257  0.19442  0.24873  1.0000
  H   H73       1.0  0.28969  0.13252  0.06655  1.0000
  C   C48       1.0  0.14640  0.19279  0.99171  1.0000
  C   C49       1.0  0.21386  0.13010  0.23540  1.0000
  H   H74       1.0  0.42165  0.46355  0.12341  1.0000
  C   C50       1.0  0.24862  0.13590  0.22597  1.0000
  H   H75       1.0  0.03135  0.16727  0.00722  1.0000
  H   H76       1.0  0.21055  0.12992  0.99453  1.0000
  C   C51       1.0  0.24497  0.10100  0.23101  1.0000
  H   H77       1.0  0.44362  0.04994  0.18803  1.0000
  H   H78       1.0  0.02325  0.23269  0.05828  1.0000
  H   H79       1.0  0.22249  0.16283  0.17997  1.0000
  H   H80       1.0  0.19498  0.11057  0.22153  1.0000
  H   H81       1.0  0.35621  0.10164  0.00213  1.0000
  H   H82       1.0  0.20554  0.11663  0.26102  1.0000
  C   C52       1.0  0.05213  0.00780  0.13913  1.0000
  C   C53       1.0  0.45829  0.33642  0.29090  1.0000
  H   H83       1.0  0.26783  0.15266  0.24107  1.0000
  H   H84       1.0  0.25886  0.14845  0.20036  1.0000
  S   S17       1.0  0.33635  0.19708  0.25697  1.0000
  C   C54       1.0  0.27161  0.08258  0.05176  1.0000
  H   H85       1.0  0.03177  0.05509  0.12554  1.0000
  H   H86       1.0  0.21211  0.38456  0.28719  1.0000
  H   H87       1.0  0.24347  0.21563  0.13336  1.0000
  H   H88       1.0  0.26960  0.10574  0.22212  1.0000
  H   H89       1.0  0.23817  0.08894  0.25698  1.0000
  H   H90       1.0  0.22510  0.08230  0.21737  1.0000
  H   H91       1.0  0.09371  0.19535  0.00680  1.0000
  N   N1        1.0  0.42931  0.12728  0.21022  1.0000
  C   C55       1.0  0.39276  0.11496  0.20750  1.0000
  C   C56       1.0  0.45203  0.15616  0.18167  1.0000
  C   C57       1.0  0.43092  0.09599  0.20990  1.0000
  C   C58       1.0  0.43884  0.14112  0.24118  1.0000
  H   H92       1.0  0.03551  0.01086  0.15513  1.0000
  C   C59       1.0  0.36412  0.08047  0.23054  1.0000
  C   C60       1.0  0.46537  0.10322  0.19675  1.0000
  C   C61       1.0  0.44649  0.18588  0.17383  1.0000
  H   H93       1.0  0.12266  0.14603  0.26742  1.0000
  C   C62       1.0  0.27508  0.20312  0.07477  1.0000
  H   H94       1.0  0.21688  0.22126  0.19749  1.0000
  H   H95       1.0  0.38718  0.11097  0.18250  1.0000
  H   H96       1.0  0.38900  0.13547  0.21201  1.0000
  H   H97       1.0  0.46012  0.20555  0.06270  1.0000
  H   H98       1.0  0.44791  0.14453  0.15985  1.0000
  H   H99       1.0  0.41255  0.07844  0.19431  1.0000
  H   H100      1.0  0.42270  0.07983  0.23458  1.0000
  H   H101      1.0  0.43882  0.16475  0.24034  1.0000
  H   H102      1.0  0.41928  0.12167  0.26167  1.0000
  H   H103      1.0  0.46652  0.23410  0.13956  1.0000
  H   H104      1.0  0.00249  0.28733  0.30766  1.0000
  H   H105      1.0  0.36622  0.05822  0.22975  1.0000
  H   H106      1.0  0.36494  0.08503  0.25553  1.0000
  H   H107      1.0  0.08465  0.47899  0.22679  1.0000
  H   H108      1.0  0.11936  0.11868  0.01833  1.0000
  H   H109      1.0  0.42049  0.17514  0.16706  1.0000
  H   H110      1.0  0.21386  0.10980  0.03245  1.0000
  H   H111      1.0  0.41566  0.12017  0.01371  1.0000
  H   H112      1.0  0.25967  0.03986  0.01045  1.0000
  C   C63       1.0  0.02040  0.99827  0.07601  1.0000
  Fe  Fe11      1.0  0.38170  0.21183  0.28311  1.0000
  C   C64       1.0  0.23144  0.39307  0.26620  1.0000
  C   C65       1.0  0.40389  0.06316  0.31020  1.0000
  C   C66       1.0  0.22918  0.18202  0.19636  1.0000
  H   H113      1.0  0.22784  0.16728  0.10947  1.0000
  C   C67       1.0  0.99990  0.05431  0.09129  1.0000
  H   H114      1.0  0.99052  0.35864  0.22866  1.0000
  C   C68       1.0  0.23813  0.22242  0.06212  1.0000
  N   N2        1.0  0.98895  0.24743  0.06839  1.0000
  H   H115      1.0  0.47216  0.12623  0.25875  1.0000
  H   H116      1.0  0.27139  0.16271  0.03343  1.0000
  H   H117      1.0  0.19148  0.18793  0.17439  1.0000
  H   H118      1.0  0.41604  0.21380  0.04367  1.0000
  H   H119      1.0  0.04208  0.06669  0.04442  1.0000
  H   H120      1.0  0.48358  0.38970  0.29976  1.0000
  H   H121      1.0  0.33645  0.99725  0.30911  1.0000
  N   N3        1.0  0.21393  0.16273  0.23071  1.0000
  H   H122      1.0  0.24151  0.25663  0.01838  1.0000
  H   H123      1.0  0.31732  0.09086  0.06936  1.0000
  H   H124      1.0  0.24525  0.09775  0.08034  1.0000
  H   H125      1.0  0.09553  0.29381  0.97935  1.0000
  H   H126      1.0  0.09608  0.03942  0.16410  1.0000
  C   C69       1.0  0.29098  0.02848  0.05583  1.0000
  H   H127      1.0  0.32161  0.27603  0.05633  1.0000
  H   H128      1.0  0.20254  0.21276  0.02683  1.0000
  C   C70       1.0  0.24151  0.23044  0.15056  1.0000
  H   H129      1.0  0.44695  0.06086  0.01503  1.0000
  H   H130      1.0  0.24167  0.11985  0.99660  1.0000
  H   H131      1.0  0.16615  0.22157  0.98931  1.0000
  H   H132      1.0  0.13009  0.03673  0.27079  1.0000
  C   C71       1.0  0.06597  0.23682  0.99546  1.0000
  Fe  Fe12      1.0  0.30523  0.15110  0.29855  1.0000
  C   C72       1.0  0.46822  0.03413  0.03823  1.0000
  C   C73       1.0  0.14624  0.03310  0.25468  1.0000
  H   H133      1.0  0.18360  0.22726  0.07399  1.0000
  H   H134      1.0  0.06785  0.03885  0.02212  1.0000
  C   C74       1.0  0.03089  0.06833  0.24364  1.0000
  H   H135      1.0  0.28844  0.03339  0.99117  1.0000
  H   H136      1.0  0.26314  0.01611  0.06143  1.0000
  H   H137      1.0  0.29549  0.28846  0.03852  1.0000
  H   H138      1.0  0.25233  0.23874  0.23372  1.0000
  H   H139      1.0  0.46250  0.15559  0.29958  1.0000
  H   H140      1.0  0.23122  0.24472  0.13896  1.0000
  C   C75       1.0  0.05960  0.06379  0.05868  1.0000
  C   C76       1.0  0.34391  0.07602  0.01896  1.0000
  H   H141      1.0  0.21790  0.38454  0.24483  1.0000
  H   H142      1.0  0.10622  0.10206  0.26043  1.0000
  H   H143      1.0  0.21444  0.15979  0.04865  1.0000
  H   H144      1.0  0.99902  0.24855  0.27158  1.0000
  C   C77       1.0  0.23153  0.99490  0.30678  1.0000
  N   N4        1.0  0.04339  0.22451  0.27038  1.0000
  C   C78       1.0  0.07845  0.25715  0.25650  1.0000
  C   C79       1.0  0.28735  0.05296  0.00238  1.0000
  C   C80       1.0  0.04495  0.19415  0.28412  1.0000
  C   C81       1.0  0.02100  0.21380  0.24381  1.0000
  H   H145      1.0  0.02111  0.44712  0.14249  1.0000
  C   C82       1.0  0.09991  0.25235  0.23231  1.0000
  H   H146      1.0  0.46348  0.01755  0.06183  1.0000
  H   H147      1.0  0.09648  0.22412  0.29969  1.0000
  N   N5        1.0  0.04028  0.03342  0.08686  1.0000
  H   H148      1.0  0.03274  0.45190  0.18253  1.0000
  H   H149      1.0  0.11379  0.46494  0.29170  1.0000
  H   H150      1.0  0.09404  0.26905  0.27604  1.0000
  H   H151      1.0  0.07627  0.27787  0.24340  1.0000
  H   H152      1.0  0.46034  0.46743  0.13030  1.0000
  H   H153      1.0  0.46883  0.20167  0.12346  1.0000
  H   H154      1.0  0.05096  0.18409  0.26459  1.0000
  C   C83       1.0  0.09674  0.27437  0.99625  1.0000
  H   H155      1.0  0.02184  0.23660  0.23081  1.0000
  H   H156      1.0  0.03106  0.20591  0.22521  1.0000
  H   H157      1.0  0.15240  0.99292  0.24538  1.0000
  H   H158      1.0  0.98948  0.21214  0.10702  1.0000
  H   H159      1.0  0.10456  0.23296  0.24360  1.0000
  H   H160      1.0  0.08684  0.24342  0.21083  1.0000
  S   S18       1.0  0.42779  0.26895  0.27971  1.0000
  H   H161      1.0  0.00584  0.01533  0.03180  1.0000
  H   H162      1.0  0.22254  0.27155  0.06543  1.0000
  H   H163      1.0  0.08426  0.09785  0.99464  1.0000
  H   H164      1.0  0.38408  0.47436  0.25730  1.0000
  C   C84       1.0  0.31084  0.27812  0.03402  1.0000
  S   S19       1.0  0.31264  0.11519  0.27535  1.0000
  H   H165      1.0  0.25768  0.19868  0.19423  1.0000
  C   C85       1.0  0.34092  0.30555  0.00825  1.0000
  H   H166      1.0  0.10266  0.06019  0.04553  1.0000
  H   H167      1.0  0.22733  0.18832  0.01134  1.0000
  H   H168      1.0  0.32653  0.06337  0.19685  1.0000
  H   H169      1.0  0.24471  0.38004  0.27100  1.0000
  H   H170      1.0  0.12122  0.27774  0.98984  1.0000
  N   N6        1.0  0.30740  0.06164  0.03067  1.0000
  C   C86       1.0  0.30710  0.08893  0.04582  1.0000
  H   H171      1.0  0.24883  0.13995  0.14439  1.0000
  H   H172      1.0  0.28732  0.16048  0.11722  1.0000
  H   H173      1.0  0.26486  0.09038  0.02894  1.0000
  H   H174      1.0  0.32501  0.11577  0.03110  1.0000
  H   H175      1.0  0.44588  0.17097  0.03987  1.0000
  H   H176      1.0  0.04491  0.28073  0.10023  1.0000
  H   H177      1.0  0.27995  0.18697  0.13872  1.0000
  Fe  Fe13      1.0  0.01944  0.00193  0.28056  1.0000
  C   C87       1.0  0.47171  0.21381  0.14508  1.0000
  C   C88       1.0  0.43841  0.46590  0.14198  1.0000
  C   C89       1.0  0.36764  0.08335  0.04538  1.0000
  C   C90       1.0  0.02394  0.25702  0.05667  1.0000
  H   H178      1.0  0.37101  0.10490  0.05682  1.0000
  H   H179      1.0  0.17236  0.14832  0.28908  1.0000
  H   H180      1.0  0.29605  0.20173  0.06508  1.0000
  H   H181      1.0  0.23982  0.14529  0.08677  1.0000
  H   H182      1.0  0.20040  0.45189  0.28200  1.0000
  C   C91       1.0  0.26768  0.16386  0.12646  1.0000
  C   C92       1.0  0.32871  0.06821  0.22190  1.0000
  H   H183      1.0  0.21109  0.21312  0.25868  1.0000
  S   S20       1.0  0.23022  0.01290  0.12375  1.0000
  C   C93       1.0  0.41790  0.43197  0.16720  1.0000
  C   C94       1.0  0.46310  0.06898  0.20181  1.0000
  C   C95       1.0  0.03671  0.16240  0.98351  1.0000
  C   C96       1.0  0.21767  0.20519  0.18104  1.0000
  H   H184      1.0  0.32605  0.02430  0.28516  1.0000
  H   H185      1.0  0.42649  0.03419  0.30793  1.0000
  H   H186      1.0  0.21624  0.19969  0.07930  1.0000
  C   C97       1.0  0.23553  0.18524  0.25422  1.0000
  C   C98       1.0  0.08117  0.01286  0.15754  1.0000
  H   H187      1.0  0.26745  0.25004  0.15647  1.0000
  N   N7        1.0  0.25982  0.21212  0.04788  1.0000
  C   C99       1.0  0.24987  0.16826  0.09888  1.0000
  H   H188      1.0  0.07000  0.27142  0.07837  1.0000
  H   H189      1.0  0.40973  0.40896  0.15552  1.0000
  C   C100      1.0  0.10245  0.09488  0.00771  1.0000
  H   H190      1.0  0.11113  0.11150  0.30066  1.0000
  C   C101      1.0  0.22205  0.23502  0.03784  1.0000
  H   H191      1.0  0.07531  0.08902  0.06769  1.0000
  S   S21       1.0  0.03663  0.01768  0.22773  1.0000
  C   C102      1.0  0.25455  0.23526  0.28440  1.0000
  C   C103      1.0  0.27567  0.44655  0.28927  1.0000
  C   C104      1.0  0.40301  0.09492  0.03103  1.0000
  H   H192      1.0  0.44694  0.05971  0.05806  1.0000
  H   H193      1.0  0.28772  0.22460  0.08905  1.0000
  Fe  Fe14      1.0  0.00796  0.48050  0.30017  1.0000
  H   H194      1.0  0.05374  0.13125  0.00706  1.0000
  H   H195      1.0  0.44965  0.19918  0.19459  1.0000
  H   H196      1.0  0.28093  0.24197  0.28253  1.0000
  H   H197      1.0  0.99670  0.38909  0.17704  1.0000
  C   C105      1.0  0.15859  0.13135  0.27131  1.0000
  H   H198      1.0  0.00879  0.04746  0.26024  1.0000
  H   H199      1.0  0.11862  0.09275  0.99006  1.0000
  H   H200      1.0  0.02972  0.10902  0.26049  1.0000
  C   C106      1.0  0.07729  0.31985  0.05788  1.0000
  C   C107      1.0  0.99204  0.28156  0.06620  1.0000
  H   H201      1.0  0.19192  0.25643  0.03710  1.0000
  C   C108      1.0  0.05382  0.28140  0.07545  1.0000
  H   H202      1.0  0.01939  0.17139  0.29627  1.0000
  H   H203      1.0  0.43380  0.43263  0.18604  1.0000
  H   H204      1.0  0.25303  0.24322  0.07669  1.0000
  C   C109      1.0  0.03464  0.12804  0.99101  1.0000
  H   H205      1.0  0.30859  0.04352  0.23841  1.0000
  H   H206      1.0  0.38867  0.05242  0.29114  1.0000
  H   H207      1.0  0.39469  0.42845  0.17874  1.0000
  C   C110      1.0  0.25720  0.43316  0.25955  1.0000
  C   C111      1.0  0.47304  0.22412  0.00998  1.0000
  H   H208      1.0  0.08355  0.06152  0.11297  1.0000
  H   H209      1.0  0.35918  0.29834  0.00527  1.0000
  C   C112      1.0  0.28867  0.24188  0.02318  1.0000
  C   C113      1.0  0.24749  0.46974  0.05090  1.0000
  C   C114      1.0  0.10061  0.20278  0.98027  1.0000
  H   H210      1.0  0.28162  0.98971  0.02551  1.0000
  C   C115      1.0  0.44320  0.04456  0.03855  1.0000
  C   C116      1.0  0.44952  0.19642  0.04031  1.0000
  C   C117      1.0  0.48571  0.42391  0.22047  1.0000
  H   H211      1.0  0.27526  0.44058  0.23795  1.0000
  C   C118      1.0  0.47366  0.15070  0.25091  1.0000
  H   H212      1.0  0.15030  0.29561  0.24090  1.0000
  H   H213      1.0  0.28385  0.42941  0.29871  1.0000
  H   H214      1.0  0.99667  0.01178  0.12309  1.0000
  H   H215      1.0  0.47139  0.11375  0.17050  1.0000
  S   S22       1.0  0.00849  0.48178  0.24707  1.0000
  H   H216      1.0  0.47691  0.34382  0.27061  1.0000
  C   C119      1.0  0.43056  0.30082  0.30052  1.0000
  H   H217      1.0  0.99986  0.45719  0.17036  1.0000
  H   H218      1.0  0.98944  0.24666  0.11967  1.0000
  C   C120      1.0  0.20738  0.46293  0.30370  1.0000
  H   H219      1.0  0.25494  0.44011  0.30790  1.0000
  H   H220      1.0  0.99002  0.40918  0.22972  1.0000
  C   C121      1.0  0.99457  0.99286  0.05219  1.0000
  H   H221      1.0  0.34088  0.47177  0.29539  1.0000
  C   C122      1.0  0.01104  0.44213  0.16816  1.0000
  H   H222      1.0  0.22788  0.47508  0.05454  1.0000
  C   C123      1.0  0.46212  0.36248  0.30735  1.0000
  H   H223      1.0  0.25614  0.25980  0.28474  1.0000
  H   H224      1.0  0.99477  0.10279  0.03238  1.0000
  H   H225      1.0  0.03834  0.99316  0.06513  1.0000
  C   C124      1.0  0.99943  0.09750  0.00861  1.0000
  H   H226      1.0  0.47949  0.16872  0.18385  1.0000
  H   H227      1.0  0.09865  0.00971  0.14291  1.0000
  S   S23       1.0  0.98804  0.13927  0.08953  1.0000
  H   H228      1.0  0.99414  0.30488  0.23977  1.0000
  H   H229      1.0  0.07034  0.99300  0.18016  1.0000
  H   H230      1.0  0.33191  0.30784  0.98479  1.0000
  S   S24       1.0  0.34681  0.17992  0.98509  1.0000
  H   H231      1.0  0.47409  0.24834  0.01094  1.0000
  C   C125      1.0  0.48322  0.17070  0.27894  1.0000
  C   C126      1.0  0.07001  0.20124  0.30925  1.0000
  H   H232      1.0  0.29827  0.98412  0.23903  1.0000
  H   H233      1.0  0.98760  0.04209  0.07064  1.0000
  H   H234      1.0  0.01979  0.18787  0.55069  1.0000
  C   C127      1.0  0.98954  0.46501  0.54159  1.0000
  S   S25       1.0  0.09554  0.01372  0.36343  1.0000
  H   H235      1.0  0.14357  0.18811  0.64184  1.0000
  C   C128      1.0  0.40668  0.29150  0.32686  1.0000
  H   H236      1.0  0.02035  0.11653  0.45550  1.0000
  C   C129      1.0  0.41975  0.45356  0.48716  1.0000
  S   S26       1.0  0.44338  0.38468  0.35656  1.0000
  C   C130      1.0  0.21004  0.45531  0.36164  1.0000
  H   H237      1.0  0.28777  0.06811  0.59080  1.0000
  Fe  Fe15      1.0  0.04663  0.00291  0.34405  1.0000
  Fe  Fe16      1.0  0.19807  0.46429  0.50776  1.0000
  S   S27       1.0  0.46364  0.47529  0.31268  1.0000
  Fe  Fe17      1.0  0.48536  0.01608  0.34571  1.0000
  H   H238      1.0  0.44572  0.02091  0.48748  1.0000
  H   H239      1.0  0.13356  0.09003  0.35437  1.0000
  S   S28       1.0  0.04491  0.04324  0.31151  1.0000
  H   H240      1.0  0.41991  0.43252  0.37321  1.0000
  S   S29       1.0  0.02565  0.45381  0.33296  1.0000
  S   S30       1.0  0.46861  0.08605  0.52567  1.0000
  S   S31       1.0  0.35049  0.16849  0.32641  1.0000
  C   C131      1.0  0.12100  0.26648  0.63722  1.0000
  Fe  Fe18      1.0  0.03575  0.09625  0.61210  1.0000
  S   S32       1.0  0.01248  0.04539  0.59360  1.0000
  Fe  Fe19      1.0  0.06702  0.14148  0.54530  1.0000
  S   S33       1.0  0.04650  0.09388  0.52189  1.0000
  S   S34       1.0  0.09076  0.19492  0.51237  1.0000
  H   H241      1.0  0.38374  0.99865  0.39327  1.0000
  S   S35       1.0  0.20047  0.01862  0.53274  1.0000
  Fe  Fe20      1.0  0.06332  0.07287  0.56223  1.0000
  S   S36       1.0  0.07712  0.03539  0.54992  1.0000
  S   S37       1.0  0.01615  0.11739  0.57463  1.0000
  S   S38       1.0  0.08798  0.12285  0.58358  1.0000
  C   C132      1.0  0.44296  0.02783  0.46215  1.0000
  S   S39       1.0  0.25696  0.00230  0.48425  1.0000
  H   H242      1.0  0.12565  0.06938  0.45999  1.0000
  Fe  Fe21      1.0  0.20493  0.40180  0.51397  1.0000
  H   H243      1.0  0.01717  0.21760  0.57164  1.0000
  S   S40       1.0  0.18966  0.34968  0.54462  1.0000
  H   H244      1.0  0.25249  0.09535  0.52032  1.0000
  C   C133      1.0  0.03468  0.21133  0.56232  1.0000
  H   H245      1.0  0.30296  0.40239  0.54446  1.0000
  H   H246      1.0  0.28733  0.44700  0.34952  1.0000
  S   S41       1.0  0.17002  0.41268  0.48952  1.0000
  S   S42       1.0  0.24616  0.42812  0.47143  1.0000
  C   C134      1.0  0.35134  0.00243  0.53429  1.0000
  H   H247      1.0  0.41519  0.46390  0.50758  1.0000
  C   C135      1.0  0.40680  0.02220  0.55277  1.0000
  C   C136      1.0  0.42332  0.05371  0.53036  1.0000
  C   C137      1.0  0.40350  0.05940  0.51003  1.0000
  C   C138      1.0  0.36775  0.03408  0.51212  1.0000
  H   H248      1.0  0.06016  0.24875  0.60876  1.0000
  H   H249      1.0  0.42156  0.01723  0.56845  1.0000
  H   H250      1.0  0.41593  0.08356  0.49248  1.0000
  H   H251      1.0  0.35295  0.03897  0.49647  1.0000
  C   C139      1.0  0.11222  0.03202  0.54439  1.0000
  C   C140      1.0  0.00873  0.26828  0.31579  1.0000
  H   H252      1.0  0.20603  0.11663  0.45075  1.0000
  C   C141      1.0  0.16595  0.02309  0.53637  1.0000
  C   C142      1.0  0.17171  0.05319  0.54671  1.0000
  C   C143      1.0  0.14513  0.05776  0.55054  1.0000
  C   C144      1.0  0.99871  0.00687  0.45581  1.0000
  H   H253      1.0  0.38404  0.04333  0.40331  1.0000
  H   H254      1.0  0.01053  0.02136  0.43075  1.0000
  H   H255      1.0  0.14994  0.08090  0.55875  1.0000
  C   C145      1.0  0.11892  0.23783  0.52140  1.0000
  C   C146      1.0  0.13920  0.24411  0.54622  1.0000
  C   C147      1.0  0.16123  0.27860  0.55254  1.0000
  C   C148      1.0  0.16311  0.30718  0.53429  1.0000
  C   C149      1.0  0.14323  0.30098  0.50912  1.0000
  C   C150      1.0  0.12142  0.26654  0.50265  1.0000
  H   H256      1.0  0.13839  0.22248  0.56007  1.0000
  H   H257      1.0  0.17720  0.28328  0.57145  1.0000
  H   H258      1.0  0.14454  0.32270  0.49475  1.0000
  H   H259      1.0  0.10615  0.26205  0.48314  1.0000
  C   C151      1.0  0.43853  0.35308  0.33401  1.0000
  H   H260      1.0  0.19684  0.07304  0.55212  1.0000
  H   H261      1.0  0.09435  0.46148  0.36838  1.0000
  S   S43       1.0  0.46812  0.04949  0.36180  1.0000
  C   C152      1.0  0.12094  0.29993  0.63097  1.0000
  C   C153      1.0  0.41084  0.31750  0.34366  1.0000
  H   H262      1.0  0.20653  0.16707  0.42253  1.0000
  C   C154      1.0  0.20156  0.44132  0.33322  1.0000
  H   H263      1.0  0.06976  0.42735  0.41947  1.0000
  H   H264      1.0  0.39252  0.30997  0.36427  1.0000
  C   C155      1.0  0.44445  0.06540  0.34518  1.0000
  H   H265      1.0  0.34853  0.47181  0.46470  1.0000
  H   H266      1.0  0.25697  0.13104  0.46947  1.0000
  C   C156      1.0  0.40118  0.08649  0.32577  1.0000
  C   C157      1.0  0.42146  0.10029  0.35022  1.0000
  C   C158      1.0  0.44295  0.08995  0.35971  1.0000
  C   C159      1.0  0.30420  0.99422  0.62003  1.0000
  H   H267      1.0  0.14672  0.45609  0.32941  1.0000
  H   H268      1.0  0.41929  0.11764  0.36299  1.0000
  H   H269      1.0  0.21477  0.06234  0.32033  1.0000
  C   C160      1.0  0.13845  0.04868  0.34612  1.0000
  C   C161      1.0  0.15090  0.08384  0.34627  1.0000
  C   C162      1.0  0.18606  0.11097  0.33747  1.0000
  C   C163      1.0  0.20948  0.10378  0.32759  1.0000
  H   H270      1.0  0.05922  0.44918  0.46362  1.0000
  C   C164      1.0  0.16197  0.04126  0.33693  1.0000
  H   H271      1.0  0.04174  0.46574  0.50773  1.0000
  H   H272      1.0  0.19525  0.13782  0.33874  1.0000
  H   H273      1.0  0.35375  0.98578  0.36563  1.0000
  H   H274      1.0  0.98947  0.13379  0.42263  1.0000
  C   C165      1.0  0.27416  0.10613  0.50112  1.0000
  C   C166      1.0  0.35974  0.41798  0.47881  1.0000
  C   C167      1.0  0.40473  0.43713  0.43461  1.0000
  H   H275      1.0  0.14159  0.27137  0.61940  1.0000
  C   C168      1.0  0.38260  0.42981  0.40680  1.0000
  C   C169      1.0  0.39209  0.41479  0.38193  1.0000
  H   H276      1.0  0.35758  0.39276  0.48311  1.0000
  H   H277      1.0  0.34012  0.41320  0.46293  1.0000
  H   H278      1.0  0.27323  0.03957  0.54470  1.0000
  H   H279      1.0  0.40437  0.41331  0.44301  1.0000
  H   H280      1.0  0.36524  0.47186  0.57310  1.0000
  Fe  Fe22      1.0  0.21275  0.44177  0.44774  1.0000
  H   H281      1.0  0.35492  0.41047  0.41530  1.0000
  C   C170      1.0  0.45850  0.47923  0.47428  1.0000
  H   H282      1.0  0.31685  0.05756  0.60083  1.0000
  C   C171      1.0  0.10655  0.00204  0.53378  1.0000
  H   H283      1.0  0.38553  0.38837  0.39255  1.0000
  H   H284      1.0  0.29522  0.01951  0.55447  1.0000
  H   H285      1.0  0.46643  0.46638  0.45958  1.0000
  H   H286      1.0  0.35979  0.41513  0.53105  1.0000
  H   H287      1.0  0.06857  0.01796  0.48733  1.0000
  H   H288      1.0  0.03042  0.98590  0.42428  1.0000
  C   C172      1.0  0.00841  0.47736  0.48419  1.0000
  H   H289      1.0  0.00032  0.47119  0.60489  1.0000
  H   H290      1.0  0.33297  0.47960  0.34463  1.0000
  H   H291      1.0  0.35241  0.06992  0.39293  1.0000
  H   H292      1.0  0.11472  0.21346  0.61402  1.0000
  H   H293      1.0  0.41498  0.42791  0.49808  1.0000
  C   C173      1.0  0.15570  0.33276  0.63479  1.0000
  H   H294      1.0  0.12817  0.09742  0.42466  1.0000
  H   H295      1.0  0.47410  0.08379  0.45927  1.0000
  C   C174      1.0  0.30971  0.39914  0.52042  1.0000
  S   S44       1.0  0.23013  0.45116  0.53569  1.0000
  Fe  Fe23      1.0  0.99689  0.06860  0.55402  1.0000
  N   N8        1.0  0.22682  0.07894  0.42493  1.0000
  C   C175      1.0  0.23435  0.11407  0.41003  1.0000
  C   C176      1.0  0.24690  0.07071  0.40433  1.0000
  C   C177      1.0  0.18923  0.05113  0.42422  1.0000
  C   C178      1.0  0.23426  0.07768  0.45937  1.0000
  C   C179      1.0  0.21038  0.12297  0.42404  1.0000
  C   C180      1.0  0.17691  0.01226  0.43422  1.0000
  C   C181      1.0  0.28635  0.09665  0.40021  1.0000
  C   C182      1.0  0.30294  0.08739  0.37589  1.0000
  C   C183      1.0  0.22495  0.16189  0.41331  1.0000
  C   C184      1.0  0.39890  0.48224  0.45236  1.0000
  H   H296      1.0  0.23236  0.11506  0.38400  1.0000
  H   H297      1.0  0.26116  0.13613  0.41101  1.0000
  H   H298      1.0  0.24150  0.04470  0.41454  1.0000
  H   H299      1.0  0.23864  0.06854  0.37984  1.0000
  H   H300      1.0  0.18229  0.05396  0.39965  1.0000
  H   H301      1.0  0.17314  0.05471  0.44056  1.0000
  H   H302      1.0  0.28763  0.12634  0.45053  1.0000
  H   H303      1.0  0.18519  0.10738  0.41508  1.0000
  H   H304      1.0  0.18655  0.00443  0.41526  1.0000
  H   H305      1.0  0.29519  0.12421  0.39141  1.0000
  H   H306      1.0  0.29590  0.09472  0.42338  1.0000
  H   H307      1.0  0.33120  0.10614  0.37350  1.0000
  H   H308      1.0  0.29629  0.06055  0.38402  1.0000
  H   H309      1.0  0.29453  0.08880  0.35191  1.0000
  H   H310      1.0  0.22937  0.16893  0.38658  1.0000
  C   C185      1.0  0.29170  0.04682  0.59183  1.0000
  H   H311      1.0  0.45745  0.10006  0.37940  1.0000
  H   H312      1.0  0.43132  0.45816  0.42298  1.0000
  H   H313      1.0  0.36713  0.02980  0.44505  1.0000
  H   H314      1.0  0.04756  0.24393  0.31481  1.0000
  C   C186      1.0  0.13591  0.47012  0.33664  1.0000
  H   H315      1.0  0.04518  0.14549  0.32958  1.0000
  H   H316      1.0  0.22723  0.02477  0.59823  1.0000
  H   H317      1.0  0.06171  0.20642  0.33133  1.0000
  H   H318      1.0  0.32231  0.01107  0.59775  1.0000
  C   C187      1.0  0.37114  0.99674  0.55457  1.0000
  H   H319      1.0  0.28122  0.08727  0.50134  1.0000
  H   H320      1.0  0.26770  0.02815  0.33683  1.0000
  C   C188      1.0  0.05073  0.20350  0.58973  1.0000
  N   N9        1.0  0.26346  0.01405  0.61456  1.0000
  H   H321      1.0  0.37899  0.08726  0.42414  1.0000
  H   H322      1.0  0.38731  0.45484  0.39426  1.0000
  H   H323      1.0  0.02935  0.28033  0.33134  1.0000
  H   H324      1.0  0.43976  0.00778  0.44833  1.0000
  H   H325      1.0  0.00425  0.42758  0.49772  1.0000
  H   H326      1.0  0.47347  0.46556  0.51897  1.0000
  N   N10       1.0  0.10387  0.42319  0.38905  1.0000
  C   C189      1.0  0.10650  0.39564  0.37727  1.0000
  C   C190      1.0  0.10236  0.44511  0.36046  1.0000
  H   H327      1.0  0.32871  0.07221  0.51136  1.0000
  C   C191      1.0  0.07212  0.40659  0.41275  1.0000
  C   C192      1.0  0.03781  0.38006  0.40070  1.0000
  C   C193      1.0  0.10251  0.36670  0.40369  1.0000
  S   S45       1.0  0.00301  0.48132  0.38958  1.0000
  H   H328      1.0  0.00174  0.47731  0.45941  1.0000
  C   C194      1.0  0.10730  0.34156  0.38870  1.0000
  H   H329      1.0  0.24950  0.17882  0.42293  1.0000
  H   H330      1.0  0.13185  0.40837  0.36276  1.0000
  H   H331      1.0  0.08747  0.38227  0.36048  1.0000
  C   C195      1.0  0.24436  0.00263  0.33632  1.0000
  H   H332      1.0  0.13533  0.42935  0.42691  1.0000
  H   H333      1.0  0.15851  0.45609  0.38935  1.0000
  H   H334      1.0  0.18588  0.00847  0.45721  1.0000
  H   H335      1.0  0.33336  0.05516  0.43471  1.0000
  H   H336      1.0  0.06567  0.06242  0.42819  1.0000
  H   H337      1.0  0.06630  0.19540  0.57939  1.0000
  H   H338      1.0  0.03341  0.39363  0.38005  1.0000
  H   H339      1.0  0.12190  0.37831  0.42040  1.0000
  H   H340      1.0  0.07677  0.35072  0.41802  1.0000
  C   C196      1.0  0.29502  0.04269  0.55634  1.0000
  H   H341      1.0  0.15312  0.01413  0.33799  1.0000
  C   C197      1.0  0.32923  0.99959  0.41276  1.0000
  C   C198      1.0  0.02413  0.45612  0.48916  1.0000
  H   H342      1.0  0.10429  0.32113  0.40804  1.0000
  H   H343      1.0  0.08798  0.32829  0.37220  1.0000
  H   H344      1.0  0.13344  0.35619  0.37521  1.0000
  H   H345      1.0  0.05198  0.04323  0.48783  1.0000
  N   N11       1.0  0.39531  0.44800  0.46291  1.0000
  H   H346      1.0  0.00526  0.38452  0.43406  1.0000
  H   H347      1.0  0.11593  0.30484  0.60608  1.0000
  C   C199      1.0  0.32799  0.07515  0.53697  1.0000
  H   H348      1.0  0.29922  0.37092  0.52131  1.0000
  H   H349      1.0  0.15540  0.35642  0.62920  1.0000
  H   H350      1.0  0.32925  0.09939  0.53814  1.0000
  S   S46       1.0  0.20003  0.42655  0.39841  1.0000
  C   C200      1.0  0.30776  0.47562  0.34659  1.0000
  H   H351      1.0  0.23887  0.05701  0.46601  1.0000
  C   C201      1.0  0.34861  0.42235  0.51163  1.0000
  C   C202      1.0  0.07710  0.05023  0.44145  1.0000
  H   H352      1.0  0.37787  0.41208  0.36102  1.0000
  H   H353      1.0  0.08220  0.42767  0.34617  1.0000
  C   C203      1.0  0.36646  0.47944  0.44281  1.0000
  C   C204      1.0  0.22968  0.00239  0.60301  1.0000
  H   H354      1.0  0.35068  0.07789  0.54628  1.0000
  C   C205      1.0  0.05411  0.02613  0.47353  1.0000
  H   H355      1.0  0.03750  0.35817  0.39302  1.0000
  H   H356      1.0  0.35239  0.45963  0.42733  1.0000
  H   H357      1.0  0.21147  0.06922  0.47628  1.0000
  H   H358      1.0  0.08112  0.03547  0.42561  1.0000
  C   C206      1.0  0.00761  0.36385  0.42713  1.0000
  N   N12       1.0  0.08756  0.23172  0.63568  1.0000
  Fe  Fe24      1.0  0.26895  0.47809  0.49137  1.0000
  H   H359      1.0  0.29640  0.13132  0.50630  1.0000
  C   C207      1.0  0.07401  0.23652  0.60503  1.0000
  C   C208      1.0  0.13475  0.44550  0.40555  1.0000
  H   H360      1.0  0.17630  0.33662  0.61784  1.0000
  C   C209      1.0  0.42544  0.05279  0.31966  1.0000
  H   H361      1.0  0.00348  0.09005  0.42457  1.0000
  H   H362      1.0  0.07407  0.39346  0.43569  1.0000
  C   C210      1.0  0.36129  0.03387  0.42044  1.0000
  H   H363      1.0  0.05486  0.23381  0.54375  1.0000
  H   H364      1.0  0.01084  0.01469  0.52934  1.0000
  C   C211      1.0  0.26439  0.11262  0.46828  1.0000
  H   H365      1.0  0.99562  0.44533  0.54661  1.0000
  H   H366      1.0  0.19013  0.41357  0.33409  1.0000
  H   H367      1.0  0.11008  0.09633  0.46332  1.0000
  H   H368      1.0  0.29760  0.40700  0.50263  1.0000
  H   H369      1.0  0.30500  0.00294  0.32527  1.0000
  C   C212      1.0  0.13781  0.47670  0.41782  1.0000
  C   C213      1.0  0.09524  0.20463  0.63501  1.0000
  Fe  Fe25      1.0  0.99116  0.01845  0.33531  1.0000
  H   H370      1.0  0.02983  0.18073  0.60730  1.0000
  H   H371      1.0  0.47004  0.06974  0.42156  1.0000
  C   C214      1.0  0.35605  0.06328  0.41794  1.0000
  H   H372      1.0  0.07256  0.17903  0.63111  1.0000
  H   H373      1.0  0.09564  0.25532  0.58552  1.0000
  C   C215      1.0  0.11241  0.08016  0.44785  1.0000
  H   H374      1.0  0.12776  0.99057  0.41614  1.0000
  C   C216      1.0  0.19714  0.06863  0.32716  1.0000
  H   H375      1.0  0.41967  0.02761  0.46230  1.0000
  S   S47       1.0  0.24703  0.98750  0.40065  1.0000
  H   H376      1.0  0.35795  0.45001  0.51108  1.0000
  H   H377      1.0  0.38533  0.26421  0.33459  1.0000
  H   H378      1.0  0.01076  0.35005  0.44867  1.0000
  C   C217      1.0  0.13321  0.99764  0.52965  1.0000
  S   S48       1.0  0.25384  0.13983  0.31851  1.0000
  C   C218      1.0  0.26786  0.98447  0.61560  1.0000
  H   H379      1.0  0.08878  0.17454  0.33721  1.0000
  C   C219      1.0  0.07101  0.16922  0.31899  1.0000
  S   S49       1.0  0.36692  0.09103  0.31973  1.0000
  H   H380      1.0  0.32525  0.00685  0.38802  1.0000
  H   H381      1.0  0.32089  0.47224  0.54435  1.0000
  H   H382      1.0  0.30677  0.99301  0.42909  1.0000
  H   H383      1.0  0.31431  0.00864  0.64020  1.0000
  H   H384      1.0  0.12680  0.99231  0.45877  1.0000
  Fe  Fe26      1.0  0.48080  0.44367  0.33846  1.0000
  H   H385      1.0  0.30530  0.47139  0.39843  1.0000
  C   C220      1.0  0.47402  0.06453  0.44661  1.0000
  C   C221      1.0  0.04455  0.46050  0.45810  1.0000
  H   H386      1.0  0.02706  0.44658  0.44046  1.0000
  C   C222      1.0  0.99648  0.09592  0.44696  1.0000
  H   H387      1.0  0.99962  0.02645  0.46896  1.0000
  H   H388      1.0  0.11753  0.46695  0.43818  1.0000
  H   H389      1.0  0.22858  0.99436  0.57932  1.0000
  N   N13       1.0  0.01900  0.99435  0.47071  1.0000
  C   C223      1.0  0.13787  0.98722  0.43859  1.0000
  H   H390      1.0  0.27315  0.07448  0.63753  1.0000
  H   H391      1.0  0.16338  0.98510  0.60821  1.0000
  C   C224      1.0  0.98978  0.98769  0.52680  1.0000
  H   H392      1.0  0.00567  0.20840  0.31125  1.0000
  S   S50       1.0  0.38112  0.22180  0.91093  1.0000
  S   S51       1.0  0.44028  0.32733  0.90032  1.0000
  C   C225      1.0  0.06669  0.22499  0.96278  1.0000
  Fe  Fe27      1.0  0.08824  0.10212  0.90592  1.0000
  S   S52       1.0  0.07782  0.05749  0.88250  1.0000
  S   S53       1.0  0.13903  0.14557  0.92068  1.0000
  Fe  Fe28      1.0  0.01468  0.08192  0.90248  1.0000
  H   H393      1.0  0.20527  0.20219  0.93256  1.0000
  H   H394      1.0  0.22499  0.13732  0.84416  1.0000
  Fe  Fe29      1.0  0.02683  0.02363  0.91348  1.0000
  H   H395      1.0  0.11434  0.02124  0.85892  1.0000
  Fe  Fe30      1.0  0.05189  0.07313  0.84786  1.0000
  S   S54       1.0  0.07189  0.07713  0.79639  1.0000
  S   S55       1.0  0.03914  0.06740  0.93990  1.0000
  S   S56       1.0  0.06478  0.11980  0.87002  1.0000
  C   C226      1.0  0.03673  0.09398  0.69965  1.0000
  C   C227      1.0  0.05998  0.08493  0.70132  1.0000
  C   C228      1.0  0.07043  0.07993  0.73113  1.0000
  C   C229      1.0  0.05743  0.08337  0.75965  1.0000
  C   C230      1.0  0.03415  0.09237  0.75799  1.0000
  C   C231      1.0  0.02402  0.09781  0.72811  1.0000
  H   H396      1.0  0.09179  0.23735  0.89680  1.0000
  H   H397      1.0  0.44699  0.08609  0.79145  1.0000
  H   H398      1.0  0.02399  0.09519  0.77968  1.0000
  H   H399      1.0  0.12976  0.26585  0.66116  1.0000
  C   C232      1.0  0.45314  0.36814  0.91170  1.0000
  H   H400      1.0  0.15281  0.06991  0.78260  1.0000
  H   H401      1.0  0.32501  0.09402  0.96195  1.0000
  H   H402      1.0  0.21323  0.10351  0.91962  1.0000
  H   H403      1.0  0.44848  0.05106  0.84041  1.0000
  C   C233      1.0  0.43619  0.36968  0.93837  1.0000
  Fe  Fe31      1.0  0.33243  0.20152  0.94298  1.0000
  H   H404      1.0  0.02933  0.16518  0.66497  1.0000
  H   H405      1.0  0.10135  0.29753  0.64804  1.0000
  C   C234      1.0  0.44023  0.15825  0.93287  1.0000
  C   C235      1.0  0.00844  0.17654  0.70270  1.0000
  C   C236      1.0  0.26464  0.02244  0.64797  1.0000
  N   N14       1.0  0.45942  0.47605  0.81020  1.0000
  C   C237      1.0  0.46330  0.18360  0.90639  1.0000
  H   H406      1.0  0.20164  0.15294  0.85764  1.0000
  H   H407      1.0  0.22879  0.03812  0.64762  1.0000
  C   C238      1.0  0.17760  0.14872  0.92425  1.0000
  C   C239      1.0  0.18001  0.12083  0.92112  1.0000
  C   C240      1.0  0.24100  0.15708  0.92761  1.0000
  C   C241      1.0  0.23836  0.18464  0.93176  1.0000
  C   C242      1.0  0.20686  0.18048  0.92995  1.0000
  H   H408      1.0  0.26070  0.20934  0.93576  1.0000
  C   C243      1.0  0.12020  0.17286  0.65985  1.0000
  C   C244      1.0  0.19951  0.12129  0.78843  1.0000
  H   H409      1.0  0.04316  0.21863  0.95210  1.0000
  Fe  Fe32      1.0  0.39646  0.20209  0.95360  1.0000
  Fe  Fe33      1.0  0.40419  0.27218  0.93126  1.0000
  C   C245      1.0  0.47403  0.43453  0.92692  1.0000
  C   C246      1.0  0.17334  0.09567  0.76775  1.0000
  H   H410      1.0  0.14583  0.12794  0.79098  1.0000
  H   H411      1.0  0.17394  0.06004  0.82948  1.0000
  C   C247      1.0  0.10756  0.19546  0.66571  1.0000
  H   H412      1.0  0.42967  0.47845  0.90528  1.0000
  H   H413      1.0  0.23191  0.20306  0.80751  1.0000
  H   H414      1.0  0.29077  0.03432  0.65487  1.0000
  N   N15       1.0  0.06958  0.19434  0.96436  1.0000
  C   C248      1.0  0.24183  0.18799  0.81783  1.0000
  H   H415      1.0  0.21809  0.14642  0.77146  1.0000
  C   C249      1.0  0.21254  0.15039  0.83543  1.0000
  H   H416      1.0  0.12962  0.23391  0.85932  1.0000
  C   C250      1.0  0.14013  0.17720  0.80981  1.0000
  H   H417      1.0  0.12081  0.23168  0.97530  1.0000
  H   H418      1.0  0.13332  0.07933  0.82648  1.0000
  H   H419      1.0  0.21109  0.11338  0.72602  1.0000
  H   H420      1.0  0.07510  0.22244  0.68731  1.0000
  C   C251      1.0  0.44067  0.12851  0.94224  1.0000
  H   H421      1.0  0.08652  0.19457  0.86432  1.0000
  H   H422      1.0  0.11724  0.15756  0.79937  1.0000
  C   C252      1.0  0.43168  0.39293  0.77204  1.0000
  S   S57       1.0  0.41115  0.16264  0.95580  1.0000
  H   H423      1.0  0.43912  0.42106  0.82762  1.0000
  H   H424      1.0  0.42255  0.10823  0.96207  1.0000
  H   H425      1.0  0.07422  0.16595  0.93019  1.0000
  H   H426      1.0  0.15886  0.19957  0.79039  1.0000
  H   H427      1.0  0.04735  0.17897  0.92081  1.0000
  H   H428      1.0  0.11934  0.19398  0.88413  1.0000
  H   H429      1.0  0.41592  0.43350  0.90611  1.0000
  H   H430      1.0  0.14455  0.01671  0.87909  1.0000
  H   H431      1.0  0.45432  0.17449  0.82514  1.0000
  H   H432      1.0  0.14941  0.09989  0.85997  1.0000
  H   H433      1.0  0.43643  0.47352  0.74700  1.0000
  C   C253      1.0  0.46418  0.12445  0.92604  1.0000
  H   H434      1.0  0.01181  0.18941  0.65156  1.0000
  H   H435      1.0  0.00525  0.19721  0.70800  1.0000
  H   H436      1.0  0.46483  0.03407  0.81486  1.0000
  C   C254      1.0  0.41619  0.46013  0.85965  1.0000
  H   H437      1.0  0.28250  0.06516  0.69455  1.0000
  C   C255      1.0  0.02755  0.18696  0.66892  1.0000
  C   C256      1.0  0.26652  0.20884  0.84111  1.0000
  S   S58       1.0  0.28018  0.16097  0.92819  1.0000
  H   H438      1.0  0.13171  0.19740  0.94530  1.0000
  H   H439      1.0  0.00600  0.10475  0.72709  1.0000
  N   N16       1.0  0.18452  0.12802  0.81601  1.0000
  C   C257      1.0  0.27468  0.07393  0.94978  1.0000
  H   H440      1.0  0.12422  0.23711  0.91674  1.0000
  H   H441      1.0  0.28794  0.23529  0.82797  1.0000
  H   H442      1.0  0.16108  0.10718  0.75490  1.0000
  S   S59       1.0  0.35422  0.25324  0.95952  1.0000
  H   H443      1.0  0.25677  0.18668  0.79814  1.0000
  H   H444      1.0  0.18889  0.08093  0.86390  1.0000
  H   H445      1.0  0.12636  0.16431  0.68274  1.0000
  H   H446      1.0  0.46984  0.13337  0.82127  1.0000
  H   H447      1.0  0.24947  0.07241  0.69096  1.0000
  H   H448      1.0  0.41493  0.34549  0.95311  1.0000
  H   H449      1.0  0.17170  0.07051  0.72764  1.0000
  H   H450      1.0  0.10019  0.14895  0.65093  1.0000
  C   C258      1.0  0.19090  0.08845  0.74233  1.0000
  H   H451      1.0  0.24772  0.99783  0.66615  1.0000
  H   H452      1.0  0.18649  0.16860  0.78245  1.0000
  H   H453      1.0  0.06992  0.08184  0.67967  1.0000
  H   H454      1.0  0.27739  0.19497  0.85230  1.0000
  S   S60       1.0  0.99967  0.03586  0.87764  1.0000
  C   C259      1.0  0.16864  0.14624  0.80235  1.0000
  H   H455      1.0  0.08797  0.24862  0.94598  1.0000
  C   C260      1.0  0.07173  0.18807  0.93053  1.0000
  H   H456      1.0  0.40763  0.38855  0.76476  1.0000
  C   C261      1.0  0.16699  0.06843  0.84989  1.0000
  C   C262      1.0  0.13719  0.03497  0.87173  1.0000
  H   H457      1.0  0.46414  0.10147  0.93375  1.0000
  H   H458      1.0  0.08602  0.18018  0.68575  1.0000
  C   C263      1.0  0.44937  0.04483  0.81607  1.0000
  C   C264      1.0  0.29971  0.08449  0.97466  1.0000
  H   H459      1.0  0.46268  0.44874  0.75445  1.0000
  C   C265      1.0  0.44650  0.40264  0.94580  1.0000
  H   H460      1.0  0.01446  0.15663  0.97077  1.0000
  H   H461      1.0  0.44374  0.38801  0.75256  1.0000
  H   H462      1.0  0.20249  0.07556  0.75397  1.0000
  H   H463      1.0  0.27145  0.05174  0.93953  1.0000
  H   H464      1.0  0.99758  0.20636  0.88683  1.0000
  C   C266      1.0  0.15712  0.09404  0.83799  1.0000
  H   H465      1.0  0.42554  0.37383  0.79435  1.0000
  C   C267      1.0  0.21159  0.12515  0.92245  1.0000
  C   C268      1.0  0.48082  0.40002  0.89297  1.0000
  H   H466      1.0  0.42286  0.02419  0.81223  1.0000
  H   H467      1.0  0.12892  0.21924  0.67357  1.0000
  H   H468      1.0  0.24941  0.06622  0.96084  1.0000
  H   H469      1.0  0.00677  0.15949  0.88393  1.0000
  C   C269      1.0  0.10946  0.20996  0.87663  1.0000
  H   H470      1.0  0.41747  0.47957  0.79901  1.0000
  H   H471      1.0  0.13661  0.13819  0.84593  1.0000
  H   H472      1.0  0.13191  0.18740  0.82746  1.0000
  H   H473      1.0  0.17766  0.18017  0.83814  1.0000
  H   H474      1.0  0.28477  0.09676  0.92985  1.0000
  S   S61       1.0  0.02335  0.10168  0.66271  1.0000
  H   H475      1.0  0.08843  0.07296  0.73215  1.0000
  C   C270      1.0  0.10053  0.22065  0.90580  1.0000
  H   H476      1.0  0.21480  0.11150  0.79723  1.0000
  H   H477      1.0  0.25311  0.21244  0.86048  1.0000
  C   C271      1.0  0.15622  0.16006  0.82670  1.0000
  H   H478      1.0  0.15760  0.09603  0.91748  1.0000
  H   H479      1.0  0.47316  0.13913  0.75937  1.0000
  C   C272      1.0  0.11880  0.18586  0.97043  1.0000
  C   C273      1.0  0.25634  0.05383  0.68796  1.0000
  H   H480      1.0  0.40922  0.47858  0.85146  1.0000
  H   H481      1.0  0.46322  0.20648  0.89857  1.0000
  H   H482      1.0  0.46427  0.06981  0.76652  1.0000
  H   H483      1.0  0.39797  0.43461  0.85204  1.0000
  H   H484      1.0  0.23779  0.02844  0.70457  1.0000
  H   H485      1.0  0.16153  0.33048  0.65983  1.0000
  H   H486      1.0  0.41372  0.42734  0.80231  1.0000
  H   H487      1.0  0.02248  0.17234  0.72103  1.0000
  H   H488      1.0  0.13041  0.04137  0.89384  1.0000
  H   H489      1.0  0.43852  0.15346  0.79085  1.0000
  C   C274      1.0  0.45632  0.43076  0.77744  1.0000
  C   C275      1.0  0.46441  0.07770  0.79017  1.0000
  C   C276      1.0  0.46205  0.17223  0.80101  1.0000
  C   C277      1.0  0.44082  0.43818  0.80551  1.0000
  H   H490      1.0  0.43295  0.40341  0.96629  1.0000
  H   H491      1.0  0.38505  0.44387  0.90569  1.0000
  H   H492      1.0  0.03893  0.12049  0.96858  1.0000
  C   C278      1.0  0.45366  0.47631  0.84557  1.0000
  C   C279      1.0  0.06322  0.22238  0.66509  1.0000
  H   H493      1.0  0.10081  0.15707  0.97199  1.0000
  H   H494      1.0  0.48031  0.43397  0.78303  1.0000
  C   C280      1.0  0.48475  0.15902  0.80436  1.0000
  H   H495      1.0  0.46200  0.46166  0.86045  1.0000
  H   H496      1.0  0.47614  0.19864  0.78528  1.0000
  H   H497      1.0  0.05830  0.24283  0.66533  1.0000
  S   S62       1.0  0.42311  0.25379  0.97170  1.0000
  C   C281      1.0  0.41155  0.45366  0.89642  1.0000
  S   S63       1.0  0.00308  0.48148  0.96525  1.0000
  C   C282      1.0  0.25506  0.04828  0.65305  1.0000
  C   C283      1.0  0.98733  0.15497  0.90182  1.0000
  S   S64       1.0  0.48529  0.47538  0.93707  1.0000
  H   H498      1.0  0.04818  0.53018  0.05551  1.0000
  Fe  Fe34      1.0  0.10217  0.71686  0.12506  1.0000
  S   S65       1.0  0.07321  0.68205  0.08905  1.0000
  S   S66       1.0  0.14882  0.77399  0.11571  1.0000
  Fe  Fe35      1.0  0.06165  0.65632  0.18006  1.0000
  S   S67       1.0  0.02907  0.61704  0.14958  1.0000
  S   S68       1.0  0.05226  0.63604  0.23213  1.0000
  Fe  Fe36      1.0  0.07916  0.64184  0.11828  1.0000
  S   S69       1.0  0.08831  0.60232  0.10286  1.0000
  Fe  Fe37      1.0  0.02537  0.65941  0.12422  1.0000
  Fe  Fe38      1.0  0.36996  0.63395  0.29901  1.0000
  S   S70       1.0  0.11148  0.67832  0.15100  1.0000
  S   S71       1.0  0.05461  0.69719  0.15775  1.0000
  S   S72       1.0  0.32813  0.65791  0.19741  1.0000
  Fe  Fe39      1.0  0.39335  0.74293  0.01318  1.0000
  H   H499      1.0  0.48606  0.76881  0.14156  1.0000
  S   S73       1.0  0.40880  0.75730  0.06208  1.0000
  H   H500      1.0  0.24882  0.95617  0.08007  1.0000
  H   H501      1.0  0.26480  0.62863  0.03797  1.0000
  C   C284      1.0  0.04394  0.71893  0.01576  1.0000
  H   H502      1.0  0.40169  0.51989  0.24085  1.0000
  H   H503      1.0  0.27720  0.68791  0.17793  1.0000
  H   H504      1.0  0.28645  0.66838  0.07835  1.0000
  C   C285      1.0  0.34452  0.78590  0.07502  1.0000
  C   C286      1.0  0.09756  0.96860  0.25949  1.0000
  C   C287      1.0  0.09943  0.92163  0.24289  1.0000
  S   S74       1.0  0.15073  0.90842  0.13244  1.0000
  H   H505      1.0  0.09445  0.97509  0.23413  1.0000
  S   S75       1.0  0.26197  0.56284  0.17681  1.0000
  H   H506      1.0  0.01096  0.71723  0.06998  1.0000
  Fe  Fe40      1.0  0.21589  0.54163  0.15026  1.0000
  S   S76       1.0  0.20810  0.58377  0.12787  1.0000
  Fe  Fe41      1.0  0.27275  0.52826  0.15517  1.0000
  S   S77       1.0  0.32448  0.54062  0.13400  1.0000
  C   C288      1.0  0.31933  0.75258  0.06086  1.0000
  H   H507      1.0  0.27970  0.88265  0.25605  1.0000
  H   H508      1.0  0.34729  0.90199  0.30779  1.0000
  S   S78       1.0  0.37394  0.77010  0.98367  1.0000
  H   H509      1.0  0.14375  0.57430  0.19233  1.0000
  H   H510      1.0  0.03662  0.74646  0.30682  1.0000
  H   H511      1.0  0.10185  0.58825  0.25547  1.0000
  C   C289      1.0  0.46903  0.56193  0.18434  1.0000
  S   S79       1.0  0.33513  0.69262  0.28046  1.0000
  Fe  Fe42      1.0  0.19168  0.95746  0.15091  1.0000
  H   H512      1.0  0.12087  0.57131  0.27945  1.0000
  C   C290      1.0  0.20259  0.60217  0.21470  1.0000
  H   H513      1.0  0.28040  0.60575  0.09024  1.0000
  H   H514      1.0  0.19717  0.62563  0.25351  1.0000
  N   N17       1.0  0.00502  0.59451  0.03415  1.0000
  H   H515      1.0  0.13000  0.52095  0.98590  1.0000
  H   H516      1.0  0.01451  0.56844  0.00112  1.0000
  H   H517      1.0  0.44812  0.53948  0.30535  1.0000
  C   C291      1.0  0.18082  0.51574  0.06533  1.0000
  C   C292      1.0  0.35241  0.68511  0.16014  1.0000
  C   C293      1.0  0.38367  0.71791  0.15821  1.0000
  C   C294      1.0  0.40081  0.73973  0.12796  1.0000
  C   C295      1.0  0.38712  0.72870  0.09948  1.0000
  C   C296      1.0  0.35631  0.69567  0.10140  1.0000
  C   C297      1.0  0.33885  0.67412  0.13164  1.0000
  H   H518      1.0  0.39415  0.72676  0.18004  1.0000
  H   H519      1.0  0.42455  0.76541  0.12672  1.0000
  H   H520      1.0  0.34567  0.68712  0.07959  1.0000
  H   H521      1.0  0.31448  0.64890  0.13311  1.0000
  H   H522      1.0  0.18961  0.57517  0.20919  1.0000
  C   C298      1.0  0.42526  0.59058  0.10107  1.0000
  C   C299      1.0  0.38943  0.56674  0.10763  1.0000
  C   C300      1.0  0.37023  0.57167  0.12919  1.0000
  C   C301      1.0  0.38802  0.60062  0.14511  1.0000
  C   C302      1.0  0.42444  0.62416  0.13919  1.0000
  H   H523      1.0  0.43904  0.58705  0.08302  1.0000
  H   H524      1.0  0.37634  0.54477  0.09505  1.0000
  H   H525      1.0  0.37377  0.60526  0.16153  1.0000
  C   C303      1.0  0.12866  0.57070  0.21493  1.0000
  C   C304      1.0  0.11951  0.59585  0.11650  1.0000
  C   C305      1.0  0.15209  0.62431  0.12047  1.0000
  C   C306      1.0  0.17832  0.61958  0.12542  1.0000
  C   C307      1.0  0.17233  0.58631  0.12729  1.0000
  C   C308      1.0  0.13922  0.55737  0.12512  1.0000
  C   C309      1.0  0.11311  0.56225  0.11934  1.0000
  H   H526      1.0  0.15750  0.65032  0.11811  1.0000
  H   H527      1.0  0.20365  0.64193  0.12739  1.0000
  H   H528      1.0  0.13416  0.53160  0.12628  1.0000
  H   H529      1.0  0.08804  0.54001  0.11622  1.0000
  C   C310      1.0  0.14825  0.80999  0.12368  1.0000
  C   C311      1.0  0.11802  0.80817  0.12593  1.0000
  C   C312      1.0  0.11912  0.83835  0.12931  1.0000
  C   C313      1.0  0.15025  0.87038  0.13128  1.0000
  C   C314      1.0  0.18027  0.87180  0.13032  1.0000
  C   C315      1.0  0.17929  0.84188  0.12614  1.0000
  H   H530      1.0  0.09399  0.78391  0.12392  1.0000
  H   H531      1.0  0.09581  0.83704  0.12990  1.0000
  H   H532      1.0  0.20440  0.89631  0.13156  1.0000
  H   H533      1.0  0.20280  0.84359  0.12427  1.0000
  C   C316      1.0  0.01366  0.52192  0.23654  1.0000
  C   C317      1.0  0.44974  0.49860  0.15741  1.0000
  C   C318      1.0  0.01024  0.56601  0.25688  1.0000
  C   C319      1.0  0.03695  0.59213  0.23336  1.0000
  C   C320      1.0  0.05048  0.58291  0.21001  1.0000
  C   C321      1.0  0.03860  0.54762  0.21146  1.0000
  C   C322      1.0  0.25278  0.64195  0.04410  1.0000
  H   H534      1.0  0.35138  0.60986  0.04632  1.0000
  H   H535      1.0  0.07094  0.60309  0.19148  1.0000
  H   H536      1.0  0.05016  0.54068  0.19444  1.0000
  N   N18       1.0  0.27933  0.92909  0.24879  1.0000
  H   H537      1.0  0.09664  0.51047  0.03318  1.0000
  C   C323      1.0  0.28885  0.93204  0.21347  1.0000
  C   C324      1.0  0.12960  0.48574  0.30595  1.0000
  H   H538      1.0  0.03291  0.64057  0.99600  1.0000
  H   H539      1.0  0.32161  0.87462  0.28004  1.0000
  C   C325      1.0  0.48402  0.73023  0.11575  1.0000
  C   C326      1.0  0.33890  0.49006  0.27759  1.0000
  C   C327      1.0  0.03678  0.63053  0.01960  1.0000
  C   C328      1.0  0.15891  0.59979  0.00876  1.0000
  Fe  Fe43      1.0  0.38554  0.70818  0.29681  1.0000
  H   H540      1.0  0.29854  0.49899  0.23610  1.0000
  H   H541      1.0  0.27401  0.90563  0.20647  1.0000
  H   H542      1.0  0.35445  0.54874  0.99926  1.0000
  H   H543      1.0  0.16414  0.66262  0.04961  1.0000
  H   H544      1.0  0.21284  0.70588  0.07484  1.0000
  C   C329      1.0  0.46792  0.55972  0.14800  1.0000
  H   H545      1.0  0.17356  0.48831  0.07056  1.0000
  H   H546      1.0  0.11635  0.51066  0.19330  1.0000
  C   C330      1.0  0.04554  0.71548  0.25830  1.0000
  C   C331      1.0  0.31894  0.91922  0.28282  1.0000
  H   H547      1.0  0.21960  0.88557  0.21468  1.0000
  H   H548      1.0  0.41727  0.56276  0.27991  1.0000
  H   H549      1.0  0.25242  0.61257  0.20416  1.0000
  H   H550      1.0  0.41798  0.58084  0.98824  1.0000
  H   H551      1.0  0.34116  0.93728  0.26404  1.0000
  C   C332      1.0  0.29641  0.71690  0.17114  1.0000
  H   H552      1.0  0.10603  0.54346  0.05563  1.0000
  H   H553      1.0  0.46622  0.76713  0.08672  1.0000
  H   H554      1.0  0.31704  0.76113  0.03573  1.0000
  H   H555      1.0  0.34391  0.59541  0.22078  1.0000
  H   H556      1.0  0.08693  0.79341  0.20048  1.0000
  H   H557      1.0  0.08798  0.87106  0.26803  1.0000
  H   H558      1.0  0.14781  0.60609  0.98858  1.0000
  H   H559      1.0  0.04355  0.70803  0.99387  1.0000
  H   H560      1.0  0.33423  0.93131  0.21457  1.0000
  H   H561      1.0  0.20738  0.53321  0.05257  1.0000
  H   H562      1.0  0.22102  0.86015  0.24987  1.0000
  H   H563      1.0  0.08248  0.97469  0.27410  1.0000
  C   C333      1.0  0.15414  0.61430  0.03785  1.0000
  H   H564      1.0  0.00522  0.97645  0.09702  1.0000
  H   H565      1.0  0.23282  0.91015  0.27995  1.0000
  H   H566      1.0  0.17429  0.85950  0.27966  1.0000
  H   H567      1.0  0.32812  0.55880  0.27472  1.0000
  H   H568      1.0  0.38963  0.80328  0.04209  1.0000
  H   H569      1.0  0.33271  0.79882  0.08274  1.0000
  H   H570      1.0  0.45570  0.71603  0.11869  1.0000
  C   C334      1.0  0.34613  0.48416  0.24400  1.0000
  C   C335      1.0  0.01375  0.73676  0.04975  1.0000
  H   H571      1.0  0.99709  0.82497  0.98796  1.0000
  H   H572      1.0  0.06900  0.74484  0.01397  1.0000
  H   H573      1.0  0.02047  0.78712  0.07892  1.0000
  H   H574      1.0  0.23777  0.67723  0.07455  1.0000
  H   H575      1.0  0.43483  0.67800  0.08421  1.0000
  C   C336      1.0  0.01373  0.57926  0.06276  1.0000
  N   N19       1.0  0.30529  0.48519  0.28507  1.0000
  C   C337      1.0  0.22121  0.49860  0.30256  1.0000
  C   C338      1.0  0.46026  0.65103  0.23086  1.0000
  C   C339      1.0  0.99223  0.74153  0.11646  1.0000
  H   H576      1.0  0.27860  0.94646  0.06807  1.0000
  C   C340      1.0  0.21403  0.74231  0.10133  1.0000
  H   H577      1.0  0.30844  0.71021  0.11193  1.0000
  H   H578      1.0  0.04259  0.80137  0.01092  1.0000
  N   N20       1.0  0.28408  0.72690  0.07980  1.0000
  C   C341      1.0  0.99824  0.53086  0.25808  1.0000
  H   H579      1.0  0.99697  0.74715  0.16648  1.0000
  H   H580      1.0  0.09302  0.52578  0.25371  1.0000
  H   H581      1.0  0.12216  0.66985  0.98869  1.0000
  H   H582      1.0  0.41366  0.56618  0.03109  1.0000
  H   H583      1.0  0.18689  0.61586  0.00050  1.0000
  C   C342      1.0  0.15940  0.63395  0.20967  1.0000
  C   C343      1.0  0.19288  0.66948  0.21328  1.0000
  C   C344      1.0  0.19509  0.70061  0.19347  1.0000
  H   H584      1.0  0.13769  0.63667  0.21076  1.0000
  H   H585      1.0  0.16289  0.63162  0.18423  1.0000
  H   H586      1.0  0.20682  0.62006  0.19223  1.0000
  H   H587      1.0  0.19516  0.67358  0.23847  1.0000
  H   H588      1.0  0.21556  0.67052  0.20435  1.0000
  H   H589      1.0  0.19299  0.69767  0.16785  1.0000
  H   H590      1.0  0.17417  0.70222  0.20293  1.0000
  H   H591      1.0  0.22001  0.72559  0.19483  1.0000
  H   H592      1.0  0.23431  0.59479  0.24582  1.0000
  S   S80       1.0  0.22903  0.51005  0.12499  1.0000
  S   S81       1.0  0.39646  0.68300  0.26067  1.0000
  C   C345      1.0  0.39172  0.59542  0.01827  1.0000
  H   H593      1.0  0.03966  0.76121  0.04993  1.0000
  C   C346      1.0  0.14129  0.62535  0.28097  1.0000
  H   H594      1.0  0.32230  0.72260  0.16724  1.0000
  C   C347      1.0  0.17118  0.65391  0.02946  1.0000
  C   C348      1.0  0.45730  0.58439  0.19331  1.0000
  C   C349      1.0  0.33237  0.94874  0.16613  1.0000
  H   H595      1.0  0.10395  0.69072  0.00435  1.0000
  C   C350      1.0  0.42330  0.56637  0.30409  1.0000
  C   C351      1.0  0.99839  0.76253  0.14334  1.0000
  C   C352      1.0  0.02069  0.80310  0.01549  1.0000
  H   H596      1.0  0.29791  0.58271  0.10709  1.0000
  H   H597      1.0  0.03407  0.91529  0.28785  1.0000
  N   N21       1.0  0.14435  0.56102  0.01504  1.0000
  H   H598      1.0  0.33275  0.73970  0.05852  1.0000
  H   H599      1.0  0.05288  0.70281  0.24254  1.0000
  C   C353      1.0  0.11327  0.53316  0.23414  1.0000
  C   C354      1.0  0.99422  0.76226  0.08350  1.0000
  H   H600      1.0  0.45996  0.49610  0.18019  1.0000
  C   C355      1.0  0.17942  0.86575  0.25294  1.0000
  H   H601      1.0  0.35032  0.62009  0.99228  1.0000
  C   C356      1.0  0.33378  0.59220  0.98875  1.0000
  H   H602      1.0  0.30108  0.49487  0.05078  1.0000
  H   H603      1.0  0.05724  0.86633  0.24174  1.0000
  C   C357      1.0  0.20236  0.96144  0.30545  1.0000
  H   H604      1.0  0.05407  0.66566  0.28570  1.0000
  H   H605      1.0  0.30966  0.76030  0.13437  1.0000
  H   H606      1.0  0.09785  0.93205  0.21827  1.0000
  H   H607      1.0  0.09974  0.88673  0.19392  1.0000
  H   H608      1.0  0.02991  0.52685  0.01832  1.0000
  C   C358      1.0  0.30080  0.60161  0.08619  1.0000
  H   H609      1.0  0.01200  0.73615  0.11558  1.0000
  Fe  Fe44      1.0  0.20928  0.97933  0.21700  1.0000
  H   H610      1.0  0.04930  0.76508  0.25214  1.0000
  H   H611      1.0  0.43019  0.57229  0.18949  1.0000
  C   C359      1.0  0.32677  0.94789  0.20219  1.0000
  H   H612      1.0  0.47362  0.61131  0.17850  1.0000
  C   C360      1.0  0.28335  0.50296  0.05081  1.0000
  N   N22       1.0  0.01082  0.68805  0.27775  1.0000
  H   H613      1.0  0.08011  0.63143  0.03707  1.0000
  H   H614      1.0  0.03896  0.93920  0.23032  1.0000
  S   S82       1.0  0.22782  0.95854  0.18329  1.0000
  H   H615      1.0  0.28874  0.97506  0.09690  1.0000
  S   S83       1.0  0.31795  0.61311  0.28345  1.0000
  H   H616      1.0  0.47141  0.51441  0.09261  1.0000
  C   C361      1.0  0.32238  0.89011  0.29818  1.0000
  C   C362      1.0  0.21659  0.88055  0.24143  1.0000
  H   H617      1.0  0.99069  0.69681  0.01899  1.0000
  H   H618      1.0  0.03217  0.60065  0.07548  1.0000
  H   H619      1.0  0.35123  0.54392  0.04206  1.0000
  C   C363      1.0  0.04524  0.90821  0.26968  1.0000
  H   H620      1.0  0.25209  0.64040  0.22942  1.0000
  H   H621      1.0  0.34508  0.50163  0.22438  1.0000
  H   H622      1.0  0.45999  0.55925  0.04191  1.0000
  H   H623      1.0  0.99276  0.58621  0.98587  1.0000
  H   H624      1.0  0.45960  0.58657  0.21908  1.0000
  H   H625      1.0  0.44297  0.52634  0.09927  1.0000
  H   H626      1.0  0.01572  0.55148  0.12548  1.0000
  H   H627      1.0  0.21861  0.76149  0.07974  1.0000
  H   H628      1.0  0.46014  0.65229  0.29531  1.0000
  C   C364      1.0  0.08282  0.54425  0.01231  1.0000
  H   H629      1.0  0.45263  0.53568  0.20013  1.0000
  H   H630      1.0  0.13312  0.53127  0.24478  1.0000
  H   H631      1.0  0.29410  0.52078  0.99916  1.0000
  C   C365      1.0  0.43163  0.68288  0.03366  1.0000
  C   C366      1.0  0.09256  0.92188  0.30050  1.0000
  H   H632      1.0  0.00272  0.51875  0.10020  1.0000
  H   H633      1.0  0.44225  0.55233  0.14243  1.0000
  H   H634      1.0  0.35987  0.96103  0.15835  1.0000
  H   H635      1.0  0.28200  0.94816  0.19853  1.0000
  H   H636      1.0  0.43321  0.71418  0.06707  1.0000
  H   H637      1.0  0.22658  0.75675  0.12104  1.0000
  C   C367      1.0  0.23740  0.61319  0.22427  1.0000
  N   N23       1.0  0.14973  0.60097  0.23250  1.0000
  C   C368      1.0  0.14571  0.55020  0.98326  1.0000
  Fe  Fe45      1.0  0.34439  0.66392  0.24741  1.0000
  C   C369      1.0  0.12698  0.59469  0.26206  1.0000
  C   C370      1.0  0.01837  0.82200  0.98439  1.0000
  H   H638      1.0  0.12989  0.49888  0.05850  1.0000
  C   C371      1.0  0.18045  0.60237  0.24220  1.0000
  H   H639      1.0  0.22215  0.70191  0.11535  1.0000
  H   H640      1.0  0.18600  0.72433  0.10928  1.0000
  H   H641      1.0  0.10700  0.57094  0.20653  1.0000
  C   C372      1.0  0.32291  0.56679  0.22518  1.0000
  H   H642      1.0  0.17263  0.57976  0.26155  1.0000
  C   C373      1.0  0.32727  0.58309  0.04857  1.0000
  H   H643      1.0  0.30175  0.69179  0.03725  1.0000
  H   H644      1.0  0.29562  0.72935  0.19144  1.0000
  H   H645      1.0  0.45247  0.71089  0.17864  1.0000
  H   H646      1.0  0.16572  0.60982  0.05841  1.0000
  H   H647      1.0  0.02718  0.56796  0.05450  1.0000
  H   H648      1.0  0.24328  0.64770  0.02232  1.0000
  C   C374      1.0  0.30044  0.50740  0.25969  1.0000
  N   N24       1.0  0.08365  0.93008  0.26820  1.0000
  H   H649      1.0  0.26076  0.70701  0.03745  1.0000
  H   H650      1.0  0.32101  0.93441  0.30172  1.0000
  H   H651      1.0  0.34396  0.97532  0.20644  1.0000
  S   S84       1.0  0.18724  0.94865  0.26856  1.0000
  C   C375      1.0  0.28625  0.71202  0.11293  1.0000
  C   C376      1.0  0.04992  0.74783  0.23694  1.0000
  C   C377      1.0  0.10762  0.53902  0.03060  1.0000
  H   H652      1.0  0.23068  0.62375  0.06308  1.0000
  H   H653      1.0  0.46047  0.68762  0.27448  1.0000
  C   C378      1.0  0.26398  0.69701  0.06154  1.0000
  C   C379      1.0  0.27898  0.67590  0.05592  1.0000
  H   H654      1.0  0.36046  0.51684  0.28049  1.0000
  H   H655      1.0  0.12719  0.93545  0.24441  1.0000
  H   H656      1.0  0.26890  0.75891  0.05590  1.0000
  C   C380      1.0  0.22754  0.72096  0.09345  1.0000
  H   H657      1.0  0.43899  0.70336  0.01227  1.0000
  H   H658      1.0  0.16271  0.56178  0.06125  1.0000
  H   H659      1.0  0.09315  0.84919  0.22003  1.0000
  H   H660      1.0  0.98846  0.64163  0.00544  1.0000
  C   C381      1.0  0.35494  0.56176  0.01972  1.0000
  H   H661      1.0  0.44393  0.66071  0.22707  1.0000
  H   H662      1.0  0.16254  0.66053  0.00744  1.0000
  S   S85       1.0  0.22739  0.52645  0.26658  1.0000
  H   H663      1.0  0.12048  0.93364  0.29898  1.0000
  H   H664      1.0  0.19943  0.66830  0.02561  1.0000
  H   H665      1.0  0.36755  0.82281  0.02915  1.0000
  H   H666      1.0  0.27566  0.50357  0.26625  1.0000
  H   H667      1.0  0.04187  0.65001  0.03503  1.0000
  C   C382      1.0  0.32866  0.54763  0.25344  1.0000
  C   C383      1.0  0.24188  0.91515  0.25389  1.0000
  H   H668      1.0  0.26427  0.88886  0.29104  1.0000
  H   H669      1.0  0.17383  0.88514  0.24397  1.0000
  H   H670      1.0  0.26358  0.68429  0.12113  1.0000
  N   N25       1.0  0.32670  0.56721  0.01964  1.0000
  H   H671      1.0  0.19309  0.57388  0.02832  1.0000
  H   H672      1.0  0.00165  0.68778  0.20940  1.0000
  H   H673      1.0  0.15659  0.50755  0.02246  1.0000
  C   C384      1.0  0.26632  0.74514  0.08061  1.0000
  S   S86       1.0  0.35591  0.69033  0.99938  1.0000
  H   H674      1.0  0.08032  0.53560  0.98870  1.0000
  C   C385      1.0  0.07049  0.63319  0.01386  1.0000
  N   N26       1.0  0.47496  0.53476  0.13688  1.0000
  H   H675      1.0  0.13129  0.89262  0.21974  1.0000
  H   H676      1.0  0.27866  0.76627  0.09511  1.0000
  H   H677      1.0  0.28428  0.58631  0.99097  1.0000
  C   C386      1.0  0.16530  0.55531  0.03747  1.0000
  C   C387      1.0  0.08429  0.77030  0.21514  1.0000
  C   C388      1.0  0.10342  0.87748  0.21797  1.0000
  H   H678      1.0  0.06694  0.61194  0.00194  1.0000
  H   H679      1.0  0.12664  0.60160  0.04574  1.0000
  H   H680      1.0  0.08603  0.75481  0.19842  1.0000
  H   H681      1.0  0.01144  0.62492  0.29535  1.0000
  H   H682      1.0  0.14363  0.64821  0.26621  1.0000
  C   C389      1.0  0.29971  0.96549  0.25712  1.0000
  C   C390      1.0  0.44334  0.61931  0.11689  1.0000
  C   C391      1.0  0.01456  0.72307  0.01860  1.0000
  C   C392      1.0  0.48093  0.72791  0.17596  1.0000
  C   C393      1.0  0.04712  0.52242  0.03161  1.0000
  H   H683      1.0  0.03394  0.87986  0.27844  1.0000
  S   S87       1.0  0.43058  0.76328  0.30251  1.0000
  H   H684      1.0  0.06586  0.72671  0.27436  1.0000
  H   H685      1.0  0.07669  0.50671  0.20084  1.0000
  H   H686      1.0  0.32786  0.56783  0.07061  1.0000
  H   H687      1.0  0.44241  0.66797  0.02894  1.0000
  H   H688      1.0  0.09214  0.60834  0.30560  1.0000
  H   H689      1.0  0.02947  0.74011  0.22144  1.0000
  C   C394      1.0  0.46952  0.53439  0.10184  1.0000
  H   H690      1.0  0.04120  0.70053  0.03707  1.0000
  Fe  Fe46      1.0  0.22698  0.51552  0.21576  1.0000
  C   C395      1.0  0.44453  0.69970  0.06321  1.0000
  H   H691      1.0  0.23821  0.93540  0.24257  1.0000
  H   H692      1.0  0.39337  0.83694  0.06144  1.0000
  H   H693      1.0  0.19479  0.55561  0.98133  1.0000
  C   C396      1.0  0.15590  0.51730  0.04477  1.0000
  H   H694      1.0  0.10583  0.78008  0.22971  1.0000
  H   H695      1.0  0.32237  0.55641  0.20291  1.0000
  H   H696      1.0  0.32611  0.62701  0.08490  1.0000
  H   H697      1.0  0.35403  0.77855  0.09599  1.0000
  H   H698      1.0  0.39498  0.60465  0.04162  1.0000
  H   H699      1.0  0.18002  0.52402  0.08862  1.0000
  H   H700      1.0  0.26467  0.72870  0.14684  1.0000
  S   S88       1.0  0.17076  0.97517  0.18559  1.0000
  H   H701      1.0  0.35448  0.55371  0.24780  1.0000
  H   H702      1.0  0.27254  0.56218  0.05758  1.0000
  H   H703      1.0  0.03715  0.98035  0.13470  1.0000
  H   H704      1.0  0.30028  0.60704  0.03536  1.0000
  C   C397      1.0  0.01563  0.67103  0.30812  1.0000
  H   H705      1.0  0.16653  0.63338  0.28812  1.0000
  H   H706      1.0  0.39733  0.61707  0.99898  1.0000
  C   C398      1.0  0.29811  0.58751  0.05505  1.0000
  H   H707      1.0  0.43764  0.64681  0.15090  1.0000
  H   H708      1.0  0.04110  0.90497  0.21811  1.0000
  C   C399      1.0  0.08479  0.88213  0.24471  1.0000
  H   H709      1.0  0.03616  0.49385  0.03496  1.0000
  C   C400      1.0  0.29335  0.53161  0.02088  1.0000
  C   C401      1.0  0.03140  0.91185  0.23782  1.0000
  C   C402      1.0  0.47730  0.67899  0.28057  1.0000
  H   H710      1.0  0.26554  0.96920  0.28879  1.0000
  H   H711      1.0  0.32473  0.96439  0.15197  1.0000
  C   C403      1.0  0.28905  0.73177  0.14070  1.0000
  H   H712      1.0  0.27156  0.53388  0.01984  1.0000
  H   H713      1.0  0.07982  0.89302  0.30769  1.0000
  H   H714      1.0  0.02616  0.81990  0.03384  1.0000
  H   H715      1.0  0.38656  0.48790  0.21473  1.0000
  H   H716      1.0  0.44440  0.61195  0.01324  1.0000
  H   H717      1.0  0.09161  0.57216  0.00793  1.0000
  H   H718      1.0  0.29845  0.56374  0.23086  1.0000
  H   H719      1.0  0.48208  0.83725  0.29865  1.0000
  C   C404      1.0  0.41848  0.58798  0.01235  1.0000
  H   H720      1.0  0.28347  0.51238  0.07358  1.0000
  C   C405      1.0  0.37557  0.81381  0.05034  1.0000
  C   C406      1.0  0.27645  0.96733  0.07478  1.0000
  H   H721      1.0  0.31720  0.92160  0.16079  1.0000
  C   C407      1.0  0.09676  0.50577  0.21231  1.0000
  H   H722      1.0  0.32741  0.97682  0.25540  1.0000
  H   H723      1.0  0.16196  0.84126  0.24340  1.0000
  H   H724      1.0  0.01827  0.74137  0.99672  1.0000
  H   H725      1.0  0.40333  0.66474  0.03773  1.0000
  C   C408      1.0  0.28411  0.90353  0.26943  1.0000
  H   H726      1.0  0.99920  0.57293  0.27448  1.0000
  C   C409      1.0  0.09836  0.66842  0.99266  1.0000
  H   H727      1.0  0.98916  0.71785  0.26706  1.0000
  H   H728      1.0  0.00104  0.64691  0.25178  1.0000
  S   S89       1.0  0.18055  0.49652  0.19053  1.0000
  C   C410      1.0  0.98679  0.76601  0.02660  1.0000
  C   C411      1.0  0.99449  0.57220  0.00831  1.0000
  H   H729      1.0  0.02415  0.78801  0.13817  1.0000
  C   C412      1.0  0.99211  0.70327  0.28802  1.0000
  H   H730      1.0  0.44427  0.62371  0.24483  1.0000
  C   C413      1.0  0.28769  0.96770  0.29066  1.0000
  H   H731      1.0  0.42532  0.49516  0.16510  1.0000
  H   H732      1.0  0.15451  0.50631  0.29097  1.0000
  C   C414      1.0  0.38182  0.49207  0.23902  1.0000
  H   H733      1.0  0.45053  0.91494  0.98077  1.0000
  S   S90       1.0  0.39036  0.59931  0.30110  1.0000
  C   C415      1.0  0.03063  0.64980  0.30349  1.0000
  H   H734      1.0  0.27920  0.94398  0.30866  1.0000
  C   C416      1.0  0.98841  0.65933  0.25908  1.0000
  H   H735      1.0  0.21461  0.59359  0.30678  1.0000
  H   H736      1.0  0.47020  0.65059  0.20700  1.0000
  N   N27       1.0  0.98656  0.74310  0.05541  1.0000
  H   H737      1.0  0.00353  0.96276  0.02330  1.0000
  H   H738      1.0  0.47956  0.82507  0.09214  1.0000
  C   C417      1.0  0.99449  0.53249  0.11308  1.0000
  C   C418      1.0  0.99232  0.88749  0.24184  1.0000
  H   H739      1.0  0.99911  0.76644  0.29218  1.0000
  C   C419      1.0  0.48421  0.72440  0.05918  1.0000
  H   H740      1.0  0.98730  0.61701  0.06347  1.0000
  C   C420      1.0  0.48609  0.56588  0.04346  1.0000
  Fe  Fe47      1.0  0.98795  0.50734  0.35179  1.0000
  H   H741      1.0  0.02018  0.96875  0.51671  1.0000
  S   S91       1.0  0.30649  0.96887  0.53758  1.0000
  C   C421      1.0  0.42919  0.79657  0.31703  1.0000
  C   C422      1.0  0.37560  0.51466  0.42458  1.0000
  H   H742      1.0  0.12826  0.97427  0.52183  1.0000
  C   C423      1.0  0.14594  0.51868  0.55815  1.0000
  S   S92       1.0  0.43010  0.88391  0.35813  1.0000
  C   C424      1.0  0.04038  0.63959  0.33491  1.0000
  H   H743      1.0  0.12846  0.63716  0.32491  1.0000
  H   H744      1.0  0.01371  0.49100  0.54265  1.0000
  H   H745      1.0  0.19363  0.51174  0.40971  1.0000
  H   H746      1.0  0.32499  0.51567  0.37644  1.0000
  S   S93       1.0  0.26525  0.62121  0.35448  1.0000
  C   C425      1.0  0.20678  0.67340  0.35817  1.0000
  S   S94       1.0  0.10119  0.52896  0.37631  1.0000
  C   C426      1.0  0.04479  0.96019  0.45945  1.0000
  H   H747      1.0  0.23280  0.69740  0.34869  1.0000
  H   H748      1.0  0.21005  0.65007  0.46895  1.0000
  C   C427      1.0  0.41354  0.58426  0.32058  1.0000
  S   S95       1.0  0.36232  0.66028  0.33594  1.0000
  C   C428      1.0  0.22957  0.51252  0.33099  1.0000
  Fe  Fe48      1.0  0.05332  0.60183  0.61114  1.0000
  S   S96       1.0  0.02384  0.54877  0.59548  1.0000
  Fe  Fe49      1.0  0.06821  0.64253  0.54316  1.0000
  S   S97       1.0  0.03971  0.59261  0.52263  1.0000
  S   S98       1.0  0.09791  0.69533  0.50808  1.0000
  Fe  Fe50      1.0  0.99889  0.56966  0.56495  1.0000
  H   H749      1.0  0.01662  0.91112  0.44067  1.0000
  Fe  Fe51      1.0  0.06600  0.57420  0.55355  1.0000
  S   S99       1.0  0.08370  0.54730  0.52481  1.0000
  S   S100      1.0  0.02551  0.62105  0.58349  1.0000
  S   S101      1.0  0.09725  0.62579  0.57109  1.0000
  H   H750      1.0  0.08769  0.90067  0.36671  1.0000
  H   H751      1.0  0.46956  0.67120  0.34353  1.0000
  H   H752      1.0  0.35989  0.63837  0.49226  1.0000
  Fe  Fe52      1.0  0.18479  0.90271  0.51135  1.0000
  H   H753      1.0  0.15246  0.55599  0.41683  1.0000
  S   S102      1.0  0.14293  0.84611  0.53619  1.0000
  H   H754      1.0  0.15552  0.49237  0.34771  1.0000
  H   H755      1.0  0.48437  0.96804  0.61372  1.0000
  H   H756      1.0  0.19787  0.69844  0.39227  1.0000
  S   S103      1.0  0.32675  0.52073  0.48830  1.0000
  S   S104      1.0  0.17570  0.93985  0.48107  1.0000
  S   S105      1.0  0.23407  0.92210  0.48143  1.0000
  C   C429      1.0  0.35726  0.52014  0.51095  1.0000
  C   C430      1.0  0.39232  0.54736  0.50211  1.0000
  C   C431      1.0  0.41750  0.54760  0.51876  1.0000
  C   C432      1.0  0.40801  0.52015  0.54420  1.0000
  Fe  Fe53      1.0  0.20603  0.97807  0.51384  1.0000
  C   C433      1.0  0.04304  0.93551  0.43801  1.0000
  H   H757      1.0  0.40018  0.56816  0.48191  1.0000
  H   H758      1.0  0.44428  0.56866  0.51156  1.0000
  H   H759      1.0  0.13549  0.49331  0.39863  1.0000
  C   C434      1.0  0.11444  0.51704  0.50366  1.0000
  C   C435      1.0  0.10989  0.53136  0.52897  1.0000
  H   H760      1.0  0.26080  0.97279  0.59341  1.0000
  H   H761      1.0  0.23125  0.56259  0.51524  1.0000
  S   S106      1.0  0.47268  0.54250  0.36834  1.0000
  H   H762      1.0  0.27677  0.93277  0.43053  1.0000
  C   C436      1.0  0.12594  0.53222  0.55628  1.0000
  H   H763      1.0  0.33965  0.93649  0.51199  1.0000
  C   C437      1.0  0.30400  0.96125  0.62712  1.0000
  H   H764      1.0  0.16397  0.95402  0.58747  1.0000
  H   H765      1.0  0.12290  0.54319  0.57600  1.0000
  C   C438      1.0  0.11158  0.73719  0.51713  1.0000
  C   C439      1.0  0.09872  0.74043  0.54563  1.0000
  C   C440      1.0  0.10886  0.77396  0.55108  1.0000
  C   C441      1.0  0.13237  0.80476  0.52844  1.0000
  C   C442      1.0  0.14576  0.80160  0.50021  1.0000
  C   C443      1.0  0.13520  0.76799  0.49452  1.0000
  H   H766      1.0  0.08043  0.71704  0.56315  1.0000
  H   H767      1.0  0.09824  0.77608  0.57290  1.0000
  H   H768      1.0  0.16368  0.82495  0.48250  1.0000
  H   H769      1.0  0.14521  0.76581  0.47236  1.0000
  C   C444      1.0  0.43025  0.85096  0.34136  1.0000
  H   H770      1.0  0.02947  0.50540  0.48442  1.0000
  C   C445      1.0  0.16471  0.96198  0.61123  1.0000
  H   H771      1.0  0.38547  0.51849  0.39917  1.0000
  C   C446      1.0  0.39969  0.78924  0.33432  1.0000
  C   C447      1.0  0.40036  0.81622  0.34664  1.0000
  C   C448      1.0  0.22777  0.97740  0.36490  1.0000
  C   C449      1.0  0.08239  0.93336  0.32907  1.0000
  H   H772      1.0  0.12976  0.95952  0.44430  1.0000
  H   H773      1.0  0.37753  0.81015  0.36028  1.0000
  C   C450      1.0  0.45059  0.55904  0.34911  1.0000
  H   H774      1.0  0.47130  0.55942  0.43156  1.0000
  H   H775      1.0  0.23987  0.54005  0.33027  1.0000
  C   C451      1.0  0.24669  0.90556  0.37925  1.0000
  C   C452      1.0  0.42317  0.59020  0.35127  1.0000
  C   C453      1.0  0.44175  0.57787  0.36530  1.0000
  C   C454      1.0  0.45960  0.85832  0.32375  1.0000
  H   H776      1.0  0.14182  0.93973  0.62771  1.0000
  H   H777      1.0  0.41610  0.60404  0.36429  1.0000
  H   H778      1.0  0.44885  0.58250  0.38906  1.0000
  C   C455      1.0  0.14678  0.55527  0.36677  1.0000
  C   C456      1.0  0.16459  0.56598  0.33560  1.0000
  C   C457      1.0  0.20101  0.58578  0.33073  1.0000
  C   C458      1.0  0.21966  0.59520  0.35713  1.0000
  C   C459      1.0  0.20154  0.58444  0.38793  1.0000
  C   C460      1.0  0.16572  0.56477  0.39265  1.0000
  H   H779      1.0  0.14572  0.60232  0.48639  1.0000
  H   H780      1.0  0.22903  0.90401  0.39830  1.0000
  H   H781      1.0  0.21540  0.59089  0.40852  1.0000
  C   C461      1.0  0.35385  0.61724  0.47850  1.0000
  C   C462      1.0  0.38812  0.62658  0.46175  1.0000
  H   H782      1.0  0.06047  0.92797  0.44501  1.0000
  C   C463      1.0  0.19777  0.94446  0.36378  1.0000
  H   H783      1.0  0.03707  0.94588  0.48471  1.0000
  C   C464      1.0  0.35798  0.97629  0.38935  1.0000
  H   H784      1.0  0.18712  0.57364  0.47177  1.0000
  C   C465      1.0  0.41506  0.63844  0.48484  1.0000
  H   H785      1.0  0.99667  0.96560  0.57206  1.0000
  C   C466      1.0  0.44134  0.55358  0.31829  1.0000
  H   H786      1.0  0.01812  0.62469  0.35412  1.0000
  H   H787      1.0  0.04078  0.56364  0.46015  1.0000
  H   H788      1.0  0.39886  0.64779  0.44035  1.0000
  H   H789      1.0  0.42966  0.67817  0.37532  1.0000
  H   H790      1.0  0.48280  0.88480  0.31945  1.0000
  H   H791      1.0  0.10448  0.63427  0.43738  1.0000
  H   H792      1.0  0.04884  0.62246  0.33105  1.0000
  H   H793      1.0  0.18842  0.67264  0.34232  1.0000
  H   H794      1.0  0.35884  0.97231  0.57173  1.0000
  C   C467      1.0  0.11731  0.61485  0.31167  1.0000
  H   H795      1.0  0.09861  0.58522  0.40771  1.0000
  H   H796      1.0  0.08027  0.72749  0.62319  1.0000
  C   C468      1.0  0.44674  0.70686  0.36526  1.0000
  H   H797      1.0  0.27080  0.58064  0.46457  1.0000
  C   C469      1.0  0.00218  0.97252  0.50399  1.0000
  H   H798      1.0  0.33055  0.96909  0.62846  1.0000
  H   H799      1.0  0.47892  0.74199  0.32189  1.0000
  H   H800      1.0  0.21682  0.67647  0.40705  1.0000
  Fe  Fe54      1.0  0.47190  0.94316  0.34433  1.0000
  H   H801      1.0  0.23094  0.50208  0.38207  1.0000
  H   H802      1.0  0.29946  0.90839  0.47197  1.0000
  H   H803      1.0  0.32780  0.52496  0.31549  1.0000
  H   H804      1.0  0.04152  0.66317  0.63543  1.0000
  H   H805      1.0  0.40542  0.61789  0.50686  1.0000
  H   H806      1.0  0.16671  0.69956  0.52590  1.0000
  Fe  Fe55      1.0  0.22697  0.96159  0.45335  1.0000
  H   H807      1.0  0.10114  0.60789  0.47365  1.0000
  H   H808      1.0  0.25155  0.54485  0.53727  1.0000
  H   H809      1.0  0.22751  0.61009  0.48013  1.0000
  C   C470      1.0  0.22445  0.49110  0.36034  1.0000
  H   H810      1.0  0.99085  0.65300  0.32418  1.0000
  N   N28       1.0  0.32640  0.61071  0.45754  1.0000
  H   H811      1.0  0.47703  0.59645  0.44635  1.0000
  C   C471      1.0  0.25267  0.56911  0.52935  1.0000
  H   H812      1.0  0.24970  0.96227  0.63549  1.0000
  S   S107      1.0  0.23858  0.49410  0.46411  1.0000
  H   H813      1.0  0.33243  0.91118  0.44726  1.0000
  H   H814      1.0  0.12777  0.65499  0.49556  1.0000
  C   C472      1.0  0.29211  0.58576  0.47832  1.0000
  H   H815      1.0  0.01787  0.68196  0.63837  1.0000
  H   H816      1.0  0.34432  0.59323  0.49705  1.0000
  H   H817      1.0  0.04988  0.58913  0.42032  1.0000
  H   H818      1.0  0.43858  0.64289  0.47290  1.0000
  H   H819      1.0  0.47991  0.56476  0.47245  1.0000
  H   H820      1.0  0.43104  0.71747  0.36415  1.0000
  H   H821      1.0  0.19712  0.94680  0.62750  1.0000
  H   H822      1.0  0.28236  0.49680  0.32169  1.0000
  C   C473      1.0  0.32752  0.92448  0.46408  1.0000
  H   H823      1.0  0.00284  0.71193  0.33729  1.0000
  H   H824      1.0  0.46630  0.72051  0.38146  1.0000
  C   C474      1.0  0.45912  0.83123  0.31196  1.0000
  H   H825      1.0  0.37299  0.93938  0.48712  1.0000
  H   H826      1.0  0.99199  0.51783  0.50816  1.0000
  H   H827      1.0  0.10292  0.51689  0.48215  1.0000
  H   H828      1.0  0.14466  0.58524  0.45165  1.0000
  H   H829      1.0  0.15822  0.51953  0.57938  1.0000
  H   H830      1.0  0.32939  0.97047  0.46655  1.0000
  C   C475      1.0  0.38496  0.95527  0.35525  1.0000
  H   H831      1.0  0.35247  0.51472  0.42501  1.0000
  H   H832      1.0  0.29373  0.94545  0.60775  1.0000
  H   H833      1.0  0.29422  0.91180  0.41629  1.0000
  C   C476      1.0  0.02135  0.97196  0.44972  1.0000
  H   H834      1.0  0.12580  0.94526  0.35438  1.0000
  C   C477      1.0  0.30406  0.48742  0.37745  1.0000
  Fe  Fe56      1.0  0.26084  0.96176  0.51396  1.0000
  H   H835      1.0  0.16254  0.91061  0.33337  1.0000
  H   H836      1.0  0.15033  0.55854  0.31550  1.0000
  C   C478      1.0  0.34487  0.92445  0.49380  1.0000
  H   H837      1.0  0.05412  0.91709  0.33521  1.0000
  Fe  Fe57      1.0  0.05056  0.50287  0.35497  1.0000
  C   C479      1.0  0.16042  0.64118  0.40659  1.0000
  H   H838      1.0  0.33669  0.92106  0.38481  1.0000
  C   C480      1.0  0.19697  0.67415  0.39270  1.0000
  H   H839      1.0  0.20714  0.64999  0.35742  1.0000
  H   H840      1.0  0.38737  0.93329  0.35348  1.0000
  H   H841      1.0  0.30726  0.60390  0.52468  1.0000
  H   H842      1.0  0.37346  0.94175  0.40644  1.0000
  H   H843      1.0  0.99551  0.94752  0.44945  1.0000
  H   H844      1.0  0.17132  0.72034  0.48530  1.0000
  H   H845      1.0  0.37650  0.76273  0.33854  1.0000
  N   N29       1.0  0.33094  0.96810  0.41551  1.0000
  H   H846      1.0  0.33008  0.65748  0.46522  1.0000
  S   S108      1.0  0.21184  0.93984  0.54592  1.0000
  H   H847      1.0  0.08972  0.55998  0.44720  1.0000
  H   H848      1.0  0.17417  0.52168  0.43926  1.0000
  C   C481      1.0  0.28319  0.93800  0.37889  1.0000
  H   H849      1.0  0.28770  0.55966  0.48615  1.0000
  C   C482      1.0  0.32998  0.64446  0.44504  1.0000
  H   H850      1.0  0.03709  0.54442  0.42485  1.0000
  H   H851      1.0  0.28690  0.62156  0.50294  1.0000
  C   C483      1.0  0.36157  0.94602  0.38593  1.0000
  H   H852      1.0  0.16037  0.64892  0.50652  1.0000
  H   H853      1.0  0.39504  0.53697  0.43567  1.0000
  C   C484      1.0  0.14997  0.50380  0.53297  1.0000
  C   C485      1.0  0.28698  0.59787  0.50919  1.0000
  H   H854      1.0  0.13574  0.49073  0.48682  1.0000
  H   H855      1.0  0.24920  0.57826  0.55111  1.0000
  H   H856      1.0  0.20333  0.71360  0.49790  1.0000
  H   H857      1.0  0.18887  0.59346  0.50631  1.0000
  C   C486      1.0  0.34020  0.96252  0.44862  1.0000
  H   H858      1.0  0.20658  0.62868  0.43512  1.0000
  H   H859      1.0  0.36843  0.97995  0.44833  1.0000
  C   C487      1.0  0.32673  0.59254  0.43064  1.0000
  C   C488      1.0  0.36280  0.67303  0.42172  1.0000
  C   C489      1.0  0.30198  0.58708  0.40557  1.0000
  C   C490      1.0  0.35942  0.70141  0.40411  1.0000
  C   C491      1.0  0.30398  0.56751  0.38041  1.0000
  H   H860      1.0  0.32105  0.56634  0.44086  1.0000
  H   H861      1.0  0.35237  0.60726  0.41637  1.0000
  H   H862      1.0  0.30717  0.63864  0.43335  1.0000
  H   H863      1.0  0.36864  0.66187  0.40327  1.0000
  H   H864      1.0  0.38487  0.68621  0.43552  1.0000
  H   H865      1.0  0.27494  0.57155  0.41672  1.0000
  H   H866      1.0  0.30908  0.61291  0.39268  1.0000
  H   H867      1.0  0.38393  0.60288  0.45382  1.0000
  H   H868      1.0  0.35431  0.71422  0.42154  1.0000
  H   H869      1.0  0.38356  0.72197  0.38805  1.0000
  H   H870      1.0  0.33833  0.68975  0.38896  1.0000
  H   H871      1.0  0.28832  0.56667  0.36129  1.0000
  H   H872      1.0  0.33073  0.58096  0.36891  1.0000
  H   H873      1.0  0.29373  0.54012  0.39186  1.0000
  N   N30       1.0  0.14934  0.63432  0.44240  1.0000
  C   C492      1.0  0.16556  0.66868  0.45455  1.0000
  C   C493      1.0  0.34769  0.49330  0.53707  1.0000
  C   C494      1.0  0.11098  0.61581  0.44752  1.0000
  C   C495      1.0  0.15718  0.61036  0.46080  1.0000
  C   C496      1.0  0.19539  0.62486  0.45995  1.0000
  C   C497      1.0  0.15528  0.66585  0.49066  1.0000
  C   C498      1.0  0.08929  0.58153  0.43328  1.0000
  C   C499      1.0  0.30560  0.49717  0.31666  1.0000
  H   H874      1.0  0.23757  0.90750  0.35579  1.0000
  C   C500      1.0  0.19985  0.59886  0.48088  1.0000
  C   C501      1.0  0.17555  0.70214  0.50037  1.0000
  C   C502      1.0  0.05197  0.56901  0.43484  1.0000
  H   H875      1.0  0.15919  0.68560  0.44033  1.0000
  H   H876      1.0  0.19387  0.68405  0.45077  1.0000
  H   H877      1.0  0.17545  0.48408  0.44943  1.0000
  H   H878      1.0  0.18475  0.92481  0.38557  1.0000
  H   H879      1.0  0.11359  0.59185  0.32773  1.0000
  C   C503      1.0  0.18526  0.93650  0.33414  1.0000
  S   S109      1.0  0.02431  0.96304  0.31135  1.0000
  C   C504      1.0  0.46380  0.71326  0.33140  1.0000
  H   H880      1.0  0.41981  0.49898  0.43180  1.0000
  H   H881      1.0  0.08983  0.93722  0.37908  1.0000
  S   S110      1.0  0.03708  0.53146  0.31917  1.0000
  H   H882      1.0  0.42182  0.66344  0.49189  1.0000
  S   S111      1.0  0.43881  0.51660  0.56332  1.0000
  H   H883      1.0  0.46438  0.50367  0.45915  1.0000
  C   C505      1.0  0.09737  0.92873  0.35910  1.0000
  H   H884      1.0  0.06283  0.48879  0.44701  1.0000
  S   S112      1.0  0.99448  0.98035  0.37139  1.0000
  H   H885      1.0  0.37452  0.95985  0.33361  1.0000
  H   H886      1.0  0.40728  0.49839  0.47174  1.0000
  C   C506      1.0  0.17243  0.49988  0.42971  1.0000
  H   H887      1.0  0.14310  0.64487  0.39241  1.0000
  C   C507      1.0  0.13372  0.50281  0.50588  1.0000
  C   C508      1.0  0.29593  0.93661  0.41186  1.0000
  H   H888      1.0  0.29995  0.93876  0.35954  1.0000
  H   H889      1.0  0.28258  0.96128  0.37290  1.0000
  H   H890      1.0  0.06165  0.66345  0.34295  1.0000
  H   H891      1.0  0.09175  0.96141  0.32360  1.0000
  H   H892      1.0  0.15774  0.61769  0.39972  1.0000
  H   H893      1.0  0.24566  0.88107  0.38365  1.0000
  Fe  Fe58      1.0  0.31193  0.64283  0.31727  1.0000
  H   H894      1.0  0.05105  0.94877  0.41235  1.0000
  H   H895      1.0  0.33471  0.89692  0.50487  1.0000
  H   H896      1.0  0.44314  0.69958  0.31627  1.0000
  H   H897      1.0  0.41082  0.97935  0.35579  1.0000
  C   C509      1.0  0.19723  0.97074  0.62514  1.0000
  H   H898      1.0  0.00542  0.76612  0.33398  1.0000
  H   H899      1.0  0.03322  0.69138  0.32210  1.0000
  S   S113      1.0  0.46016  0.97685  0.31283  1.0000
  H   H900      1.0  0.08120  0.98180  0.52913  1.0000
  H   H901      1.0  0.47638  0.50611  0.51516  1.0000
  H   H902      1.0  0.48062  0.88165  0.41241  1.0000
  C   C510      1.0  0.99373  0.74920  0.31560  1.0000
  C   C511      1.0  0.48026  0.48942  0.50191  1.0000
  C   C512      1.0  0.37295  0.49323  0.55342  1.0000
  H   H903      1.0  0.30150  0.87217  0.31838  1.0000
  C   C513      1.0  0.48576  0.57892  0.44726  1.0000
  S   S114      1.0  0.17535  0.48683  0.53670  1.0000
  H   H904      1.0  0.27893  0.48346  0.38103  1.0000
  C   C514      1.0  0.00843  0.72791  0.31302  1.0000
  H   H905      1.0  0.11629  0.49790  0.31185  1.0000
  H   H906      1.0  0.07184  0.98329  0.45687  1.0000
  S   S115      1.0  0.37800  0.73349  0.92456  1.0000
  S   S116      1.0  0.44903  0.83714  0.91135  1.0000
  H   H907      1.0  0.45724  0.52100  0.79837  1.0000
  Fe  Fe59      1.0  0.09606  0.59808  0.89763  1.0000
  S   S117      1.0  0.06133  0.54438  0.88443  1.0000
  S   S118      1.0  0.15280  0.61769  0.89259  1.0000
  S   S119      1.0  0.00818  0.97076  0.94482  1.0000
  H   H908      1.0  0.21853  0.62897  0.88707  1.0000
  H   H909      1.0  0.48223  0.95032  0.65499  1.0000
  Fe  Fe60      1.0  0.02452  0.53117  0.92709  1.0000
  H   H910      1.0  0.19566  0.97641  0.64951  1.0000
  Fe  Fe61      1.0  0.03618  0.56633  0.85658  1.0000
  S   S120      1.0  0.01862  0.54814  0.80873  1.0000
  S   S121      1.0  0.06051  0.58372  0.94221  1.0000
  S   S122      1.0  0.07310  0.62103  0.86676  1.0000
  C   C515      1.0  0.05491  0.59857  0.70080  1.0000
  C   C516      1.0  0.06914  0.61949  0.72458  1.0000
  C   C517      1.0  0.05853  0.60460  0.75766  1.0000
  C   C518      1.0  0.03347  0.56843  0.76741  1.0000
  C   C519      1.0  0.01882  0.54759  0.74362  1.0000
  C   C520      1.0  0.02943  0.56250  0.71051  1.0000
  H   H911      1.0  0.08837  0.64754  0.71730  1.0000
  H   H912      1.0  0.06941  0.62109  0.77560  1.0000
  S   S123      1.0  0.28330  0.70198  0.96781  1.0000
  C   C521      1.0  0.31334  0.61625  0.94476  1.0000
  C   C522      1.0  0.45963  0.87786  0.92059  1.0000
  H   H913      1.0  0.44665  0.54413  0.74813  1.0000
  H   H914      1.0  0.23343  0.65138  0.78011  1.0000
  H   H915      1.0  0.03833  0.64895  0.69250  1.0000
  H   H916      1.0  0.46981  0.50380  0.85031  1.0000
  C   C523      1.0  0.44918  0.88036  0.95080  1.0000
  H   H917      1.0  0.10770  0.53725  0.83231  1.0000
  H   H918      1.0  0.27698  0.70395  0.80131  1.0000
  H   H919      1.0  0.07260  0.52824  0.81055  1.0000
  C   C524      1.0  0.43964  0.66226  0.94149  1.0000
  C   C525      1.0  0.10096  0.54465  0.80923  1.0000
  H   H920      1.0  0.13379  0.55871  0.96571  1.0000
  H   H921      1.0  0.99559  0.59588  0.78468  1.0000
  H   H922      1.0  0.20652  0.56582  0.92216  1.0000
  C   C526      1.0  0.47990  0.90875  0.89712  1.0000
  H   H923      1.0  0.99356  0.59509  0.72566  1.0000
  C   C527      1.0  0.18929  0.64252  0.91295  1.0000
  C   C528      1.0  0.19004  0.66140  0.93631  1.0000
  C   C529      1.0  0.24836  0.68010  0.94494  1.0000
  C   C530      1.0  0.24789  0.66177  0.92112  1.0000
  C   C531      1.0  0.21864  0.64331  0.90517  1.0000
  H   H924      1.0  0.26990  0.66151  0.91521  1.0000
  S   S124      1.0  0.40646  0.66920  0.94105  1.0000
  Fe  Fe62      1.0  0.03480  0.60316  0.91097  1.0000
  C   C532      1.0  0.99619  0.67755  0.94001  1.0000
  C   C533      1.0  0.16532  0.69777  0.79554  1.0000
  H   H925      1.0  0.13958  0.61567  0.73608  1.0000
  S   S125      1.0  0.99650  0.54956  0.89900  1.0000
  H   H926      1.0  0.00526  0.64837  0.75023  1.0000
  H   H927      1.0  0.02224  0.69955  0.94067  1.0000
  C   C534      1.0  0.14012  0.70517  0.80809  1.0000
  C   C535      1.0  0.46101  0.62816  0.92670  1.0000
  H   H928      1.0  0.99919  0.51962  0.75088  1.0000
  H   H929      1.0  0.19837  0.59436  0.96260  1.0000
  H   H930      1.0  0.27760  0.66659  0.81671  1.0000
  H   H931      1.0  0.22078  0.69458  0.79784  1.0000
  H   H932      1.0  0.32670  0.64226  0.95240  1.0000
  C   C536      1.0  0.15008  0.65796  0.80431  1.0000
  H   H933      1.0  0.28813  0.94461  0.65047  1.0000
  C   C537      1.0  0.26224  0.67754  0.81712  1.0000
  H   H934      1.0  0.11571  0.68999  0.79773  1.0000
  H   H935      1.0  0.29048  0.61145  0.93407  1.0000
  H   H936      1.0  0.08910  0.71071  0.65939  1.0000
  S   S126      1.0  0.06946  0.61933  0.65957  1.0000
  H   H937      1.0  0.47131  0.70149  0.96960  1.0000
  C   C538      1.0  0.18234  0.65769  0.75644  1.0000
  C   C539      1.0  0.21940  0.68015  0.95198  1.0000
  H   H938      1.0  0.13448  0.64980  0.74349  1.0000
  S   S127      1.0  0.02522  0.64226  0.92813  1.0000
  C   C540      1.0  0.46800  0.68082  0.95790  1.0000
  C   C541      1.0  0.18022  0.55396  0.93398  1.0000
  Fe  Fe63      1.0  0.41386  0.78320  0.94414  1.0000
  H   H939      1.0  0.41476  0.62139  0.91303  1.0000
  H   H940      1.0  0.19845  0.66387  0.83431  1.0000
  C   C542      1.0  0.43553  0.51872  0.73974  1.0000
  C   C543      1.0  0.98992  0.64578  0.93337  1.0000
  H   H941      1.0  0.16549  0.52480  0.93704  1.0000
  H   H942      1.0  0.01805  0.54606  0.69257  1.0000
  H   H943      1.0  0.21984  0.69510  0.96959  1.0000
  H   H944      1.0  0.16567  0.59794  0.78835  1.0000
  C   C544      1.0  0.22792  0.65280  0.80528  1.0000
  H   H945      1.0  0.19994  0.68691  0.74946  1.0000
  H   H946      1.0  0.15132  0.73370  0.80113  1.0000
  H   H947      1.0  0.43366  0.85686  0.96910  1.0000
  C   C545      1.0  0.16645  0.66233  0.70017  1.0000
  H   H948      1.0  0.14474  0.65150  0.68570  1.0000
  H   H949      1.0  0.15793  0.60180  0.82847  1.0000
  H   H950      1.0  0.16809  0.66177  0.94217  1.0000
  H   H951      1.0  0.33078  0.61718  0.92597  1.0000
  H   H952      1.0  0.12493  0.64377  0.79527  1.0000
  C   C546      1.0  0.15293  0.64436  0.73545  1.0000
  H   H953      1.0  0.06615  0.73080  0.66173  1.0000
  H   H954      1.0  0.10207  0.58750  0.82338  1.0000
  H   H955      1.0  0.02596  0.67620  0.70082  1.0000
  C   C547      1.0  0.11466  0.58360  0.80355  1.0000
  H   H956      1.0  0.09023  0.67108  0.96875  1.0000
  H   H957      1.0  0.17911  0.69119  0.69755  1.0000
  H   H958      1.0  0.11149  0.53894  0.78913  1.0000
  C   C548      1.0  0.15414  0.60764  0.80317  1.0000
  H   H959      1.0  0.14389  0.65013  0.83105  1.0000
  N   N31       1.0  0.17217  0.64698  0.79250  1.0000
  H   H960      1.0  0.45801  0.60781  0.91460  1.0000
  H   H961      1.0  0.44152  0.52431  0.71309  1.0000
  H   H962      1.0  0.21553  0.62618  0.82023  1.0000
  H   H963      1.0  0.13469  0.69796  0.83479  1.0000
  H   H964      1.0  0.10630  0.58928  0.78105  1.0000
  Fe  Fe64      1.0  0.39739  0.70843  0.95823  1.0000
  C   C549      1.0  0.20463  0.66587  0.80808  1.0000
  C   C550      1.0  0.02158  0.65730  0.68505  1.0000
  H   H965      1.0  0.17102  0.70681  0.76905  1.0000
  H   H966      1.0  0.16782  0.56315  0.91798  1.0000
  H   H967      1.0  0.19740  0.64807  0.74837  1.0000
  H   H968      1.0  0.18910  0.71385  0.80647  1.0000
  H   H969      1.0  0.25833  0.68059  0.84217  1.0000
  C   C551      1.0  0.45890  0.91336  0.95738  1.0000
  H   H970      1.0  0.18488  0.65739  0.69044  1.0000
  C   C552      1.0  0.18199  0.56519  0.96661  1.0000
  C   C553      1.0  0.43645  0.63594  0.92589  1.0000
  H   H971      1.0  0.01405  0.80708  0.96457  1.0000
  Fe  Fe65      1.0  0.33902  0.71861  0.96647  1.0000
  C   C554      1.0  0.45041  0.49941  0.75476  1.0000
  H   H972      1.0  0.34895  0.59056  0.96933  1.0000
  H   H973      1.0  0.00061  0.59750  0.66729  1.0000
  H   H974      1.0  0.28843  0.56164  0.96438  1.0000
  C   C555      1.0  0.03617  0.67802  0.64997  1.0000
  C   C556      1.0  0.06998  0.71397  0.64866  1.0000
  S   S128      1.0  0.43582  0.75918  0.97447  1.0000
  H   H975      1.0  0.47787  0.51513  0.74478  1.0000
  C   C557      1.0  0.47912  0.94421  0.93391  1.0000
  H   H976      1.0  0.40728  0.50228  0.74620  1.0000
  C   C558      1.0  0.44553  0.49439  0.79194  1.0000
  H   H977      1.0  0.04264  0.84870  0.97712  1.0000
  H   H978      1.0  0.99158  0.69379  0.67586  1.0000
  C   C559      1.0  0.30239  0.58690  0.97347  1.0000
  C   C560      1.0  0.78094  0.18268  0.18226  1.0000
  Fe  Fe66      1.0  0.59997  0.23478  0.10848  1.0000
  S   S129      1.0  0.57633  0.19260  0.07778  1.0000
  S   S130      1.0  0.63946  0.29340  0.09059  1.0000
  Fe  Fe67      1.0  0.56584  0.18161  0.16910  1.0000
  S   S131      1.0  0.53892  0.13504  0.14410  1.0000
  S   S132      1.0  0.55915  0.17251  0.22266  1.0000
  Fe  Fe68      1.0  0.58991  0.16296  0.11349  1.0000
  S   S133      1.0  0.61032  0.13160  0.09914  1.0000
  Fe  Fe69      1.0  0.52702  0.16728  0.11133  1.0000
  H   H979      1.0  0.93124  0.14506  0.02132  1.0000
  S   S134      1.0  0.61723  0.20727  0.14095  1.0000
  S   S135      1.0  0.55029  0.21197  0.13915  1.0000
  S   S136      1.0  0.87954  0.22370  0.20052  1.0000
  Fe  Fe70      1.0  0.86689  0.20295  0.01313  1.0000
  H   H980      1.0  0.62243  0.05295  0.19742  1.0000
  S   S137      1.0  0.85347  0.17454  0.06500  1.0000
  H   H981      1.0  0.95998  0.33026  0.20503  1.0000
  H   H982      1.0  0.59449  0.99980  0.29615  1.0000
  C   C561      1.0  0.85329  0.28797  0.20825  1.0000
  S   S138      1.0  0.72801  0.46161  0.26508  1.0000
  H   H983      1.0  0.55395  0.01446  0.04972  1.0000
  H   H984      1.0  0.68487  0.48067  0.06414  1.0000
  H   H985      1.0  0.80525  0.20672  0.18649  1.0000
  H   H986      1.0  0.72899  0.11884  0.05017  1.0000
  S   S139      1.0  0.75014  0.04583  0.12708  1.0000
  S   S140      1.0  0.64118  0.41240  0.14982  1.0000
  C   C562      1.0  0.70121  0.47339  0.05390  1.0000
  S   S141      1.0  0.75664  0.05762  0.20200  1.0000
  H   H987      1.0  0.76366  0.26297  0.97896  1.0000
  Fe  Fe71      1.0  0.72229  0.05432  0.16494  1.0000
  S   S142      1.0  0.70769  0.09380  0.16345  1.0000
  Fe  Fe72      1.0  0.78211  0.04531  0.16544  1.0000
  S   S143      1.0  0.84048  0.07542  0.16699  1.0000
  C   C563      1.0  0.64342  0.06406  0.25552  1.0000
  H   H988      1.0  0.77133  0.99285  0.25200  1.0000
  C   C564      1.0  0.93283  0.19150  0.15121  1.0000
  H   H989      1.0  0.73397  0.15768  0.10154  1.0000
  H   H990      1.0  0.63296  0.06119  0.98407  1.0000
  H   H991      1.0  0.78329  0.15064  0.09613  1.0000
  H   H992      1.0  0.79002  0.16777  0.05355  1.0000
  H   H993      1.0  0.63533  0.11840  0.23420  1.0000
  C   C565      1.0  0.72470  0.20782  0.10292  1.0000
  H   H994      1.0  0.82520  0.28592  0.06553  1.0000
  Fe  Fe73      1.0  0.86254  0.18760  0.24951  1.0000
  H   H995      1.0  0.85509  0.28980  0.01428  1.0000
  H   H996      1.0  0.72444  0.24834  0.12287  1.0000
  H   H997      1.0  0.94074  0.31181  0.07551  1.0000
  H   H998      1.0  0.78550  0.16254  0.17839  1.0000
  C   C566      1.0  0.61128  0.16096  0.01422  1.0000
  C   C567      1.0  0.60920  0.00773  0.23459  1.0000
  H   H999      1.0  0.84407  0.46309  0.24911  1.0000
  S   S144      1.0  0.84051  0.22530  0.98831  1.0000
  C   C568      1.0  0.86934  0.20912  0.16337  1.0000
  C   C569      1.0  0.85176  0.17353  0.16120  1.0000
  C   C570      1.0  0.84663  0.16339  0.13085  1.0000
  C   C571      1.0  0.85855  0.18861  0.10250  1.0000
  C   C572      1.0  0.87471  0.22406  0.10478  1.0000
  C   C573      1.0  0.88027  0.23428  0.13510  1.0000
  H   H1000     1.0  0.84308  0.15381  0.18274  1.0000
  H   H1001     1.0  0.83398  0.13583  0.12937  1.0000
  H   H1002     1.0  0.88347  0.24356  0.08320  1.0000
  H   H1003     1.0  0.89361  0.26185  0.13664  1.0000
  H   H1004     1.0  0.89226  0.28408  0.22589  1.0000
  C   C574      1.0  0.94327  0.12325  0.14390  1.0000
  C   C575      1.0  0.91057  0.10931  0.16020  1.0000
  C   C576      1.0  0.88105  0.09285  0.14456  1.0000
  C   C577      1.0  0.88476  0.09001  0.11235  1.0000
  C   C578      1.0  0.91747  0.10374  0.09611  1.0000
  H   H1005     1.0  0.94979  0.18431  0.16056  1.0000
  H   H1006     1.0  0.90815  0.11176  0.18508  1.0000
  H   H1007     1.0  0.86247  0.07750  0.09986  1.0000
  H   H1008     1.0  0.91988  0.10151  0.07117  1.0000
  C   C579      1.0  0.63470  0.11865  0.11938  1.0000
  C   C580      1.0  0.64066  0.09603  0.10654  1.0000
  C   C581      1.0  0.66149  0.08669  0.12052  1.0000
  C   C582      1.0  0.67746  0.10064  0.14712  1.0000
  C   C583      1.0  0.67075  0.12255  0.16045  1.0000
  C   C584      1.0  0.64929  0.13123  0.14693  1.0000
  H   H1009     1.0  0.62940  0.08592  0.08537  1.0000
  H   H1010     1.0  0.66580  0.06938  0.11019  1.0000
  H   H1011     1.0  0.68260  0.13327  0.18121  1.0000
  H   H1012     1.0  0.64479  0.14838  0.15733  1.0000
  C   C585      1.0  0.64019  0.32551  0.10924  1.0000
  C   C586      1.0  0.61041  0.31867  0.12530  1.0000
  C   C587      1.0  0.61117  0.34563  0.13746  1.0000
  C   C588      1.0  0.64197  0.37919  0.13505  1.0000
  C   C589      1.0  0.67213  0.38559  0.12043  1.0000
  C   C590      1.0  0.67108  0.35904  0.10701  1.0000
  H   H1013     1.0  0.58661  0.29290  0.12762  1.0000
  H   H1014     1.0  0.58777  0.34051  0.14874  1.0000
  H   H1015     1.0  0.69605  0.41126  0.11859  1.0000
  H   H1016     1.0  0.69427  0.36454  0.09473  1.0000
  H   H1017     1.0  0.64689  0.31172  0.17653  1.0000
  H   H1018     1.0  0.66287  0.00604  0.24422  1.0000
  C   C591      1.0  0.61228  0.06553  0.26153  1.0000
  C   C592      1.0  0.55311  0.13169  0.22977  1.0000
  C   C593      1.0  0.57072  0.12501  0.20821  1.0000
  C   C594      1.0  0.56163  0.09076  0.20922  1.0000
  C   C595      1.0  0.76702  0.19120  0.15320  1.0000
  H   H1019     1.0  0.98205  0.41507  0.00365  1.0000
  H   H1020     1.0  0.59099  0.14613  0.19017  1.0000
  H   H1021     1.0  0.57527  0.08573  0.19244  1.0000
  H   H1022     1.0  0.98124  0.10738  0.24692  1.0000
  H   H1023     1.0  0.80689  0.03608  0.23232  1.0000
  H   H1024     1.0  0.96568  0.13647  0.15610  1.0000
  H   H1025     1.0  0.96324  0.31818  0.27749  1.0000
  C   C596      1.0  0.50578  0.20053  0.99786  1.0000
  H   H1026     1.0  0.63585  0.37955  0.24832  1.0000
  S   S145      1.0  0.67820  0.48015  0.20287  1.0000
  C   C597      1.0  0.97257  0.05065  0.11478  1.0000
  H   H1027     1.0  0.71444  0.10620  0.25743  1.0000
  H   H1028     1.0  0.90592  0.16850  0.15898  1.0000
  S   S146      1.0  0.84599  0.20676  0.28690  1.0000
  H   H1029     1.0  0.51191  0.06044  0.14992  1.0000
  C   C598      1.0  0.64093  0.28532  0.18503  1.0000
  C   C599      1.0  0.96463  0.22603  0.04569  1.0000
  H   H1030     1.0  0.85029  0.27519  0.08799  1.0000
  C   C600      1.0  0.96813  0.09324  0.22725  1.0000
  C   C601      1.0  0.62083  0.00721  0.29027  1.0000
  H   H1031     1.0  0.80217  0.23031  0.04079  1.0000
  H   H1032     1.0  0.98499  0.33335  0.08167  1.0000
  C   C602      1.0  0.71196  0.23102  0.10492  1.0000
  C   C603      1.0  0.79953  0.01215  0.24959  1.0000
  C   C604      1.0  0.88364  0.30137  0.22739  1.0000
  C   C605      1.0  0.55455  0.02425  0.02414  1.0000
  H   H1033     1.0  0.57472  0.09559  0.99931  1.0000
  C   C606      1.0  0.74335  0.11740  0.06970  1.0000
  H   H1034     1.0  0.74704  0.10011  0.26620  1.0000
  C   C607      1.0  0.81691  0.99578  0.23780  1.0000
  H   H1035     1.0  0.72545  0.10099  0.09210  1.0000
  H   H1036     1.0  0.65887  0.08172  0.23222  1.0000
  C   C608      1.0  0.94703  0.12075  0.11163  1.0000
  H   H1037     1.0  0.74504  0.17776  0.06033  1.0000
  H   H1038     1.0  0.66079  0.05554  0.00757  1.0000
  C   C609      1.0  0.59533  0.47306  0.13263  1.0000
  H   H1039     1.0  0.53544  0.25991  0.09522  1.0000
  N   N32       1.0  0.78063  0.21104  0.09091  1.0000
  H   H1040     1.0  0.95217  0.02244  0.12446  1.0000
  H   H1041     1.0  0.55784  0.13399  0.01147  1.0000
  H   H1042     1.0  0.59807  0.05074  0.28584  1.0000
  H   H1043     1.0  0.84695  0.01890  0.17024  1.0000
  H   H1044     1.0  0.57345  0.36583  0.25612  1.0000
  C   C610      1.0  0.67225  0.28629  0.17404  1.0000
  C   C611      1.0  0.95213  0.30787  0.25564  1.0000
  H   H1045     1.0  0.61911  0.99929  0.99293  1.0000
  C   C612      1.0  0.57382  0.37799  0.23157  1.0000
  C   C613      1.0  0.98409  0.40262  0.17984  1.0000
  C   C614      1.0  0.72429  0.09043  0.25337  1.0000
  H   H1046     1.0  0.90270  0.35606  0.21062  1.0000
  H   H1047     1.0  0.97059  0.18700  0.27362  1.0000
  H   H1048     1.0  0.71713  0.24745  0.08104  1.0000
  H   H1049     1.0  0.68384  0.21398  0.11253  1.0000
  C   C615      1.0  0.61719  0.02652  0.19912  1.0000
  H   H1050     1.0  0.62250  0.23714  0.28033  1.0000
  H   H1051     1.0  0.97318  0.17027  0.20616  1.0000
  H   H1052     1.0  0.80543  0.19397  0.12194  1.0000
  H   H1053     1.0  0.52646  0.28504  0.98005  1.0000
  S   S147      1.0  0.68358  0.99655  0.18322  1.0000
  C   C616      1.0  0.54801  0.28317  0.07542  1.0000
  Fe  Fe74      1.0  0.71915  0.99922  0.21798  1.0000
  H   H1054     1.0  0.95904  0.26602  0.26624  1.0000
  H   H1055     1.0  0.83546  0.45381  0.17531  1.0000
  C   C617      1.0  0.53533  0.06325  0.23230  1.0000
  H   H1056     1.0  0.96666  0.11158  0.20913  1.0000
  C   C618      1.0  0.96483  0.31470  0.06812  1.0000
  C   C619      1.0  0.66815  0.03217  0.24554  1.0000
  H   H1057     1.0  0.84737  0.00179  0.11813  1.0000
  H   H1058     1.0  0.63956  0.02923  0.18675  1.0000
  S   S148      1.0  0.90159  0.18768  0.27780  1.0000
  H   H1059     1.0  0.95563  0.40890  0.21477  1.0000
  H   H1060     1.0  0.55857  0.40884  0.24871  1.0000
  H   H1061     1.0  0.98346  0.08546  0.21577  1.0000
  H   H1062     1.0  0.56843  0.22405  0.26114  1.0000
  H   H1063     1.0  0.91790  0.32841  0.27948  1.0000
  H   H1064     1.0  0.93534  0.15224  0.23413  1.0000
  H   H1065     1.0  0.61509  0.18622  0.01661  1.0000
  H   H1066     1.0  0.92921  0.17632  0.10496  1.0000
  H   H1067     1.0  0.79186  0.46662  0.25863  1.0000
  C   C620      1.0  0.52662  0.24356  0.03382  1.0000
  H   H1068     1.0  0.77744  0.40689  0.16981  1.0000
  H   H1069     1.0  0.52925  0.44012  0.24543  1.0000
  N   N33       1.0  0.60535  0.27844  0.23768  1.0000
  C   C621      1.0  0.57919  0.27295  0.21562  1.0000
  C   C622      1.0  0.63070  0.27320  0.22207  1.0000
  C   C623      1.0  0.58627  0.25046  0.26774  1.0000
  C   C624      1.0  0.62343  0.31400  0.24776  1.0000
  C   C625      1.0  0.64205  0.34679  0.22053  1.0000
  C   C626      1.0  0.55176  0.27804  0.22829  1.0000
  H   H1070     1.0  0.80723  0.98696  0.21503  1.0000
  H   H1071     1.0  0.71202  0.03855  0.26601  1.0000
  C   C627      1.0  0.77106  0.15416  0.07562  1.0000
  C   C628      1.0  0.65642  0.38055  0.23418  1.0000
  C   C629      1.0  0.52483  0.26807  0.20545  1.0000
  C   C630      1.0  0.58365  0.43281  0.19795  1.0000
  H   H1072     1.0  0.56582  0.24598  0.20963  1.0000
  H   H1073     1.0  0.59153  0.29121  0.19221  1.0000
  H   H1074     1.0  0.65449  0.28597  0.23375  1.0000
  H   H1075     1.0  0.56844  0.13206  0.05158  1.0000
  C   C631      1.0  0.96845  0.39519  0.21526  1.0000
  H   H1076     1.0  0.62931  0.15853  0.02819  1.0000
  H   H1077     1.0  0.60513  0.31543  0.26323  1.0000
  H   H1078     1.0  0.64329  0.31774  0.26304  1.0000
  H   H1079     1.0  0.62457  0.34538  0.20331  1.0000
  H   H1080     1.0  0.66425  0.34961  0.20762  1.0000
  H   H1081     1.0  0.53785  0.26128  0.25207  1.0000
  H   H1082     1.0  0.56383  0.30602  0.23032  1.0000
  C   C632      1.0  0.54623  0.45377  0.19306  1.0000
  H   H1083     1.0  0.67771  0.29307  0.14734  1.0000
  C   C633      1.0  0.52016  0.06446  0.09806  1.0000
  H   H1084     1.0  0.97890  0.09346  0.99416  1.0000
  H   H1085     1.0  0.81405  0.23471  0.12702  1.0000
  H   H1086     1.0  0.96396  0.39379  0.16369  1.0000
  S   S149      1.0  0.82098  0.13032  0.26911  1.0000
  H   H1087     1.0  0.66857  0.40352  0.21410  1.0000
  H   H1088     1.0  0.87420  0.29830  0.25277  1.0000
  H   H1089     1.0  0.49476  0.16789  0.23092  1.0000
  H   H1090     1.0  0.50610  0.27300  0.21438  1.0000
  H   H1091     1.0  0.53687  0.28389  0.18085  1.0000
  H   H1092     1.0  0.51078  0.23960  0.20439  1.0000
  H   H1093     1.0  0.61735  0.16170  0.98841  1.0000
  H   H1094     1.0  0.51512  0.40285  0.22589  1.0000
  H   H1095     1.0  0.62011  0.24458  0.22597  1.0000
  H   H1096     1.0  0.64224  0.11703  0.27609  1.0000
  H   H1097     1.0  0.50231  0.26671  0.05431  1.0000
  C   C634      1.0  0.62355  0.10358  0.25916  1.0000
  H   H1098     1.0  0.76067  0.20950  0.15895  1.0000
  H   H1099     1.0  0.96062  0.06259  0.10205  1.0000
  H   H1100     1.0  0.71808  0.19152  0.12693  1.0000
  H   H1101     1.0  0.83274  0.26007  0.21899  1.0000
  C   C635      1.0  0.54026  0.20560  0.98905  1.0000
  H   H1102     1.0  0.54880  0.35986  0.22317  1.0000
  H   H1103     1.0  0.86319  0.04561  0.21423  1.0000
  C   C636      1.0  0.69793  0.05087  0.26624  1.0000
  H   H1104     1.0  0.87943  0.27748  0.03650  1.0000
  H   H1105     1.0  0.52733  0.03972  0.99461  1.0000
  H   H1106     1.0  0.93813  0.21717  0.05353  1.0000
  H   H1107     1.0  0.88901  0.03247  0.15485  1.0000
  H   H1108     1.0  0.70999  0.18994  0.08593  1.0000
  H   H1109     1.0  0.92415  0.28890  0.26244  1.0000
  H   H1110     1.0  0.59476  0.05420  0.24339  1.0000
  H   H1111     1.0  0.58588  0.46755  0.24589  1.0000
  H   H1112     1.0  0.59372  0.01945  0.15520  1.0000
  H   H1113     1.0  0.53563  0.43921  0.17296  1.0000
  H   H1114     1.0  0.65965  0.07653  0.27442  1.0000
  H   H1115     1.0  0.87828  0.99626  0.27530  1.0000
  H   H1116     1.0  0.54585  0.47744  0.18716  1.0000
  H   H1117     1.0  0.92907  0.03036  0.20505  1.0000
  H   H1118     1.0  0.74340  0.16636  0.15014  1.0000
  C   C637      1.0  0.65263  0.05566  0.98329  1.0000
  H   H1119     1.0  0.91840  0.07061  0.25144  1.0000
  H   H1120     1.0  0.56404  0.41294  0.18468  1.0000
  C   C638      1.0  0.83751  0.27176  0.06602  1.0000
  H   H1121     1.0  0.76001  0.42486  0.19194  1.0000
  H   H1122     1.0  0.48699  0.12238  0.20840  1.0000
  Fe  Fe75      1.0  0.85948  0.13183  0.30054  1.0000
  Fe  Fe76      1.0  0.68868  0.46290  0.15972  1.0000
  H   H1123     1.0  0.97181  0.24266  0.02138  1.0000
  H   H1124     1.0  0.58081  0.04790  0.01501  1.0000
  H   H1125     1.0  0.77699  0.25141  0.10593  1.0000
  H   H1126     1.0  0.55385  0.20914  0.01055  1.0000
  C   C639      1.0  0.51820  0.07004  0.25436  1.0000
  N   N34       1.0  0.58236  0.46464  0.19487  1.0000
  C   C640      1.0  0.79342  0.20831  0.12259  1.0000
  H   H1127     1.0  0.54157  0.29823  0.02778  1.0000
  H   H1128     1.0  0.93711  0.21399  0.16172  1.0000
  C   C641      1.0  0.95888  0.27865  0.07527  1.0000
  H   H1129     1.0  0.53772  0.09345  0.09367  1.0000
  H   H1130     1.0  0.84287  0.30388  0.20890  1.0000
  H   H1131     1.0  0.67821  0.04665  0.22048  1.0000
  C   C642      1.0  0.75608  0.17505  0.08240  1.0000
  H   H1132     1.0  0.58830  0.09399  0.03755  1.0000
  H   H1133     1.0  0.60394  0.42997  0.24304  1.0000
  H   H1134     1.0  0.76661  0.24398  0.06638  1.0000
  H   H1135     1.0  0.59582  0.44950  0.13458  1.0000
  H   H1136     1.0  0.76191  0.17164  0.20412  1.0000
  C   C643      1.0  0.86580  0.29027  0.03725  1.0000
  C   C644      1.0  0.97122  0.40946  0.98137  1.0000
  H   H1137     1.0  0.51476  0.22054  0.05397  1.0000
  C   C645      1.0  0.56819  0.09430  0.02531  1.0000
  H   H1138     1.0  0.80100  0.43052  0.29875  1.0000
  H   H1139     1.0  0.93835  0.26144  0.06140  1.0000
  C   C646      1.0  0.93085  0.16758  0.02605  1.0000
  C   C647      1.0  0.90618  0.36908  0.30760  1.0000
  H   H1140     1.0  0.66754  0.26016  0.18186  1.0000
  H   H1141     1.0  0.51008  0.07829  0.00460  1.0000
  N   N35       1.0  0.50856  0.23283  0.00457  1.0000
  H   H1142     1.0  0.86107  0.28887  0.18286  1.0000
  H   H1143     1.0  0.73287  0.09566  0.22730  1.0000
  C   C648      1.0  0.96246  0.33929  0.22855  1.0000
  C   C649      1.0  0.57993  0.41363  0.23238  1.0000
  H   H1144     1.0  0.50811  0.08743  0.04369  1.0000
  H   H1145     1.0  0.89231  0.36171  0.26032  1.0000
  N   N36       1.0  0.87685  0.00868  0.22438  1.0000
  N   N37       1.0  0.94403  0.35680  0.23100  1.0000
  C   C650      1.0  0.85645  0.02272  0.23277  1.0000
  H   H1146     1.0  0.88475  0.31828  0.03920  1.0000
  C   C651      1.0  0.91383  0.03928  0.21456  1.0000
  C   C652      1.0  0.93232  0.06084  0.24104  1.0000
  H   H1147     1.0  0.56965  0.46541  0.12734  1.0000
  S   S150      1.0  0.73537  0.46933  0.17619  1.0000
  S   S151      1.0  0.52980  0.46921  0.30550  1.0000
  C   C653      1.0  0.86414  0.98891  0.19680  1.0000
  H   H1148     1.0  0.75544  0.10440  0.06253  1.0000
  C   C654      1.0  0.81116  0.23195  0.06487  1.0000
  H   H1149     1.0  0.82599  0.22034  0.06551  1.0000
  S   S152      1.0  0.52589  0.02103  0.23593  1.0000
  H   H1150     1.0  0.92486  0.21136  0.10657  1.0000
  H   H1151     1.0  0.86327  0.03347  0.25541  1.0000
  H   H1152     1.0  0.95020  0.26849  0.10146  1.0000
  C   C655      1.0  0.76380  0.23033  0.09122  1.0000
  C   C656      1.0  0.86293  0.00945  0.16556  1.0000
  H   H1153     1.0  0.81022  0.43405  0.21460  1.0000
  H   H1154     1.0  0.91594  0.05835  0.19429  1.0000
  H   H1155     1.0  0.93500  0.04470  0.26068  1.0000
  H   H1156     1.0  0.68889  0.04688  0.29183  1.0000
  C   C657      1.0  0.52767  0.03268  0.02076  1.0000
  C   C658      1.0  0.91321  0.34007  0.21315  1.0000
  H   H1157     1.0  0.60856  0.44022  0.18596  1.0000
  H   H1158     1.0  0.51113  0.01956  0.08053  1.0000
  H   H1159     1.0  0.55357  0.25223  0.02862  1.0000
  S   S153      1.0  0.86528  0.08550  0.30820  1.0000
  Fe  Fe77      1.0  0.51342  0.00317  0.28890  1.0000
  C   C659      1.0  0.52723  0.10432  0.25328  1.0000
  H   H1160     1.0  0.57475  0.29205  0.06849  1.0000
  H   H1161     1.0  0.92078  0.33995  0.18802  1.0000
  N   N38       1.0  0.53284  0.06111  0.03829  1.0000
  H   H1162     1.0  0.69134  0.46205  0.03203  1.0000
  C   C660      1.0  0.84763  0.98615  0.14017  1.0000
  H   H1163     1.0  0.98537  0.20058  0.02408  1.0000
  H   H1164     1.0  0.55494  0.05333  0.07978  1.0000
  C   C661      1.0  0.52826  0.27401  0.04651  1.0000
  H   H1165     1.0  0.92993  0.18117  0.00291  1.0000
  C   C662      1.0  0.53030  0.04868  0.07390  1.0000
  H   H1166     1.0  0.57002  0.25541  0.28202  1.0000
  C   C663      1.0  0.80837  0.45684  0.30253  1.0000
  H   H1167     1.0  0.51315  0.10917  0.26967  1.0000
  H   H1168     1.0  0.90737  0.15705  0.04287  1.0000
  H   H1169     1.0  0.94567  0.35293  0.99488  1.0000
  C   C664      1.0  0.96285  0.19289  0.04074  1.0000
  C   C665      1.0  0.78232  0.43173  0.17541  1.0000
  C   C666      1.0  0.81491  0.45106  0.19134  1.0000
  C   C667      1.0  0.91613  0.37356  0.27172  1.0000
  H   H1170     1.0  0.61945  0.26648  0.17266  1.0000
  H   H1171     1.0  0.97183  0.98906  0.06514  1.0000
  H   H1172     1.0  0.67619  0.38472  0.24980  1.0000
  H   H1173     1.0  0.59448  0.38133  0.21514  1.0000
  H   H1174     1.0  0.80683  0.01955  0.27343  1.0000
  H   H1175     1.0  0.48779  0.19679  0.27141  1.0000
  H   H1176     1.0  0.69504  0.30663  0.18402  1.0000
  C   C668      1.0  0.57420  0.13023  0.02680  1.0000
  N   N39       1.0  0.63546  0.02788  0.25642  1.0000
  C   C669      1.0  0.52007  0.42928  0.22330  1.0000
  H   H1177     1.0  0.60093  0.10378  0.26529  1.0000
  H   H1178     1.0  0.93294  0.40237  0.26234  1.0000
  C   C670      1.0  0.81536  0.48039  0.27033  1.0000
  H   H1179     1.0  0.75645  0.02026  0.28828  1.0000
  H   H1180     1.0  0.58353  0.00021  0.24443  1.0000
  H   H1181     1.0  0.54762  0.05995  0.13651  1.0000
  H   H1182     1.0  0.77907  0.23597  0.98944  1.0000
  H   H1183     1.0  0.54881  0.30486  0.08433  1.0000
  C   C671      1.0  0.93961  0.20101  0.11451  1.0000
  H   H1184     1.0  0.69944  0.45285  0.07210  1.0000
  H   H1185     1.0  0.80191  0.28014  0.99794  1.0000
  H   H1186     1.0  0.49250  0.17901  0.01933  1.0000
  C   C672      1.0  0.52105  0.05065  0.13269  1.0000
  H   H1187     1.0  0.50231  0.00732  0.02949  1.0000
  H   H1188     1.0  0.56407  0.00285  0.19133  1.0000
  H   H1189     1.0  0.95815  0.36871  0.27803  1.0000
  C   C673      1.0  0.50584  0.06717  0.03073  1.0000
  H   H1190     1.0  0.56516  0.98833  0.00972  1.0000
  H   H1191     1.0  0.49743  0.04869  0.27193  1.0000
  C   C674      1.0  0.96585  0.28734  0.24587  1.0000
  C   C675      1.0  0.74015  0.00022  0.30908  1.0000
  H   H1192     1.0  0.63527  0.02374  0.30791  1.0000
  C   C676      1.0  0.60859  0.24666  0.29139  1.0000
  H   H1193     1.0  0.96270  0.17862  0.06377  1.0000
  C   C677      1.0  0.58707  0.00545  0.18054  1.0000
  H   H1194     1.0  0.51728  0.14916  0.99559  1.0000
  H   H1195     1.0  0.49381  0.05700  0.09645  1.0000
  S   S154      1.0  0.91988  0.24704  0.98870  1.0000
  H   H1196     1.0  0.48877  0.44944  0.21815  1.0000
  C   C678      1.0  0.93465  0.35583  0.26583  1.0000
  H   H1197     1.0  0.49841  0.22694  0.15046  1.0000
  H   H1198     1.0  0.95403  0.27496  0.22493  1.0000
  H   H1199     1.0  0.98094  0.15773  0.26306  1.0000
  H   H1200     1.0  0.48819  0.07453  0.19341  1.0000
  H   H1201     1.0  0.97252  0.32574  0.04191  1.0000
  H   H1202     1.0  0.69257  0.15860  0.98175  1.0000
  C   C679      1.0  0.78693  0.26323  0.98048  1.0000
  C   C680      1.0  0.96214  0.17560  0.22617  1.0000
  C   C681      1.0  0.97849  0.22768  0.10277  1.0000
  H   H1203     1.0  0.78487  0.44833  0.15258  1.0000
  H   H1204     1.0  0.92267  0.99088  0.24983  1.0000
  H   H1205     1.0  0.61969  0.45568  0.29561  1.0000
  S   S155      1.0  0.74584  0.98626  0.18384  1.0000
  H   H1206     1.0  0.62758  0.27200  0.29883  1.0000
  Fe  Fe78      1.0  0.80620  0.14939  0.30865  1.0000
  H   H1207     1.0  0.98419  0.06458  0.13503  1.0000
  H   H1208     1.0  0.50423  0.02138  0.13823  1.0000
  H   H1209     1.0  0.96161  0.19870  0.21743  1.0000
  H   H1210     1.0  0.50690  0.17477  0.28692  1.0000
  H   H1211     1.0  0.65891  0.45922  0.29861  1.0000
  C   C682      1.0  0.73186  0.47770  0.30127  1.0000
  Fe  Fe79      1.0  0.71256  0.98737  0.14794  1.0000
  C   C683      1.0  0.54731  0.99583  0.00499  1.0000
  C   C684      1.0  0.64458  0.47017  0.30507  1.0000
  C   C685      1.0  0.87288  0.98376  0.25358  1.0000
  H   H1212     1.0  0.48931  0.18955  0.97862  1.0000
  C   C686      1.0  0.98295  0.18229  0.25432  1.0000
  H   H1213     1.0  0.55100  0.00603  0.97883  1.0000
  C   C687      1.0  0.63977  0.46815  0.34208  1.0000
  H   H1214     1.0  0.84585  0.05263  0.46733  1.0000
  H   H1215     1.0  0.65864  0.42840  0.34488  1.0000
  H   H1216     1.0  0.55781  0.18480  0.47923  1.0000
  H   H1217     1.0  0.84192  0.47528  0.37210  1.0000
  C   C688      1.0  0.81781  0.44467  0.43468  1.0000
  Fe  Fe80      1.0  0.68322  0.46285  0.51240  1.0000
  S   S156      1.0  0.93869  0.37756  0.38950  1.0000
  C   C689      1.0  0.72630  0.46693  0.36009  1.0000
  C   C690      1.0  0.66167  0.10547  0.60204  1.0000
  C   C691      1.0  0.59936  0.35091  0.53045  1.0000
  H   H1218     1.0  0.65015  0.45105  0.40030  1.0000
  S   S157      1.0  0.53862  0.04477  0.31957  1.0000
  C   C692      1.0  0.52019  0.36623  0.56355  1.0000
  H   H1219     1.0  0.54421  0.22976  0.60100  1.0000
  H   H1220     1.0  0.88083  0.30568  0.39112  1.0000
  H   H1221     1.0  0.64415  0.39349  0.39698  1.0000
  H   H1222     1.0  0.65317  0.02075  0.37264  1.0000
  H   H1223     1.0  0.91964  0.11731  0.46234  1.0000
  H   H1224     1.0  0.52937  0.12147  0.47146  1.0000
  S   S158      1.0  0.84243  0.14798  0.34132  1.0000
  Fe  Fe81      1.0  0.88248  0.20392  0.31626  1.0000
  Fe  Fe82      1.0  0.53324  0.08333  0.62113  1.0000
  S   S159      1.0  0.51872  0.05286  0.58003  1.0000
  Fe  Fe83      1.0  0.57584  0.15535  0.57639  1.0000
  S   S160      1.0  0.56515  0.13029  0.53240  1.0000
  S   S161      1.0  0.60702  0.21299  0.58313  1.0000
  Fe  Fe84      1.0  0.51018  0.09288  0.55626  1.0000
  S   S162      1.0  0.94835  0.03430  0.53069  1.0000
  Fe  Fe85      1.0  0.57443  0.09180  0.55930  1.0000
  S   S163      1.0  0.61064  0.08192  0.53290  1.0000
  S   S164      1.0  0.52070  0.12031  0.59870  1.0000
  S   S165      1.0  0.58904  0.11985  0.60187  1.0000
  C   C693      1.0  0.68457  0.11374  0.32949  1.0000
  C   C694      1.0  0.63061  0.41069  0.35293  1.0000
  C   C695      1.0  0.57213  0.13412  0.34027  1.0000
  Fe  Fe86      1.0  0.70084  0.41431  0.49007  1.0000
  H   H1225     1.0  0.90645  0.01008  0.33126  1.0000
  S   S166      1.0  0.67877  0.35804  0.48269  1.0000
  H   H1226     1.0  0.50262  0.34839  0.54782  1.0000
  H   H1227     1.0  0.77824  0.02423  0.34099  1.0000
  H   H1228     1.0  0.50411  0.04514  0.43706  1.0000
  C   C696      1.0  0.60643  0.36087  0.58588  1.0000
  S   S167      1.0  0.67210  0.43576  0.46982  1.0000
  S   S168      1.0  0.75156  0.46021  0.46226  1.0000
  C   C697      1.0  0.84567  0.02219  0.53861  1.0000
  H   H1229     1.0  0.73190  0.05105  0.53545  1.0000
  C   C698      1.0  0.60500  0.99020  0.55344  1.0000
  C   C699      1.0  0.90940  0.03079  0.53390  1.0000
  C   C700      1.0  0.90332  0.04871  0.55392  1.0000
  C   C701      1.0  0.87161  0.04438  0.55624  1.0000
  H   H1230     1.0  0.86352  0.02241  0.31781  1.0000
  H   H1231     1.0  0.87756  0.47343  0.54268  1.0000
  H   H1232     1.0  0.92296  0.06571  0.56779  1.0000
  H   H1233     1.0  0.86717  0.05833  0.57186  1.0000
  C   C702      1.0  0.61901  0.04900  0.53433  1.0000
  C   C703      1.0  0.64858  0.05714  0.51586  1.0000
  C   C704      1.0  0.65650  0.03219  0.51642  1.0000
  C   C705      1.0  0.62629  0.38132  0.37898  1.0000
  C   C706      1.0  0.86976  0.02314  0.42426  1.0000
  C   C707      1.0  0.59707  0.01509  0.55281  1.0000
  H   H1234     1.0  0.66559  0.08306  0.50112  1.0000
  H   H1235     1.0  0.67934  0.03900  0.50220  1.0000
  H   H1236     1.0  0.88619  0.38599  0.48151  1.0000
  H   H1237     1.0  0.57376  0.00790  0.56633  1.0000
  C   C708      1.0  0.62668  0.25289  0.55465  1.0000
  C   C709      1.0  0.62207  0.25330  0.52214  1.0000
  C   C710      1.0  0.63794  0.28570  0.50054  1.0000
  C   C711      1.0  0.65854  0.31804  0.51117  1.0000
  C   C712      1.0  0.66323  0.31761  0.54365  1.0000
  C   C713      1.0  0.64721  0.28524  0.56527  1.0000
  H   H1238     1.0  0.60635  0.22864  0.51370  1.0000
  H   H1239     1.0  0.63438  0.28570  0.47541  1.0000
  H   H1240     1.0  0.67997  0.34216  0.55195  1.0000
  H   H1241     1.0  0.65119  0.28522  0.59032  1.0000
  C   C714      1.0  0.93417  0.34291  0.37206  1.0000
  C   C715      1.0  0.96201  0.34767  0.35408  1.0000
  C   C716      1.0  0.95885  0.31898  0.34318  1.0000
  C   C717      1.0  0.92727  0.28572  0.34822  1.0000
  C   C718      1.0  0.89889  0.28131  0.36482  1.0000
  C   C719      1.0  0.90256  0.30961  0.37731  1.0000
  H   H1242     1.0  0.66439  0.09070  0.58510  1.0000
  H   H1243     1.0  0.81719  0.00418  0.41842  1.0000
  C   C720      1.0  0.97389  0.44902  0.60245  1.0000
  H   H1244     1.0  0.98638  0.37313  0.34970  1.0000
  C   C721      1.0  0.94687  0.06419  0.33184  1.0000
  C   C722      1.0  0.91372  0.03687  0.32755  1.0000
  H   H1245     1.0  0.83300  0.08811  0.49226  1.0000
  H   H1246     1.0  0.92910  0.05601  0.44538  1.0000
  H   H1247     1.0  0.54782  0.12733  0.33137  1.0000
  S   S169      1.0  0.75335  0.13962  0.32064  1.0000
  H   H1248     1.0  0.98302  0.07182  0.46584  1.0000
  H   H1249     1.0  0.72097  0.44969  0.38260  1.0000
  C   C723      1.0  0.53965  0.10589  0.39668  1.0000
  H   H1250     1.0  0.49875  0.34059  0.38575  1.0000
  C   C724      1.0  0.63764  0.05443  0.35646  1.0000
  H   H1251     1.0  0.57121  0.39007  0.57471  1.0000
  H   H1252     1.0  0.69364  0.99798  0.43189  1.0000
  C   C725      1.0  0.70870  0.10572  0.33341  1.0000
  C   C726      1.0  0.69672  0.07166  0.34859  1.0000
  C   C727      1.0  0.66181  0.04673  0.36084  1.0000
  C   C728      1.0  0.54111  0.13086  0.44570  1.0000
  H   H1253     1.0  0.56827  0.09531  0.46859  1.0000
  H   H1254     1.0  0.94796  0.40820  0.52313  1.0000
  H   H1255     1.0  0.51836  0.26350  0.58749  1.0000
  H   H1256     1.0  0.89771  0.06394  0.38244  1.0000
  H   H1257     1.0  0.60997  0.41059  0.41388  1.0000
  H   H1258     1.0  0.78697  0.45324  0.31797  1.0000
  H   H1259     1.0  0.98349  0.34436  0.41818  1.0000
  C   C729      1.0  0.57000  0.10078  0.44180  1.0000
  H   H1260     1.0  0.52489  0.13728  0.43278  1.0000
  C   C730      1.0  0.51797  0.36739  0.37164  1.0000
  N   N40       1.0  0.77008  0.12081  0.44632  1.0000
  C   C731      1.0  0.73646  0.11650  0.44443  1.0000
  C   C732      1.0  0.76599  0.09625  0.47591  1.0000
  C   C733      1.0  0.79752  0.15880  0.44765  1.0000
  C   C734      1.0  0.78016  0.11150  0.41726  1.0000
  C   C735      1.0  0.75310  0.07452  0.41001  1.0000
  C   C736      1.0  0.73387  0.13560  0.41299  1.0000
  C   C737      1.0  0.83347  0.16756  0.45239  1.0000
  C   C738      1.0  0.76122  0.10522  0.50881  1.0000
  C   C739      1.0  0.76555  0.06857  0.37959  1.0000
  C   C740      1.0  0.69798  0.12706  0.41300  1.0000
  C   C741      1.0  0.85857  0.20630  0.45502  1.0000
  H   H1261     1.0  0.73100  0.12655  0.46445  1.0000
  H   H1262     1.0  0.71475  0.08806  0.44803  1.0000
  H   H1263     1.0  0.74314  0.06908  0.47595  1.0000
  H   H1264     1.0  0.78796  0.09405  0.47556  1.0000
  H   H1265     1.0  0.78943  0.16778  0.46685  1.0000
  H   H1266     1.0  0.80124  0.17614  0.42483  1.0000
  H   H1267     1.0  0.78741  0.13153  0.39530  1.0000
  H   H1268     1.0  0.80351  0.11213  0.42015  1.0000
  H   H1269     1.0  0.72856  0.07098  0.40650  1.0000
  H   H1270     1.0  0.74819  0.05367  0.42988  1.0000
  H   H1271     1.0  0.75223  0.16462  0.41035  1.0000
  H   H1272     1.0  0.73911  0.12742  0.39148  1.0000
  H   H1273     1.0  0.84429  0.16307  0.43154  1.0000
  H   H1274     1.0  0.83251  0.15130  0.47454  1.0000
  H   H1275     1.0  0.78410  0.13102  0.51204  1.0000
  H   H1276     1.0  0.73859  0.10612  0.51100  1.0000
  H   H1277     1.0  0.54557  0.01497  0.61148  1.0000
  H   H1278     1.0  0.74475  0.04275  0.37432  1.0000
  H   H1279     1.0  0.77166  0.08905  0.35865  1.0000
  H   H1280     1.0  0.78837  0.06833  0.38282  1.0000
  H   H1281     1.0  0.69118  0.13483  0.43408  1.0000
  H   H1282     1.0  0.69703  0.14176  0.39068  1.0000
  H   H1283     1.0  0.67887  0.09840  0.41355  1.0000
  H   H1284     1.0  0.88415  0.21203  0.45800  1.0000
  H   H1285     1.0  0.86132  0.22381  0.43283  1.0000
  H   H1286     1.0  0.84971  0.21230  0.47618  1.0000
  H   H1287     1.0  0.62290  0.35156  0.52789  1.0000
  H   H1288     1.0  0.90172  0.07253  0.47539  1.0000
  H   H1289     1.0  0.95230  0.14633  0.41374  1.0000
  H   H1290     1.0  0.98112  0.32255  0.33099  1.0000
  H   H1291     1.0  0.63114  0.09478  0.33704  1.0000
  H   H1292     1.0  0.77771  0.07531  0.53581  1.0000
  H   H1293     1.0  0.94645  0.17389  0.34699  1.0000
  H   H1294     1.0  0.94707  0.12577  0.37988  1.0000
  H   H1295     1.0  0.58225  0.45981  0.56504  1.0000
  C   C742      1.0  0.87693  0.45105  0.39615  1.0000
  C   C743      1.0  0.57794  0.33028  0.50469  1.0000
  H   H1296     1.0  0.51445  0.36671  0.34583  1.0000
  S   S170      1.0  0.95819  0.45834  0.33023  1.0000
  H   H1297     1.0  0.97264  0.42445  0.60427  1.0000
  H   H1298     1.0  0.86662  0.06579  0.40304  1.0000
  H   H1299     1.0  0.94839  0.07683  0.40482  1.0000
  H   H1300     1.0  0.55937  0.20026  0.43715  1.0000
  H   H1301     1.0  0.57368  0.43342  0.36037  1.0000
  H   H1302     1.0  0.55599  0.37778  0.40280  1.0000
  N   N41       1.0  0.97832  0.46520  0.50857  1.0000
  H   H1303     1.0  0.57916  0.43750  0.41446  1.0000
  H   H1304     1.0  0.80824  0.42753  0.41620  1.0000
  C   C744      1.0  0.61841  0.46270  0.44486  1.0000
  S   S171      1.0  0.80641  0.01810  0.54203  1.0000
  C   C745      1.0  0.55412  0.37852  0.37668  1.0000
  H   H1305     1.0  0.90373  0.37525  0.45063  1.0000
  S   S172      1.0  0.92571  0.24980  0.33675  1.0000
  H   H1306     1.0  0.56575  0.38276  0.53385  1.0000
  C   C746      1.0  0.54993  0.33524  0.56923  1.0000
  H   H1307     1.0  0.83203  0.98720  0.50485  1.0000
  C   C747      1.0  0.62239  0.43626  0.39744  1.0000
  H   H1308     1.0  0.59381  0.15893  0.32501  1.0000
  H   H1309     1.0  0.72091  0.43030  0.33050  1.0000
  H   H1310     1.0  0.88790  0.99464  0.50064  1.0000
  Fe  Fe87      1.0  0.54493  0.00674  0.35032  1.0000
  C   C748      1.0  0.75562  0.07727  0.53659  1.0000
  H   H1311     1.0  0.55184  0.32395  0.50752  1.0000
  C   C749      1.0  0.90159  0.09092  0.45591  1.0000
  C   C750      1.0  0.57418  0.30017  0.57604  1.0000
  C   C751      1.0  0.72625  0.45601  0.33059  1.0000
  H   H1312     1.0  0.87454  0.25574  0.36924  1.0000
  H   H1313     1.0  0.89100  0.11909  0.37529  1.0000
  H   H1314     1.0  0.86501  0.02039  0.45062  1.0000
  H   H1315     1.0  0.57437  0.29539  0.60256  1.0000
  H   H1316     1.0  0.59904  0.06662  0.46695  1.0000
  C   C752      1.0  0.57264  0.19404  0.45486  1.0000
  H   H1317     1.0  0.88280  0.46404  0.37050  1.0000
  N   N42       1.0  0.58203  0.33638  0.56483  1.0000
  H   H1318     1.0  0.59255  0.17674  0.42190  1.0000
  H   H1319     1.0  0.88520  0.46882  0.44243  1.0000
  H   H1320     1.0  0.53390  0.08176  0.38820  1.0000
  N   N43       1.0  0.91472  0.08966  0.42343  1.0000
  H   H1321     1.0  0.59831  0.21856  0.45528  1.0000
  H   H1322     1.0  0.59597  0.14342  0.38314  1.0000
  H   H1323     1.0  0.96895  0.98878  0.51768  1.0000
  H   H1324     1.0  0.57900  0.08047  0.40126  1.0000
  H   H1325     1.0  0.60573  0.05464  0.43014  1.0000
  S   S173      1.0  0.70912  0.43839  0.53471  1.0000
  C   C753      1.0  0.81849  0.42348  0.46571  1.0000
  C   C754      1.0  0.78249  0.39109  0.47937  1.0000
  H   H1326     1.0  0.59489  0.12665  0.43399  1.0000
  H   H1327     1.0  0.95616  0.44558  0.62263  1.0000
  C   C755      1.0  0.90193  0.44119  0.40236  1.0000
  C   C756      1.0  0.90680  0.38287  0.47474  1.0000
  C   C757      1.0  0.60337  0.07396  0.44031  1.0000
  H   H1328     1.0  0.57868  0.41257  0.33110  1.0000
  H   H1329     1.0  0.62036  0.35756  0.46565  1.0000
  C   C758      1.0  0.96355  0.45683  0.57037  1.0000
  H   H1330     1.0  0.71421  0.06428  0.35064  1.0000
  N   N44       1.0  0.54039  0.10193  0.43258  1.0000
  H   H1331     1.0  0.86920  0.09313  0.50909  1.0000
  H   H1332     1.0  0.62770  0.10050  0.43294  1.0000
  C   C759      1.0  0.93278  0.12520  0.40153  1.0000
  H   H1333     1.0  0.85732  0.08990  0.43838  1.0000
  H   H1334     1.0  0.61888  0.39900  0.33161  1.0000
  C   C760      1.0  0.93212  0.17388  0.36814  1.0000
  H   H1335     1.0  0.85098  0.42612  0.39981  1.0000
  H   H1336     1.0  0.83460  0.41413  0.46051  1.0000
  H   H1337     1.0  0.57187  0.16198  0.37644  1.0000
  H   H1338     1.0  0.77099  0.37353  0.46141  1.0000
  H   H1339     1.0  0.78368  0.37599  0.50121  1.0000
  H   H1340     1.0  0.76562  0.39911  0.48629  1.0000
  C   C761      1.0  0.94065  0.08116  0.42796  1.0000
  H   H1341     1.0  0.93736  0.43383  0.56871  1.0000
  H   H1342     1.0  0.79320  0.47323  0.38852  1.0000
  H   H1343     1.0  0.65445  0.36969  0.56667  1.0000
  C   C762      1.0  0.57368  0.07382  0.42796  1.0000
  C   C763      1.0  0.94732  0.42865  0.50708  1.0000
  H   H1344     1.0  0.53002  0.31659  0.55564  1.0000
  C   C764      1.0  0.57658  0.16594  0.44557  1.0000
  H   H1345     1.0  0.61619  0.38868  0.57612  1.0000
  H   H1346     1.0  0.75285  0.08445  0.55993  1.0000
  H   H1347     1.0  0.55025  0.04669  0.43491  1.0000
  H   H1348     1.0  0.91528  0.18149  0.35922  1.0000
  H   H1349     1.0  0.92361  0.42547  0.51686  1.0000
  H   H1350     1.0  0.83936  0.99999  0.38582  1.0000
  H   H1351     1.0  0.89562  0.42636  0.42725  1.0000
  C   C765      1.0  0.86042  0.09880  0.48668  1.0000
  H   H1352     1.0  0.62878  0.48299  0.34560  1.0000
  H   H1353     1.0  0.93344  0.47412  0.46868  1.0000
  C   C766      1.0  0.58132  0.41547  0.35669  1.0000
  N   N45       1.0  0.61788  0.43176  0.36276  1.0000
  H   H1354     1.0  0.59607  0.37617  0.46767  1.0000
  C   C767      1.0  0.63487  0.99853  0.53548  1.0000
  H   H1355     1.0  0.50809  0.35531  0.58903  1.0000
  C   C768      1.0  0.94203  0.41735  0.47359  1.0000
  S   S174      1.0  0.97716  0.05636  0.34643  1.0000
  C   C769      1.0  0.50776  0.06706  0.44820  1.0000
  H   H1356     1.0  0.50928  0.06069  0.47421  1.0000
  H   H1357     1.0  0.59470  0.29870  0.56497  1.0000
  H   H1358     1.0  0.59091  0.16169  0.46349  1.0000
  C   C770      1.0  0.55451  0.37096  0.55944  1.0000
  C   C771      1.0  0.60757  0.45465  0.41171  1.0000
  H   H1359     1.0  0.87538  0.12782  0.47862  1.0000
  H   H1360     1.0  0.60886  0.37906  0.52356  1.0000
  C   C772      1.0  0.88348  0.00866  0.51617  1.0000
  H   H1361     1.0  0.60945  0.43814  0.46201  1.0000
  H   H1362     1.0  0.95462  0.01196  0.41861  1.0000
  H   H1363     1.0  0.56700  0.19385  0.31588  1.0000
  C   C773      1.0  0.83569  0.99795  0.41233  1.0000
  C   C774      1.0  0.53809  0.23417  0.57647  1.0000
  S   S175      1.0  0.59376  0.02114  0.37226  1.0000
  C   C775      1.0  0.88699  0.06178  0.40706  1.0000
  C   C776      1.0  0.91030  0.13742  0.38962  1.0000
  C   C777      1.0  0.64924  0.08816  0.34043  1.0000
  H   H1364     1.0  0.66854  0.41365  0.60256  1.0000
  H   H1365     1.0  0.95047  0.19397  0.38188  1.0000
  H   H1366     1.0  0.96283  0.48000  0.57101  1.0000
  C   C778      1.0  0.66076  0.38653  0.61222  1.0000
  C   C779      1.0  0.85176  0.00431  0.51856  1.0000
  H   H1367     1.0  0.88671  0.01466  0.41931  1.0000
  H   H1368     1.0  0.60574  0.04178  0.60912  1.0000
  H   H1369     1.0  0.53307  0.27076  0.54578  1.0000
  H   H1370     1.0  0.52442  0.39226  0.55667  1.0000
  H   H1371     1.0  0.69328  0.13994  0.31779  1.0000
  H   H1372     1.0  0.51296  0.38591  0.37971  1.0000
  N   N46       1.0  0.85093  0.47989  0.42160  1.0000
  H   H1373     1.0  0.67105  0.98971  0.39735  1.0000
  H   H1374     1.0  0.53820  0.32470  0.59495  1.0000
  H   H1375     1.0  0.55680  0.23610  0.55847  1.0000
  S   S176      1.0  0.50582  0.48079  0.37338  1.0000
  H   H1376     1.0  0.94441  0.43751  0.45463  1.0000
  H   H1377     1.0  0.60279  0.21728  0.33812  1.0000
  C   C780      1.0  0.94172  0.99375  0.44216  1.0000
  H   H1378     1.0  0.82573  0.47017  0.52893  1.0000
  H   H1379     1.0  0.55719  0.35873  0.36865  1.0000
  H   H1380     1.0  0.79741  0.44835  0.44008  1.0000
  H   H1381     1.0  0.82884  0.43980  0.48465  1.0000
  H   H1382     1.0  0.57630  0.30551  0.50623  1.0000
  H   H1383     1.0  0.51825  0.10766  0.39049  1.0000
  S   S177      1.0  0.73539  0.00254  0.48755  1.0000
  C   C781      1.0  0.95518  0.09862  0.32791  1.0000
  C   C782      1.0  0.53387  0.99148  0.63085  1.0000
  H   H1384     1.0  0.53402  0.99322  0.46453  1.0000
  Fe  Fe88      1.0  0.97739  0.43447  0.36464  1.0000
  H   H1385     1.0  0.61692  0.34474  0.34691  1.0000
  H   H1386     1.0  0.56186  0.00494  0.49568  1.0000
  C   C783      1.0  0.63864  0.36110  0.59015  1.0000
  H   H1387     1.0  0.57297  0.22903  0.33493  1.0000
  H   H1388     1.0  0.57560  0.11302  0.33771  1.0000
  H   H1389     1.0  0.57856  0.33557  0.45289  1.0000
  C   C784      1.0  0.86471  0.08166  0.46033  1.0000
  C   C785      1.0  0.57194  0.13849  0.37547  1.0000
  C   C786      1.0  0.59438  0.35133  0.47066  1.0000
  H   H1390     1.0  0.59998  0.36360  0.39192  1.0000
  H   H1391     1.0  0.64737  0.11568  0.59156  1.0000
  H   H1392     1.0  0.89993  0.42405  0.38546  1.0000
  C   C787      1.0  0.53909  0.26767  0.57046  1.0000
  H   H1393     1.0  0.89747  0.13998  0.41020  1.0000
  H   H1394     1.0  0.90406  0.36132  0.49232  1.0000
  H   H1395     1.0  0.66155  0.37543  0.35151  1.0000
  S   S178      1.0  0.63800  0.45877  0.53849  1.0000
  H   H1396     1.0  0.61635  0.47983  0.39632  1.0000
  H   H1397     1.0  0.63190  0.33471  0.60096  1.0000
  H   H1398     1.0  0.92865  0.46516  0.39891  1.0000
  H   H1399     1.0  0.63285  0.33887  0.38353  1.0000
  H   H1400     1.0  0.68762  0.12829  0.60474  1.0000
  H   H1401     1.0  0.96141  0.41286  0.46585  1.0000
  H   H1402     1.0  0.98028  0.11973  0.33210  1.0000
  C   C788      1.0  0.63494  0.35875  0.36418  1.0000
  H   H1403     1.0  0.51218  0.21097  0.57422  1.0000
  C   C789      1.0  0.75228  0.00260  0.33920  1.0000
  C   C790      1.0  0.58634  0.22002  0.32194  1.0000
  H   H1404     1.0  0.68428  0.38730  0.61387  1.0000
  H   H1405     1.0  0.96792  0.11491  0.46348  1.0000
  C   C791      1.0  0.97393  0.10899  0.44065  1.0000
  H   H1406     1.0  0.64749  0.02506  0.62856  1.0000
  H   H1407     1.0  0.64475  0.00089  0.44332  1.0000
  C   C792      1.0  0.88936  0.04396  0.31994  1.0000
  C   C793      1.0  0.64326  0.08167  0.63483  1.0000
  H   H1408     1.0  0.59284  0.35442  0.61048  1.0000
  H   H1409     1.0  0.94066  0.00840  0.46026  1.0000
  H   H1410     1.0  0.59144  0.06226  0.63028  1.0000
  C   C794      1.0  0.60600  0.05034  0.63248  1.0000
  H   H1411     1.0  0.65912  0.07309  0.64420  1.0000
  C   C795      1.0  0.88035  0.47652  0.41831  1.0000
  H   H1412     1.0  0.83139  0.46915  0.31521  1.0000
  H   H1413     1.0  0.64657  0.37778  0.63681  1.0000
  C   C796      1.0  0.93113  0.10583  0.31947  1.0000
  H   H1414     1.0  0.88914  0.34072  0.31886  1.0000
  C   C797      1.0  0.89777  0.07849  0.31593  1.0000
  H   H1415     1.0  0.93804  0.13238  0.31653  1.0000
  H   H1416     1.0  0.58617  0.98373  0.62996  1.0000
  H   H1417     1.0  0.98544  0.24412  0.33010  1.0000
  H   H1418     1.0  0.60708  0.47532  0.45472  1.0000
  Fe  Fe89      1.0  0.72302  0.48295  0.44577  1.0000
  H   H1419     1.0  0.90782  0.99148  0.60747  1.0000
  H   H1420     1.0  0.92954  0.38241  0.31967  1.0000
  S   S179      1.0  0.74764  0.98362  0.40452  1.0000
  H   H1421     1.0  0.89249  0.38141  0.31122  1.0000
  H   H1422     1.0  0.64672  0.48126  0.44301  1.0000
  S   S180      1.0  0.88535  0.23568  0.92224  1.0000
  S   S181      1.0  0.90794  0.32264  0.94072  1.0000
  C   C798      1.0  0.50133  0.10744  0.79504  1.0000
  Fe  Fe90      1.0  0.59534  0.10641  0.91076  1.0000
  S   S182      1.0  0.57829  0.05827  0.88985  1.0000
  S   S183      1.0  0.63754  0.12980  0.94323  1.0000
  Fe  Fe91      1.0  0.53579  0.10982  0.88750  1.0000
  C   C799      1.0  0.54729  0.15883  0.67910  1.0000
  S   S184      1.0  0.97492  0.08922  0.92441  1.0000
  Fe  Fe92      1.0  0.52513  0.03845  0.91009  1.0000
  H   H1423     1.0  0.72809  0.18447  0.84540  1.0000
  Fe  Fe93      1.0  0.56931  0.08462  0.84665  1.0000
  S   S185      1.0  0.59158  0.09032  0.79573  1.0000
  S   S186      1.0  0.54239  0.08553  0.93360  1.0000
  S   S187      1.0  0.59041  0.13454  0.86635  1.0000
  C   C800      1.0  0.53406  0.06649  0.70699  1.0000
  C   C801      1.0  0.56956  0.09128  0.70355  1.0000
  C   C802      1.0  0.58677  0.09849  0.73097  1.0000
  C   C803      1.0  0.56866  0.08144  0.76207  1.0000
  C   C804      1.0  0.53317  0.05677  0.76549  1.0000
  C   C805      1.0  0.51600  0.04927  0.73807  1.0000
  H   H1424     1.0  0.58379  0.10471  0.67978  1.0000
  H   H1425     1.0  0.61428  0.11746  0.72809  1.0000
  H   H1426     1.0  0.51904  0.04293  0.78924  1.0000
  Fe  Fe94      1.0  0.89304  0.26718  0.96102  1.0000
  C   C806      1.0  0.93598  0.36652  0.94790  1.0000
  C   C807      1.0  0.62243  0.01810  0.87038  1.0000
  H   H1427     1.0  0.51045  0.18239  0.75593  1.0000
  H   H1428     1.0  0.58167  0.99659  0.77392  1.0000
  C   C808      1.0  0.48761  0.15007  0.89991  1.0000
  C   C809      1.0  0.94258  0.39456  0.92432  1.0000
  H   H1429     1.0  0.57075  0.13699  0.79883  1.0000
  C   C810      1.0  0.97787  0.43750  0.95766  1.0000
  H   H1430     1.0  0.93141  0.38903  0.90217  1.0000
  C   C811      1.0  0.95590  0.17577  0.92569  1.0000
  C   C812      1.0  0.94159  0.11705  0.94559  1.0000
  H   H1431     1.0  0.60585  0.02588  0.94258  1.0000
  S   S188      1.0  0.95119  0.21080  0.92721  1.0000
  H   H1432     1.0  0.60094  0.99106  0.83013  1.0000
  H   H1433     1.0  0.67324  0.11971  0.89282  1.0000
  S   S189      1.0  0.78819  0.16588  0.92262  1.0000
  C   C813      1.0  0.67885  0.13845  0.93758  1.0000
  C   C814      1.0  0.69002  0.13107  0.91082  1.0000
  C   C815      1.0  0.74574  0.15422  0.92999  1.0000
  C   C816      1.0  0.73424  0.16080  0.95714  1.0000
  C   C817      1.0  0.70108  0.15313  0.96079  1.0000
  H   H1434     1.0  0.57404  0.99164  0.90118  1.0000
  Fe  Fe95      1.0  0.90836  0.21222  0.95169  1.0000
  S   S190      1.0  0.51453  0.06111  0.86528  1.0000
  C   C818      1.0  0.53831  0.28766  0.91676  1.0000
  C   C819      1.0  0.63251  0.00409  0.65014  1.0000
  H   H1435     1.0  0.58406  0.15599  0.75669  1.0000
  H   H1436     1.0  0.52151  0.14090  0.67197  1.0000
  H   H1437     1.0  0.50115  0.11175  0.82031  1.0000
  H   H1438     1.0  0.49761  0.11825  0.72985  1.0000
  H   H1439     1.0  0.90932  0.30823  0.82709  1.0000
  H   H1440     1.0  0.50217  0.45633  0.82684  1.0000
  C   C820      1.0  0.60827  0.01579  0.83820  1.0000
  C   C821      1.0  0.61345  0.19124  0.78835  1.0000
  H   H1441     1.0  0.64261  0.09788  0.65146  1.0000
  H   H1442     1.0  0.59661  0.05238  0.69403  1.0000
  H   H1443     1.0  0.96836  0.45098  0.91055  1.0000
  C   C822      1.0  0.52287  0.13544  0.73831  1.0000
  H   H1444     1.0  0.73480  0.22406  0.82291  1.0000
  H   H1445     1.0  0.62732  0.04287  0.69176  1.0000
  H   H1446     1.0  0.56605  0.29907  0.91550  1.0000
  H   H1447     1.0  0.62342  0.02449  0.75033  1.0000
  C   C823      1.0  0.93549  0.14315  0.94655  1.0000
  H   H1448     1.0  0.79709  0.35306  0.84963  1.0000
  C   C824      1.0  0.57926  0.16064  0.78066  1.0000
  H   H1449     1.0  0.63104  0.04417  0.87605  1.0000
  C   C825      1.0  0.48681  0.17953  0.89012  1.0000
  H   H1450     1.0  0.81229  0.35674  0.80867  1.0000
  H   H1451     1.0  0.56329  0.19538  0.76757  1.0000
  C   C826      1.0  0.59490  0.99208  0.65318  1.0000
  H   H1452     1.0  0.69697  0.19393  0.85180  1.0000
  H   H1453     1.0  0.56229  0.18295  0.66016  1.0000
  H   H1454     1.0  0.84136  0.36965  0.83842  1.0000
  C   C827      1.0  0.63867  0.02020  0.97318  1.0000
  C   C828      1.0  0.72327  0.13898  0.90708  1.0000
  H   H1455     1.0  0.62420  0.21520  0.76964  1.0000
  H   H1456     1.0  0.61023  0.19714  0.81228  1.0000
  H   H1457     1.0  0.63187  0.18397  0.78890  1.0000
  H   H1458     1.0  0.48856  0.02984  0.74096  1.0000
  H   H1459     1.0  0.54822  0.17102  0.80731  1.0000
  H   H1460     1.0  0.50716  0.17813  0.81552  1.0000
  H   H1461     1.0  0.55348  0.99394  0.72647  1.0000
  H   H1462     1.0  0.52164  0.23508  0.93620  1.0000
  H   H1463     1.0  0.57102  0.18675  0.71716  1.0000
  H   H1464     1.0  0.73186  0.13370  0.88603  1.0000
  H   H1465     1.0  0.90857  0.30828  0.86973  1.0000
  H   H1466     1.0  0.53401  0.30774  0.92153  1.0000
  Fe  Fe96      1.0  0.83418  0.19303  0.95089  1.0000
  H   H1467     1.0  0.56057  0.14560  0.68028  1.0000
  H   H1468     1.0  0.88704  0.26700  0.85503  1.0000
  H   H1469     1.0  0.52282  0.17024  0.95452  1.0000
  C   C829      1.0  0.98187  0.18143  0.90337  1.0000
  N   N47       1.0  0.80423  0.26895  0.88782  1.0000
  C   C830      1.0  0.78189  0.24088  0.86854  1.0000
  C   C831      1.0  0.83922  0.27596  0.88497  1.0000
  C   C832      1.0  0.78890  0.25400  0.92280  1.0000
  C   C833      1.0  0.80664  0.30258  0.87794  1.0000
  C   C834      1.0  0.80496  0.31282  0.84189  1.0000
  C   C835      1.0  0.74331  0.22603  0.87320  1.0000
  C   C836      1.0  0.80876  0.27784  0.94751  1.0000
  C   C837      1.0  0.86062  0.29260  0.85121  1.0000
  C   C838      1.0  0.89335  0.29407  0.85088  1.0000
  C   C839      1.0  0.81451  0.35038  0.83432  1.0000
  C   C840      1.0  0.72479  0.20595  0.84659  1.0000
  S   S191      1.0  0.51825  0.14667  0.87861  1.0000
  H   H1470     1.0  0.78336  0.21791  0.87489  1.0000
  H   H1471     1.0  0.79133  0.25035  0.84246  1.0000
  H   H1472     1.0  0.85555  0.29458  0.90071  1.0000
  H   H1473     1.0  0.83691  0.25106  0.89364  1.0000
  H   H1474     1.0  0.78617  0.22877  0.93029  1.0000
  H   H1475     1.0  0.76267  0.24759  0.92630  1.0000
  H   H1476     1.0  0.78559  0.30131  0.89174  1.0000
  H   H1477     1.0  0.83071  0.32519  0.88462  1.0000
  H   H1478     1.0  0.77865  0.29494  0.83594  1.0000
  H   H1479     1.0  0.82222  0.31124  0.82538  1.0000
  H   H1480     1.0  0.73070  0.20726  0.89642  1.0000
  H   H1481     1.0  0.73948  0.24718  0.87381  1.0000
  H   H1482     1.0  0.81641  0.30516  0.93971  1.0000
  H   H1483     1.0  0.83215  0.27885  0.95086  1.0000
  H   H1484     1.0  0.84632  0.27747  0.83256  1.0000
  H   H1485     1.0  0.86865  0.32021  0.84461  1.0000
  C   C841      1.0  0.51758  0.25467  0.94296  1.0000
  S   S192      1.0  0.51126  0.05556  0.67331  1.0000
  C   C842      1.0  0.59475  0.98773  0.89741  1.0000
  C   C843      1.0  0.55199  0.16863  0.78191  1.0000
  C   C844      1.0  0.95062  0.37417  0.97646  1.0000
  C   C845      1.0  0.59680  0.01703  0.75202  1.0000
  H   H1486     1.0  0.53278  0.18343  0.70857  1.0000
  N   N48       1.0  0.58846  0.01889  0.65982  1.0000
  H   H1487     1.0  0.91514  0.13807  0.96358  1.0000
  H   H1488     1.0  0.64631  0.03982  0.92325  1.0000
  H   H1489     1.0  0.50471  0.19955  0.86994  1.0000
  H   H1490     1.0  0.59708  0.04048  0.75463  1.0000
  H   H1491     1.0  0.51371  0.45697  0.88711  1.0000
  C   C846      1.0  0.55029  0.00153  0.66224  1.0000
  C   C847      1.0  0.96359  0.42981  0.92899  1.0000
  C   C848      1.0  0.54458  0.16877  0.71156  1.0000
  S   S193      1.0  0.49045  0.98507  0.94339  1.0000
  H   H1492     1.0  0.92590  0.09218  0.96220  1.0000
  C   C849      1.0  0.62400  0.01823  0.94079  1.0000
  N   N49       1.0  0.51815  0.14179  0.77157  1.0000
  C   C850      1.0  0.59970  0.03094  0.69134  1.0000
  H   H1493     1.0  0.53435  0.12038  0.73876  1.0000
  C   C851      1.0  0.53440  0.17343  0.97721  1.0000
  H   H1494     1.0  0.53004  0.28062  0.89306  1.0000
  H   H1495     1.0  0.58555  0.01663  0.84030  1.0000
  C   C852      1.0  0.58042  0.00250  0.72234  1.0000
  H   H1496     1.0  0.75101  0.17209  0.97517  1.0000
  C   C853      1.0  0.96772  0.12282  0.92343  1.0000
  C   C854      1.0  0.49151  0.43292  0.90081  1.0000
  H   H1497     1.0  0.54410  0.01904  0.67095  1.0000
  H   H1498     1.0  0.51667  0.09656  0.79361  1.0000
  N   N50       1.0  0.60698  0.98352  0.92910  1.0000
  H   H1499     1.0  0.49020  0.24407  0.94263  1.0000
  H   H1500     1.0  0.64504  0.01727  0.86713  1.0000
  H   H1501     1.0  0.55738  0.22877  0.96977  1.0000
  H   H1502     1.0  0.65820  0.99861  0.91532  1.0000
  H   H1503     1.0  0.64442  0.01368  0.67192  1.0000
  H   H1504     1.0  0.55649  0.27495  0.97518  1.0000
  H   H1505     1.0  0.49447  0.39923  0.87257  1.0000
  H   H1506     1.0  0.62809  0.03855  0.81963  1.0000
  C   C855      1.0  0.52862  0.26321  0.97651  1.0000
  H   H1507     1.0  0.55930  0.17719  0.97213  1.0000
  C   C856      1.0  0.49634  0.15563  0.77110  1.0000
  H   H1508     1.0  0.98269  0.15142  0.70441  1.0000
  H   H1509     1.0  0.66056  0.01812  0.97060  1.0000
  H   H1510     1.0  0.67534  0.07714  0.96616  1.0000
  S   S194      1.0  0.85671  0.16718  0.97749  1.0000
  H   H1511     1.0  0.49070  0.99348  0.64453  1.0000
  H   H1512     1.0  0.83823  0.96388  0.20444  1.0000
  Fe  Fe97      1.0  0.61247  0.74334  0.12066  1.0000
  S   S195      1.0  0.58894  0.70159  0.08958  1.0000
  S   S196      1.0  0.65504  0.80097  0.10070  1.0000
  Fe  Fe98      1.0  0.57729  0.68882  0.18034  1.0000
  S   S197      1.0  0.55116  0.64291  0.15438  1.0000
  S   S198      1.0  0.56856  0.67577  0.23382  1.0000
  Fe  Fe99      1.0  0.60235  0.67129  0.12424  1.0000
  S   S199      1.0  0.62511  0.64368  0.10526  1.0000
  Fe  Fe100     1.0  0.53928  0.67586  0.12277  1.0000
  C   C857      1.0  0.65347  0.68923  0.01378  1.0000
  S   S200      1.0  0.62904  0.71475  0.15280  1.0000
  S   S201      1.0  0.56219  0.72026  0.15098  1.0000
  S   S202      1.0  0.83711  0.65500  0.18990  1.0000
  Fe  Fe101     1.0  0.88826  0.73891  0.01010  1.0000
  H   H1513     1.0  0.92642  0.49110  0.99291  1.0000
  S   S203      1.0  0.90701  0.75948  0.05605  1.0000
  H   H1514     1.0  0.53771  0.74359  0.25839  1.0000
  H   H1515     1.0  0.61280  0.62006  0.04164  1.0000
  C   C858      1.0  0.61376  0.53672  0.24920  1.0000
  C   C859      1.0  0.98389  0.55143  0.08967  1.0000
  H   H1516     1.0  0.58071  0.58778  0.20041  1.0000
  H   H1517     1.0  0.95174  0.55360  0.16621  1.0000
  H   H1518     1.0  0.66520  0.65030  0.01004  1.0000
  Fe  Fe102     1.0  0.51453  0.50345  0.28279  1.0000
  S   S204      1.0  0.71807  0.51710  0.12899  1.0000
  S   S205      1.0  0.67471  0.94308  0.12206  1.0000
  H   H1519     1.0  0.70118  0.71119  0.23171  1.0000
  S   S206      1.0  0.75901  0.54654  0.19183  1.0000
  C   C860      1.0  0.94021  0.62001  0.03252  1.0000
  Fe  Fe103     1.0  0.71004  0.53499  0.17327  1.0000
  S   S207      1.0  0.68742  0.56665  0.17889  1.0000
  Fe  Fe104     1.0  0.76516  0.52526  0.14926  1.0000
  S   S208      1.0  0.81422  0.53961  0.11990  1.0000
  C   C861      1.0  0.96082  0.53476  0.01661  1.0000
  H   H1520     1.0  0.88910  0.52296  0.17243  1.0000
  S   S209      1.0  0.90221  0.68271  0.25803  1.0000
  H   H1521     1.0  0.89938  0.87165  0.04571  1.0000
  H   H1522     1.0  0.83582  0.58372  0.04582  1.0000
  C   C862      1.0  0.77439  0.85765  0.98102  1.0000
  H   H1523     1.0  0.89685  0.83571  0.98919  1.0000
  H   H1524     1.0  0.60258  0.82934  0.05539  1.0000
  H   H1525     1.0  0.71957  0.71986  0.03086  1.0000
  C   C863      1.0  0.82267  0.56179  0.03213  1.0000
  Fe  Fe105     1.0  0.85307  0.66658  0.23897  1.0000
  H   H1526     1.0  0.78554  0.63702  0.07904  1.0000
  C   C864      1.0  0.74227  0.53424  0.01966  1.0000
  C   C865      1.0  0.60202  0.68616  0.00243  1.0000
  H   H1527     1.0  0.97250  0.51265  0.13171  1.0000
  H   H1528     1.0  0.57559  0.56825  0.11272  1.0000
  H   H1529     1.0  0.63393  0.73638  0.01935  1.0000
  H   H1530     1.0  0.73173  0.88209  0.25768  1.0000
  C   C866      1.0  0.61795  0.72607  0.99972  1.0000
  C   C867      1.0  0.85862  0.68388  0.15292  1.0000
  C   C868      1.0  0.88876  0.71758  0.15093  1.0000
  C   C869      1.0  0.90361  0.74058  0.12097  1.0000
  C   C870      1.0  0.88843  0.72987  0.09304  1.0000
  C   C871      1.0  0.85863  0.69600  0.09507  1.0000
  C   C872      1.0  0.84384  0.67305  0.12492  1.0000
  H   H1531     1.0  0.90021  0.72608  0.17248  1.0000
  H   H1532     1.0  0.92664  0.76686  0.11951  1.0000
  H   H1533     1.0  0.84679  0.68762  0.07369  1.0000
  H   H1534     1.0  0.82060  0.64690  0.12649  1.0000
  C   C873      1.0  0.93026  0.61903  0.12349  1.0000
  C   C874      1.0  0.91698  0.58528  0.11713  1.0000
  C   C875      1.0  0.88138  0.56107  0.11688  1.0000
  C   C876      1.0  0.85833  0.56958  0.12436  1.0000
  C   C877      1.0  0.87144  0.60264  0.13238  1.0000
  C   C878      1.0  0.90713  0.62728  0.13151  1.0000
  H   H1535     1.0  0.93424  0.57853  0.11064  1.0000
  H   H1536     1.0  0.87168  0.53580  0.11021  1.0000
  H   H1537     1.0  0.85427  0.60993  0.13788  1.0000
  H   H1538     1.0  0.91740  0.59441  0.04540  1.0000
  C   C879      1.0  0.64288  0.62278  0.12590  1.0000
  C   C880      1.0  0.65446  0.60671  0.10874  1.0000
  C   C881      1.0  0.66823  0.58951  0.12429  1.0000
  C   C882      1.0  0.67037  0.58785  0.15737  1.0000
  C   C883      1.0  0.65855  0.60370  0.17444  1.0000
  C   C884      1.0  0.64526  0.62128  0.15887  1.0000
  H   H1539     1.0  0.65286  0.60764  0.08319  1.0000
  H   H1540     1.0  0.67725  0.57765  0.11064  1.0000
  H   H1541     1.0  0.65965  0.60239  0.20003  1.0000
  H   H1542     1.0  0.63676  0.63363  0.17244  1.0000
  C   C885      1.0  0.66003  0.83919  0.11046  1.0000
  C   C886      1.0  0.63218  0.83909  0.12185  1.0000
  C   C887      1.0  0.63710  0.87100  0.12596  1.0000
  C   C888      1.0  0.67004  0.90294  0.12035  1.0000
  C   C889      1.0  0.69796  0.90270  0.11017  1.0000
  C   C890      1.0  0.69282  0.87117  0.10453  1.0000
  H   H1543     1.0  0.60674  0.81479  0.12604  1.0000
  H   H1544     1.0  0.61525  0.87107  0.13321  1.0000
  H   H1545     1.0  0.72327  0.92720  0.10488  1.0000
  H   H1546     1.0  0.71439  0.87168  0.09501  1.0000
  C   C891      1.0  0.55647  0.78280  0.04353  1.0000
  C   C892      1.0  0.59770  0.48482  0.22193  1.0000
  C   C893      1.0  0.52633  0.60459  0.25480  1.0000
  C   C894      1.0  0.55773  0.63300  0.23783  1.0000
  C   C895      1.0  0.57763  0.62693  0.21866  1.0000
  C   C896      1.0  0.56553  0.59254  0.21536  1.0000
  S   S210      1.0  0.82069  0.61768  0.27666  1.0000
  N   N51       1.0  0.85421  0.50783  0.21514  1.0000
  H   H1547     1.0  0.60179  0.64891  0.20527  1.0000
  C   C897      1.0  0.86024  0.84989  0.99485  1.0000
  H   H1548     1.0  0.97636  0.77012  0.08661  1.0000
  H   H1549     1.0  0.82365  0.54539  0.19079  1.0000
  H   H1550     1.0  0.49021  0.54808  0.26491  1.0000
  C   C898      1.0  0.94896  0.54024  0.19104  1.0000
  H   H1551     1.0  0.58291  0.62906  0.98037  1.0000
  H   H1552     1.0  0.72190  0.68320  0.02781  1.0000
  H   H1553     1.0  0.94491  0.51455  0.19026  1.0000
  H   H1554     1.0  0.85506  0.59057  0.24287  1.0000
  H   H1555     1.0  0.69049  0.67776  0.05742  1.0000
  H   H1556     1.0  0.61461  0.48747  0.08172  1.0000
  Fe  Fe106     1.0  0.72693  0.48997  0.21764  1.0000
  H   H1557     1.0  0.60764  0.95609  0.27990  1.0000
  H   H1558     1.0  0.57514  0.61975  0.04133  1.0000
  H   H1559     1.0  0.52961  0.57568  0.12894  1.0000
  S   S211      1.0  0.52005  0.52125  0.23030  1.0000
  C   C899      1.0  0.89988  0.85181  0.03444  1.0000
  H   H1560     1.0  0.60811  0.81755  0.01797  1.0000
  H   H1561     1.0  0.86869  0.50343  0.26242  1.0000
  H   H1562     1.0  0.62048  0.63041  0.98046  1.0000
  C   C900      1.0  0.75276  0.59090  0.05742  1.0000
  H   H1563     1.0  0.94655  0.64695  0.19057  1.0000
  H   H1564     1.0  0.92567  0.56154  0.21332  1.0000
  H   H1565     1.0  0.89130  0.95685  0.22987  1.0000
  H   H1566     1.0  0.60409  0.51960  0.27337  1.0000
  H   H1567     1.0  0.57534  0.72510  0.98180  1.0000
  H   H1568     1.0  0.62024  0.52316  0.09925  1.0000
  H   H1569     1.0  0.96487  0.51738  0.03324  1.0000
  C   C901      1.0  0.70152  0.88806  0.29105  1.0000
  H   H1570     1.0  0.57604  0.80970  0.25459  1.0000
  H   H1571     1.0  0.56694  0.50472  0.23016  1.0000
  C   C902      1.0  0.66488  0.50845  0.28742  1.0000
  H   H1572     1.0  0.95482  0.59755  0.00057  1.0000
  H   H1573     1.0  0.64742  0.50833  0.10736  1.0000
  N   N52       1.0  0.49965  0.75051  0.08181  1.0000
  H   H1574     1.0  0.61010  0.55803  0.24989  1.0000
  H   H1575     1.0  0.55084  0.78750  0.09337  1.0000
  H   H1576     1.0  0.95133  0.63854  0.04969  1.0000
  N   N53       1.0  0.68854  0.87309  0.23385  1.0000
  C   C903      1.0  0.70718  0.88285  0.20041  1.0000
  C   C904      1.0  0.66590  0.88607  0.23432  1.0000
  C   C905      1.0  0.57042  0.57550  0.02609  1.0000
  C   C906      1.0  0.66793  0.83392  0.24662  1.0000
  C   C907      1.0  0.64254  0.80953  0.22490  1.0000
  C   C908      1.0  0.73405  0.87438  0.19724  1.0000
  H   H1577     1.0  0.87648  0.55505  0.23608  1.0000
  C   C909      1.0  0.64995  0.88758  0.20346  1.0000
  C   C910      1.0  0.62355  0.89553  0.20939  1.0000
  C   C911      1.0  0.62489  0.77068  0.23965  1.0000
  C   C912      1.0  0.74585  0.87804  0.16203  1.0000
  H   H1578     1.0  0.72093  0.91167  0.19142  1.0000
  H   H1579     1.0  0.68906  0.87026  0.18280  1.0000
  H   H1580     1.0  0.65240  0.82732  0.27005  1.0000
  H   H1581     1.0  0.60320  0.51241  0.15931  1.0000
  C   C913      1.0  0.97807  0.59964  0.04503  1.0000
  C   C914      1.0  0.53757  0.76683  0.07846  1.0000
  H   H1582     1.0  0.96680  0.71601  0.12346  1.0000
  C   C915      1.0  0.94976  0.51855  0.98636  1.0000
  H   H1583     1.0  0.65558  0.81395  0.20074  1.0000
  H   H1584     1.0  0.62210  0.81364  0.22232  1.0000
  C   C916      1.0  0.88499  0.51179  0.19852  1.0000
  H   H1585     1.0  0.72362  0.84713  0.20932  1.0000
  H   H1586     1.0  0.51746  0.51950  0.10703  1.0000
  H   H1587     1.0  0.73269  0.92062  0.24550  1.0000
  H   H1588     1.0  0.67052  0.90935  0.18481  1.0000
  H   H1589     1.0  0.63748  0.86293  0.19374  1.0000
  C   C917      1.0  0.59416  0.51555  0.22357  1.0000
  H   H1590     1.0  0.60105  0.87339  0.22627  1.0000
  H   H1591     1.0  0.63499  0.92006  0.21951  1.0000
  H   H1592     1.0  0.64386  0.76421  0.24161  1.0000
  H   H1593     1.0  0.49346  0.70724  0.06163  1.0000
  C   C918      1.0  0.77321  0.59382  0.98837  1.0000
  H   H1594     1.0  0.72462  0.85675  0.15130  1.0000
  H   H1595     1.0  0.64503  0.87077  0.25501  1.0000
  H   H1596     1.0  0.76751  0.87547  0.16040  1.0000
  H   H1597     1.0  0.74531  0.93900  0.29874  1.0000
  H   H1598     1.0  0.96961  0.93606  0.05688  1.0000
  C   C919      1.0  0.53384  0.56428  0.23165  1.0000
  C   C920      1.0  0.78083  0.58659  0.04506  1.0000
  H   H1599     1.0  0.93201  0.63087  0.01298  1.0000
  H   H1600     1.0  0.86049  0.55064  0.03804  1.0000
  C   C921      1.0  0.52307  0.52530  0.13151  1.0000
  C   C922      1.0  0.59013  0.73253  0.00257  1.0000
  H   H1601     1.0  0.69495  0.61821  0.99280  1.0000
  C   C923      1.0  0.92927  0.69307  0.03721  1.0000
  H   H1602     1.0  0.94309  0.69095  0.01724  1.0000
  H   H1603     1.0  0.56902  0.52661  0.12597  1.0000
  H   H1604     1.0  0.58614  0.56903  0.01308  1.0000
  H   H1605     1.0  0.90540  0.55262  0.28275  1.0000
  C   C924      1.0  0.50299  0.83694  0.07477  1.0000
  N   N54       1.0  0.76370  0.68519  0.19062  1.0000
  C   C925      1.0  0.74806  0.69619  0.21347  1.0000
  C   C926      1.0  0.80204  0.70883  0.18928  1.0000
  C   C927      1.0  0.75284  0.68799  0.15785  1.0000
  C   C928      1.0  0.75169  0.64756  0.20174  1.0000
  C   C929      1.0  0.75783  0.63840  0.23622  1.0000
  C   C930      1.0  0.70856  0.67112  0.22214  1.0000
  C   C931      1.0  0.77169  0.68448  0.12960  1.0000
  C   C932      1.0  0.81902  0.74867  0.17709  1.0000
  C   C933      1.0  0.85801  0.76940  0.17261  1.0000
  C   C934      1.0  0.73900  0.59860  0.24676  1.0000
  C   C935      1.0  0.69542  0.68565  0.24411  1.0000
  C   C936      1.0  0.75714  0.68582  0.09821  1.0000
  H   H1606     1.0  0.75415  0.72249  0.20305  1.0000
  H   H1607     1.0  0.75970  0.69992  0.23630  1.0000
  H   H1608     1.0  0.80951  0.70671  0.21360  1.0000
  H   H1609     1.0  0.81426  0.69993  0.17443  1.0000
  H   H1610     1.0  0.75549  0.71326  0.15111  1.0000
  H   H1611     1.0  0.72509  0.66719  0.15844  1.0000
  H   H1612     1.0  0.72402  0.62940  0.20013  1.0000
  H   H1613     1.0  0.76445  0.64015  0.18554  1.0000
  H   H1614     1.0  0.74892  0.64767  0.25411  1.0000
  H   H1615     1.0  0.78544  0.65060  0.23700  1.0000
  H   H1616     1.0  0.69590  0.66795  0.20013  1.0000
  H   H1617     1.0  0.70032  0.64476  0.23497  1.0000
  H   H1618     1.0  0.76898  0.65913  0.13444  1.0000
  H   H1619     1.0  0.79939  0.70629  0.12541  1.0000
  H   H1620     1.0  0.81130  0.75350  0.15367  1.0000
  H   H1621     1.0  0.81182  0.75959  0.19491  1.0000
  H   H1622     1.0  0.86962  0.79809  0.16654  1.0000
  H   H1623     1.0  0.86722  0.76422  0.19497  1.0000
  H   H1624     1.0  0.86662  0.76197  0.15252  1.0000
  H   H1625     1.0  0.71090  0.58512  0.24793  1.0000
  H   H1626     1.0  0.74742  0.58806  0.22966  1.0000
  H   H1627     1.0  0.74478  0.59275  0.27099  1.0000
  H   H1628     1.0  0.60213  0.76092  0.00251  1.0000
  C   C937      1.0  0.84562  0.58580  0.21924  1.0000
  H   H1629     1.0  0.87936  0.65825  0.06672  1.0000
  H   H1630     1.0  0.77134  0.68380  0.07833  1.0000
  H   H1631     1.0  0.72970  0.66352  0.10048  1.0000
  H   H1632     1.0  0.75975  0.71107  0.09185  1.0000
  H   H1633     1.0  0.88089  0.98094  0.18941  1.0000
  C   C938      1.0  0.51750  0.81506  0.07972  1.0000
  H   H1634     1.0  0.78335  0.57117  0.06560  1.0000
  H   H1635     1.0  0.61478  0.89937  0.18621  1.0000
  H   H1636     1.0  0.95439  0.57450  0.05733  1.0000
  C   C939      1.0  0.83334  0.54889  0.21447  1.0000
  H   H1637     1.0  0.82398  0.58831  0.21867  1.0000
  H   H1638     1.0  0.88063  0.48568  0.19973  1.0000
  C   C940      1.0  0.73847  0.50554  0.04597  1.0000
  H   H1639     1.0  0.84587  0.96029  0.25916  1.0000
  C   C941      1.0  0.67881  0.67917  0.00802  1.0000
  H   H1640     1.0  0.69384  0.69208  0.98371  1.0000
  H   H1641     1.0  0.91838  0.52246  0.23672  1.0000
  H   H1642     1.0  0.97313  0.55705  0.20120  1.0000
  H   H1643     1.0  0.60628  0.75400  0.22388  1.0000
  C   C942      1.0  0.84951  0.55734  0.01810  1.0000
  H   H1644     1.0  0.75446  0.90414  0.14804  1.0000
  C   C943      1.0  0.49476  0.56954  0.07784  1.0000
  C   C944      1.0  0.86308  0.54446  0.21504  1.0000
  C   C945      1.0  0.52307  0.74064  0.28104  1.0000
  H   H1645     1.0  0.68735  0.86028  0.30375  1.0000
  H   H1646     1.0  0.59105  0.67415  0.02809  1.0000
  H   H1647     1.0  0.62537  0.49551  0.22052  1.0000
  H   H1648     1.0  0.70731  0.68943  0.26671  1.0000
  H   H1649     1.0  0.80399  0.53755  0.04957  1.0000
  H   H1650     1.0  0.75367  0.49637  0.03709  1.0000
  H   H1651     1.0  0.89022  0.95276  0.30304  1.0000
  H   H1652     1.0  0.74871  0.59123  0.99251  1.0000
  H   H1653     1.0  0.79889  0.55145  0.98815  1.0000
  H   H1654     1.0  0.57118  0.76839  0.30230  1.0000
  H   H1655     1.0  0.79386  0.62202  0.98806  1.0000
  C   C946      1.0  0.62105  0.49975  0.10353  1.0000
  C   C947      1.0  0.70420  0.69080  0.03260  1.0000
  C   C948      1.0  0.60549  0.63776  0.99343  1.0000
  H   H1656     1.0  0.87959  0.82485  0.04767  1.0000
  N   N55       1.0  0.62610  0.67712  0.99187  1.0000
  C   C949      1.0  0.95348  0.63833  0.21287  1.0000
  H   H1657     1.0  0.54819  0.79808  0.02990  1.0000
  H   H1658     1.0  0.60445  0.79180  0.05557  1.0000
  C   C950      1.0  0.96669  0.61534  0.01824  1.0000
  C   C951      1.0  0.59525  0.80685  0.04321  1.0000
  H   H1659     1.0  0.54212  0.74665  0.08810  1.0000
  H   H1660     1.0  0.54533  0.70028  0.28217  1.0000
  C   C952      1.0  0.91935  0.53504  0.21217  1.0000
  H   H1661     1.0  0.96428  0.63788  0.27473  1.0000
  H   H1662     1.0  0.57931  0.67406  0.98914  1.0000
  H   H1663     1.0  0.49292  0.73851  0.03369  1.0000
  H   H1664     1.0  0.68510  0.82560  0.25225  1.0000
  Fe  Fe107     1.0  0.89117  0.71165  0.28936  1.0000
  H   H1665     1.0  0.74465  0.52840  0.27898  1.0000
  H   H1666     1.0  0.87044  0.58219  0.00217  1.0000
  S   S212      1.0  0.84525  0.69989  0.26625  1.0000
  H   H1667     1.0  0.52393  0.76883  0.14203  1.0000
  C   C953      1.0  0.49571  0.75207  0.14301  1.0000
  H   H1668     1.0  0.64157  0.54903  0.24348  1.0000
  C   C954      1.0  0.56155  0.54408  0.13154  1.0000
  H   H1669     1.0  0.48877  0.70949  0.12091  1.0000
  H   H1670     1.0  0.54147  0.82885  0.06277  1.0000
  H   H1671     1.0  0.90196  0.63845  0.06282  1.0000
  C   C955      1.0  0.95133  0.70855  0.06448  1.0000
  H   H1672     1.0  0.93495  0.71120  0.08149  1.0000
  C   C956      1.0  0.88529  0.94131  0.28076  1.0000
  C   C957      1.0  0.80584  0.57017  0.00507  1.0000
  H   H1673     1.0  0.66926  0.71845  0.01118  1.0000
  C   C958      1.0  0.82477  0.48785  0.19612  1.0000
  H   H1674     1.0  0.83777  0.53561  0.00411  1.0000
  H   H1675     1.0  0.56902  0.55122  0.15542  1.0000
  C   C959      1.0  0.71528  0.89183  0.25581  1.0000
  H   H1676     1.0  0.86640  0.60626  0.19991  1.0000
  H   H1677     1.0  0.66721  0.66669  0.25044  1.0000
  H   H1678     1.0  0.95326  0.68785  0.07782  1.0000
  H   H1679     1.0  0.80572  0.61306  0.04082  1.0000
  H   H1680     1.0  0.48659  0.58711  0.13485  1.0000
  H   H1681     1.0  0.83085  0.50380  0.17166  1.0000
  C   C960      1.0  0.89505  0.96943  0.25123  1.0000
  H   H1682     1.0  0.96629  0.68392  0.23164  1.0000
  S   S213      1.0  0.88738  0.59771  0.30030  1.0000
  H   H1683     1.0  0.64181  0.67933  0.03946  1.0000
  H   H1684     1.0  0.68096  0.91378  0.23816  1.0000
  H   H1685     1.0  0.60356  0.53420  0.20046  1.0000
  S   S214      1.0  0.85328  0.68297  0.00335  1.0000
  H   H1686     1.0  0.70632  0.63907  0.29621  1.0000
  H   H1687     1.0  0.98120  0.89406  0.26069  1.0000
  H   H1688     1.0  0.52135  0.57721  0.07770  1.0000
  H   H1689     1.0  0.73835  0.52349  0.99707  1.0000
  C   C961      1.0  0.70709  0.97209  0.30604  1.0000
  H   H1690     1.0  0.88277  0.64496  0.02940  1.0000
  S   S215      1.0  0.97517  0.65337  0.11640  1.0000
  N   N56       1.0  0.50427  0.70348  0.29971  1.0000
  H   H1691     1.0  0.52226  0.86415  0.07864  1.0000
  H   H1692     1.0  0.72798  0.56479  0.06500  1.0000
  Fe  Fe108     1.0  0.86998  0.63516  0.29741  1.0000
  H   H1693     1.0  0.92147  0.71023  0.02725  1.0000
  H   H1694     1.0  0.57224  0.71692  0.02520  1.0000
  H   H1695     1.0  0.50458  0.74652  0.27312  1.0000
  H   H1696     1.0  0.93947  0.53474  0.02753  1.0000
  H   H1697     1.0  0.51049  0.60913  0.26903  1.0000
  H   H1698     1.0  0.74704  0.51512  0.06865  1.0000
  H   H1699     1.0  0.88148  0.56324  0.19329  1.0000
  H   H1700     1.0  0.96651  0.77009  0.03166  1.0000
  H   H1701     1.0  0.56129  0.55968  0.05085  1.0000
  S   S216      1.0  0.93534  0.76643  0.29614  1.0000
  H   H1702     1.0  0.97853  0.76767  0.14603  1.0000
  C   C962      1.0  0.49023  0.67493  0.24852  1.0000
  S   S217      1.0  0.69163  0.96598  0.26813  1.0000
  H   H1703     1.0  0.50418  0.66271  0.25302  1.0000
  H   H1704     1.0  0.96289  0.95618  0.02129  1.0000
  H   H1705     1.0  0.90070  0.93061  0.27836  1.0000
  C   C963      1.0  0.59164  0.61474  0.02770  1.0000
  H   H1706     1.0  0.72017  0.53575  0.02433  1.0000
  H   H1707     1.0  0.50742  0.70071  0.23219  1.0000
  C   C964      1.0  0.89641  0.65649  0.04991  1.0000
  H   H1708     1.0  0.91651  0.88232  0.98682  1.0000
  H   H1709     1.0  0.92506  0.85614  0.03644  1.0000
  H   H1710     1.0  0.82085  0.96332  0.14912  1.0000
  H   H1711     1.0  0.76781  0.59549  0.10585  1.0000
  H   H1712     1.0  0.91679  0.65327  0.13632  1.0000
  H   H1713     1.0  0.80846  0.97224  0.25608  1.0000
  H   H1714     1.0  0.74118  0.61033  0.09613  1.0000
  H   H1715     1.0  0.55075  0.76130  0.03052  1.0000
  C   C965      1.0  0.76249  0.60951  0.08641  1.0000
  H   H1716     1.0  0.51488  0.54879  0.16714  1.0000
  H   H1717     1.0  0.74914  0.60712  0.03878  1.0000
  H   H1718     1.0  0.66915  0.50981  0.26114  1.0000
  H   H1719     1.0  0.54311  0.81048  0.27587  1.0000
  H   H1720     1.0  0.61076  0.76411  0.26384  1.0000
  H   H1721     1.0  0.52444  0.81517  0.10442  1.0000
  H   H1722     1.0  0.75709  0.89312  0.20801  1.0000
  C   C966      1.0  0.49142  0.77715  0.07344  1.0000
  H   H1723     1.0  0.81149  0.52964  0.23325  1.0000
  C   C967      1.0  0.51125  0.54784  0.14143  1.0000
  H   H1724     1.0  0.58334  0.82741  0.29123  1.0000
  H   H1725     1.0  0.54782  0.56813  0.01356  1.0000
  H   H1726     1.0  0.92969  0.61950  0.22997  1.0000
  H   H1727     1.0  0.97619  0.56480  0.10386  1.0000
  H   H1728     1.0  0.85785  0.91900  0.28302  1.0000
  N   N57       1.0  0.77542  0.57054  0.01513  1.0000
  C   C968      1.0  0.51453  0.57015  0.25190  1.0000
  S   S218      1.0  0.85977  0.75603  0.98199  1.0000
  H   H1729     1.0  0.48751  0.54504  0.03545  1.0000
  H   H1730     1.0  0.83967  0.82377  0.00956  1.0000
  H   H1731     1.0  0.64597  0.98023  0.29851  1.0000
  S   S219      1.0  0.48789  0.65179  0.10248  1.0000
  C   C969      1.0  0.91568  0.56005  0.30487  1.0000
  C   C970      1.0  0.97862  0.67040  0.22756  1.0000
  C   C971      1.0  0.56383  0.80663  0.27876  1.0000
  H   H1732     1.0  0.52068  0.97188  0.01206  1.0000
  H   H1733     1.0  0.55757  0.65598  0.30393  1.0000
  C   C972      1.0  0.98192  0.95989  0.03770  1.0000
  C   C973      1.0  0.61965  0.97322  0.29800  1.0000
  H   H1734     1.0  0.96102  0.53117  0.08002  1.0000
  H   H1735     1.0  0.98014  0.75272  0.00544  1.0000
  H   H1736     1.0  0.49397  0.59141  0.08381  1.0000
  H   H1737     1.0  0.51024  0.50021  0.14915  1.0000
  H   H1738     1.0  0.49643  0.83834  0.04989  1.0000
  C   C974      1.0  0.84670  0.48822  0.24909  1.0000
  H   H1739     1.0  0.87862  0.77319  0.30711  1.0000
  H   H1740     1.0  0.60575  0.98232  0.23370  1.0000
  H   H1741     1.0  0.97830  0.51098  0.27697  1.0000
  H   H1742     1.0  0.98309  0.89082  0.21882  1.0000
  H   H1743     1.0  0.50459  0.59124  0.02676  1.0000
  Fe  Fe109     1.0  0.81477  0.65149  0.30513  1.0000
  H   H1744     1.0  0.96543  0.62497  0.20642  1.0000
  H   H1745     1.0  0.69012  0.52463  0.29601  1.0000
  C   C975      1.0  0.60425  0.48919  0.16376  1.0000
  H   H1746     1.0  0.82038  0.50531  0.27583  1.0000
  H   H1747     1.0  0.65078  0.52013  0.29171  1.0000
  H   H1748     1.0  0.82714  0.59671  0.99146  1.0000
  H   H1749     1.0  0.96529  0.68158  0.29887  1.0000
  C   C976      1.0  0.52964  0.69452  0.30524  1.0000
  H   H1750     1.0  0.68416  0.89656  0.29206  1.0000
  C   C977      1.0  0.54937  0.77022  0.29860  1.0000
  H   H1751     1.0  0.63163  0.49997  0.16548  1.0000
  S   S220      1.0  0.96620  0.97999  0.30175  1.0000
  C   C978      1.0  0.89501  0.85546  0.99893  1.0000
  H   H1752     1.0  0.49551  0.57454  0.19000  1.0000
  H   H1753     1.0  0.48798  0.78026  0.04754  1.0000
  H   H1754     1.0  0.49654  0.63688  0.30696  1.0000
  C   C979      1.0  0.73946  0.51114  0.30146  1.0000
  H   H1755     1.0  0.49041  0.71104  0.17886  1.0000
  H   H1756     1.0  0.80061  0.84222  0.01092  1.0000
  H   H1757     1.0  0.58111  0.97881  0.18062  1.0000
  S   S221      1.0  0.76832  0.66686  0.98128  1.0000
  C   C980      1.0  0.93237  0.79901  0.30978  1.0000
  H   H1758     1.0  0.48907  0.74395  0.19527  1.0000
  H   H1759     1.0  0.98311  0.85946  0.24847  1.0000
  H   H1760     1.0  0.93667  0.52928  0.30757  1.0000
  H   H1761     1.0  0.86076  0.86986  0.00674  1.0000
  H   H1762     1.0  0.86320  0.97655  0.13368  1.0000
  H   H1763     1.0  0.64375  0.59126  0.30801  1.0000
  H   H1764     1.0  0.75295  0.83027  0.97950  1.0000
  H   H1765     1.0  0.76659  0.86591  0.00105  1.0000
  H   H1766     1.0  0.82684  0.88703  0.98959  1.0000
  C   C981      1.0  0.80662  0.85957  0.98736  1.0000
  H   H1767     1.0  0.54082  0.88546  0.98779  1.0000
  H   H1768     1.0  0.80123  0.48408  0.20703  1.0000
  H   H1769     1.0  0.74873  0.90261  0.31064  1.0000
  C   C982      1.0  0.73092  0.91066  0.30987  1.0000
  H   H1770     1.0  0.51144  0.89780  0.98164  1.0000
  H   H1771     1.0  0.53678  0.97192  0.62209  1.0000
  C   C983      1.0  0.81008  0.90579  0.55008  1.0000
  S   S222      1.0  0.60547  0.52361  0.35436  1.0000
  H   H1772     1.0  0.72529  0.79222  0.59456  1.0000
  C   C984      1.0  0.57297  0.50978  0.43434  1.0000
  H   H1773     1.0  0.53775  0.76880  0.32239  1.0000
  Fe  Fe110     1.0  0.97274  0.94345  0.33558  1.0000
  S   S223      1.0  0.92790  0.88544  0.34550  1.0000
  C   C985      1.0  0.73999  0.52225  0.33086  1.0000
  H   H1774     1.0  0.91348  0.59498  0.44674  1.0000
  C   C986      1.0  0.53797  0.98334  0.48806  1.0000
  H   H1775     1.0  0.82508  0.89456  0.54785  1.0000
  H   H1776     1.0  0.53377  0.51816  0.43627  1.0000
  Fe  Fe111     1.0  0.75869  0.98129  0.51943  1.0000
  H   H1777     1.0  0.57237  0.94253  0.33153  1.0000
  H   H1778     1.0  0.97986  0.94545  0.50257  1.0000
  H   H1779     1.0  0.86045  0.73159  0.37130  1.0000
  H   H1780     1.0  0.66214  0.98304  0.64302  1.0000
  H   H1781     1.0  0.93461  0.52253  0.48612  1.0000
  H   H1782     1.0  0.58778  0.96417  0.56795  1.0000
  S   S224      1.0  0.86127  0.66505  0.33022  1.0000
  H   H1783     1.0  0.64317  0.65716  0.48729  1.0000
  Fe  Fe112     1.0  0.54658  0.58417  0.61585  1.0000
  S   S225      1.0  0.52700  0.54055  0.58719  1.0000
  Fe  Fe113     1.0  0.55554  0.63698  0.55813  1.0000
  S   S226      1.0  0.53702  0.59702  0.52517  1.0000
  S   S227      1.0  0.56635  0.69116  0.53983  1.0000
  H   H1784     1.0  0.57149  0.50408  0.46096  1.0000
  S   S228      1.0  0.49323  0.98040  0.38005  1.0000
  Fe  Fe114     1.0  0.56967  0.58162  0.54860  1.0000
  S   S229      1.0  0.60775  0.57675  0.51954  1.0000
  S   S230      1.0  0.51194  0.59910  0.59800  1.0000
  S   S231      1.0  0.59117  0.62470  0.57810  1.0000
  H   H1785     1.0  0.51046  0.88138  0.38506  1.0000
  S   S232      1.0  0.73270  0.51155  0.48718  1.0000
  H   H1786     1.0  0.55610  0.94308  0.39057  1.0000
  Fe  Fe115     1.0  0.70078  0.90406  0.51770  1.0000
  H   H1787     1.0  0.82824  0.93421  0.53942  1.0000
  S   S233      1.0  0.69088  0.85124  0.54079  1.0000
  C   C987      1.0  0.84781  0.49448  0.53385  1.0000
  H   H1788     1.0  0.60024  0.92833  0.33640  1.0000
  C   C988      1.0  0.85890  0.95278  0.59317  1.0000
  S   S234      1.0  0.81080  0.52362  0.52213  1.0000
  S   S235      1.0  0.67320  0.91951  0.48501  1.0000
  S   S236      1.0  0.75248  0.94377  0.48803  1.0000
  C   C989      1.0  0.84683  0.52389  0.53277  1.0000
  N   N58       1.0  0.79808  0.90157  0.58492  1.0000
  S   S237      1.0  0.73026  0.51374  0.39654  1.0000
  C   C990      1.0  0.90639  0.52785  0.54833  1.0000
  C   C991      1.0  0.90543  0.55726  0.54720  1.0000
  C   C992      1.0  0.87581  0.55517  0.53969  1.0000
  H   H1789     1.0  0.53010  0.62199  0.33800  1.0000
  H   H1790     1.0  0.54825  0.71165  0.32076  1.0000
  H   H1791     1.0  0.92743  0.58159  0.55224  1.0000
  H   H1792     1.0  0.87548  0.57816  0.53889  1.0000
  C   C993      1.0  0.61584  0.54371  0.52629  1.0000
  C   C994      1.0  0.64583  0.55052  0.51023  1.0000
  H   H1793     1.0  0.95518  0.93693  0.55898  1.0000
  H   H1794     1.0  0.82463  0.97038  0.42411  1.0000
  H   H1795     1.0  0.52652  0.94310  0.41792  1.0000
  C   C995      1.0  0.59298  0.51076  0.54612  1.0000
  C   C996      1.0  0.93377  0.54708  0.31876  1.0000
  C   C997      1.0  0.84732  0.49372  0.38886  1.0000
  H   H1796     1.0  0.49878  0.91128  0.37431  1.0000
  H   H1797     1.0  0.56982  0.50501  0.55874  1.0000
  C   C998      1.0  0.60164  0.73544  0.53996  1.0000
  C   C999      1.0  0.63181  0.74374  0.55196  1.0000
  C   C1000     1.0  0.65882  0.77928  0.55183  1.0000
  C   C1001     1.0  0.65622  0.80702  0.53950  1.0000
  C   C1002     1.0  0.62617  0.79874  0.52727  1.0000
  C   C1003     1.0  0.59908  0.76319  0.52760  1.0000
  H   H1798     1.0  0.63438  0.72278  0.56115  1.0000
  H   H1799     1.0  0.68205  0.78538  0.56100  1.0000
  H   H1800     1.0  0.62368  0.81967  0.51776  1.0000
  H   H1801     1.0  0.57591  0.75713  0.51820  1.0000
  H   H1802     1.0  0.79867  0.84087  0.61046  1.0000
  C   C1004     1.0  0.78172  0.88988  0.52787  1.0000
  H   H1803     1.0  0.95592  0.58971  0.38217  1.0000
  S   S238      1.0  0.64332  0.96568  0.53777  1.0000
  H   H1804     1.0  0.74615  0.85526  0.58762  1.0000
  H   H1805     1.0  0.83422  0.74738  0.36367  1.0000
  H   H1806     1.0  0.67998  0.59190  0.40104  1.0000
  C   C1005     1.0  0.53398  0.92649  0.40974  1.0000
  C   C1006     1.0  0.97578  0.96466  0.56034  1.0000
  H   H1807     1.0  0.97753  0.50404  0.45044  1.0000
  C   C1007     1.0  0.94812  0.55729  0.34701  1.0000
  H   H1808     1.0  0.51612  0.97480  0.50622  1.0000
  C   C1008     1.0  0.85837  0.50467  0.44481  1.0000
  C   C1009     1.0  0.60006  0.48508  0.54955  1.0000
  C   C1010     1.0  0.92590  0.59357  0.34703  1.0000
  C   C1011     1.0  0.94436  0.58095  0.36073  1.0000
  C   C1012     1.0  0.87731  0.49646  0.54167  1.0000
  H   H1809     1.0  0.55922  0.66691  0.34363  1.0000
  H   H1810     1.0  0.76419  0.86074  0.53477  1.0000
  C   C1013     1.0  0.90053  0.82262  0.32398  1.0000
  C   C1014     1.0  0.64997  0.55689  0.34114  1.0000
  C   C1015     1.0  0.67426  0.55283  0.35471  1.0000
  C   C1016     1.0  0.70963  0.57874  0.34633  1.0000
  C   C1017     1.0  0.72163  0.61010  0.32532  1.0000
  C   C1018     1.0  0.61998  0.63502  0.33745  1.0000
  H   H1811     1.0  0.77617  0.88699  0.47747  1.0000
  H   H1812     1.0  0.59034  0.64581  0.43753  1.0000
  H   H1813     1.0  0.72762  0.57541  0.35791  1.0000
  C   C1019     1.0  0.82385  0.52432  0.35790  1.0000
  H   H1814     1.0  0.91032  0.54849  0.42253  1.0000
  H   H1815     1.0  0.90447  0.50252  0.40821  1.0000
  H   H1816     1.0  0.51897  0.89243  0.45606  1.0000
  H   H1817     1.0  0.80100  0.52464  0.35607  1.0000
  H   H1818     1.0  0.87652  0.81983  0.32683  1.0000
  H   H1819     1.0  0.79336  0.54764  0.43426  1.0000
  S   S239      1.0  0.70864  0.94123  0.55089  1.0000
  C   C1020     1.0  0.89394  0.56679  0.45730  1.0000
  H   H1820     1.0  0.82991  0.71423  0.34278  1.0000
  C   C1021     1.0  0.96981  0.49185  0.50388  1.0000
  C   C1022     1.0  0.88579  0.96361  0.61620  1.0000
  C   C1023     1.0  0.81389  0.57171  0.41733  1.0000
  H   H1821     1.0  0.59426  0.98173  0.47403  1.0000
  S   S240      1.0  0.96979  0.54049  0.36686  1.0000
  H   H1822     1.0  0.76152  0.90315  0.63838  1.0000
  C   C1024     1.0  0.68110  0.58316  0.42639  1.0000
  C   C1025     1.0  0.73097  0.97798  0.36704  1.0000
  H   H1823     1.0  0.94675  0.95967  0.47676  1.0000
  H   H1824     1.0  0.91511  0.97252  0.43921  1.0000
  C   C1026     1.0  0.68575  0.94724  0.33378  1.0000
  C   C1027     1.0  0.96071  0.97763  0.45344  1.0000
  H   H1825     1.0  0.64384  0.69062  0.45967  1.0000
  C   C1028     1.0  0.51419  0.65596  0.32174  1.0000
  H   H1826     1.0  0.64493  0.66260  0.41391  1.0000
  C   C1029     1.0  0.66191  0.58765  0.31887  1.0000
  C   C1030     1.0  0.77777  0.92863  0.62144  1.0000
  H   H1827     1.0  0.68102  0.93069  0.38516  1.0000
  C   C1031     1.0  0.93041  0.85298  0.33086  1.0000
  H   H1828     1.0  0.64376  0.62904  0.44205  1.0000
  H   H1829     1.0  0.85101  0.97096  0.59223  1.0000
  H   H1830     1.0  0.95907  0.96131  0.43587  1.0000
  H   H1831     1.0  0.61097  0.96789  0.34996  1.0000
  C   C1032     1.0  0.78412  0.92331  0.58709  1.0000
  H   H1832     1.0  0.58737  0.61586  0.47056  1.0000
  S   S241      1.0  0.94274  0.52841  0.55824  1.0000
  C   C1033     1.0  0.71381  0.58497  0.42929  1.0000
  H   H1833     1.0  0.98506  0.61690  0.64116  1.0000
  C   C1034     1.0  0.65307  0.65711  0.63795  1.0000
  Fe  Fe116     1.0  0.55442  0.50917  0.33809  1.0000
  C   C1035     1.0  0.77798  0.83627  0.59606  1.0000
  H   H1834     1.0  0.52516  0.67467  0.60616  1.0000
  C   C1036     1.0  0.76983  0.86361  0.59882  1.0000
  H   H1835     1.0  0.65847  0.55559  0.43472  1.0000
  H   H1836     1.0  0.63953  0.96381  0.46849  1.0000
  H   H1837     1.0  0.94815  0.48391  0.52200  1.0000
  H   H1838     1.0  0.60538  0.96668  0.40896  1.0000
  H   H1839     1.0  0.71320  0.56676  0.41452  1.0000
  H   H1840     1.0  0.64204  0.63815  0.32378  1.0000
  H   H1841     1.0  0.83858  0.89800  0.60116  1.0000
  H   H1842     1.0  0.96562  0.73114  0.32305  1.0000
  C   C1037     1.0  0.52422  0.60080  0.43594  1.0000
  C   C1038     1.0  0.96211  0.82911  0.31712  1.0000
  H   H1843     1.0  0.81216  0.88764  0.48996  1.0000
  H   H1844     1.0  0.94979  0.53380  0.44365  1.0000
  H   H1845     1.0  0.75931  0.91115  0.57709  1.0000
  C   C1039     1.0  0.56062  0.53307  0.42474  1.0000
  C   C1040     1.0  0.69754  0.95021  0.36416  1.0000
  H   H1846     1.0  0.66406  0.57612  0.49558  1.0000
  C   C1041     1.0  0.59950  0.95172  0.33105  1.0000
  H   H1847     1.0  0.89542  0.94686  0.61728  1.0000
  C   C1042     1.0  0.49547  0.97481  0.63650  1.0000
  H   H1848     1.0  0.66006  0.92541  0.33170  1.0000
  H   H1849     1.0  0.81575  0.50978  0.40905  1.0000
  H   H1850     1.0  0.58144  0.56288  0.46242  1.0000
  C   C1043     1.0  0.63950  0.97450  0.44359  1.0000
  H   H1851     1.0  0.98587  0.83137  0.31515  1.0000
  H   H1852     1.0  0.61022  0.57987  0.42662  1.0000
  C   C1044     1.0  0.53973  0.95224  0.48533  1.0000
  C   C1045     1.0  0.54248  0.90935  0.43816  1.0000
  H   H1853     1.0  0.81387  0.92768  0.48418  1.0000
  C   C1046     1.0  0.65285  0.52486  0.51355  1.0000
  H   H1854     1.0  0.96485  0.97462  0.57545  1.0000
  N   N59       1.0  0.57305  0.93436  0.45390  1.0000
  C   C1047     1.0  0.57284  0.91370  0.48461  1.0000
  C   C1048     1.0  0.60502  0.95017  0.43063  1.0000
  H   H1855     1.0  0.52900  0.61425  0.41066  1.0000
  C   C1049     1.0  0.58076  0.88650  0.48043  1.0000
  H   H1856     1.0  0.55773  0.58915  0.37940  1.0000
  C   C1050     1.0  0.58001  0.86748  0.51310  1.0000
  H   H1857     1.0  0.54737  0.89873  0.49958  1.0000
  H   H1858     1.0  0.59077  0.93165  0.50002  1.0000
  H   H1859     1.0  0.54625  0.89052  0.42872  1.0000
  H   H1860     1.0  0.60509  0.92913  0.42115  1.0000
  H   H1861     1.0  0.56102  0.53711  0.39831  1.0000
  H   H1862     1.0  0.55672  0.48446  0.42567  1.0000
  H   H1863     1.0  0.52096  0.55580  0.42507  1.0000
  H   H1864     1.0  0.56163  0.86629  0.46733  1.0000
  H   H1865     1.0  0.60651  0.89951  0.46690  1.0000
  H   H1866     1.0  0.92308  0.61147  0.35814  1.0000
  H   H1867     1.0  0.53179  0.56436  0.46440  1.0000
  H   H1868     1.0  0.66605  0.53014  0.37278  1.0000
  S   S242      1.0  0.52371  0.96702  0.31717  1.0000
  H   H1869     1.0  0.59931  0.88668  0.52694  1.0000
  H   H1870     1.0  0.55424  0.85269  0.52733  1.0000
  H   H1871     1.0  0.58621  0.84851  0.50948  1.0000
  C   C1051     1.0  0.63497  0.64643  0.43849  1.0000
  N   N60       1.0  0.78063  0.63082  0.42273  1.0000
  C   C1052     1.0  0.78153  0.59984  0.41839  1.0000
  C   C1053     1.0  0.74604  0.62313  0.41732  1.0000
  C   C1054     1.0  0.80719  0.66173  0.39713  1.0000
  C   C1055     1.0  0.78981  0.64122  0.45510  1.0000
  C   C1056     1.0  0.76713  0.61252  0.48507  1.0000
  C   C1057     1.0  0.81551  0.60391  0.42368  1.0000
  C   C1058     1.0  0.80699  0.69506  0.39311  1.0000
  C   C1059     1.0  0.78344  0.62343  0.51570  1.0000
  C   C1060     1.0  0.83462  0.72373  0.36609  1.0000
  H   H1872     1.0  0.77585  0.59398  0.39372  1.0000
  H   H1873     1.0  0.74232  0.64139  0.42807  1.0000
  H   H1874     1.0  0.74495  0.62843  0.39106  1.0000
  H   H1875     1.0  0.80422  0.65347  0.37324  1.0000
  H   H1876     1.0  0.83350  0.67083  0.40177  1.0000
  H   H1877     1.0  0.81698  0.65128  0.45695  1.0000
  H   H1878     1.0  0.78851  0.66374  0.45768  1.0000
  H   H1879     1.0  0.76300  0.58711  0.48325  1.0000
  H   H1880     1.0  0.74204  0.60871  0.48829  1.0000
  H   H1881     1.0  0.83751  0.62699  0.40713  1.0000
  H   H1882     1.0  0.82071  0.60676  0.44888  1.0000
  H   H1883     1.0  0.81214  0.70626  0.41546  1.0000
  H   H1884     1.0  0.78213  0.68912  0.38673  1.0000
  H   H1885     1.0  0.78787  0.64873  0.51916  1.0000
  H   H1886     1.0  0.76605  0.60280  0.53685  1.0000
  H   H1887     1.0  0.80813  0.62623  0.51454  1.0000
  H   H1888     1.0  0.80897  0.56787  0.39221  1.0000
  C   C1061     1.0  0.96125  0.85610  0.32731  1.0000
  C   C1062     1.0  0.58060  0.60783  0.39063  1.0000
  H   H1889     1.0  0.78600  0.83741  0.57076  1.0000
  C   C1063     1.0  0.95889  0.49787  0.47098  1.0000
  H   H1890     1.0  0.87051  0.56397  0.46709  1.0000
  H   H1891     1.0  0.83480  0.50202  0.45412  1.0000
  C   C1064     1.0  0.61152  0.61278  0.37088  1.0000
  H   H1892     1.0  0.53657  0.62089  0.45156  1.0000
  H   H1893     1.0  0.67995  0.60035  0.44130  1.0000
  Fe  Fe117     1.0  0.49553  0.55873  0.56614  1.0000
  C   C1065     1.0  0.95558  0.52867  0.46810  1.0000
  H   H1894     1.0  0.49992  0.64961  0.34572  1.0000
  C   C1066     1.0  0.65128  0.67195  0.46210  1.0000
  H   H1895     1.0  0.87203  0.51862  0.37748  1.0000
  C   C1067     1.0  0.79711  0.89866  0.49275  1.0000
  H   H1896     1.0  0.71308  0.57466  0.45452  1.0000
  H   H1897     1.0  0.87495  0.96151  0.64074  1.0000
  C   C1068     1.0  0.66923  0.97934  0.42300  1.0000
  H   H1898     1.0  0.87769  0.55453  0.41162  1.0000
  H   H1899     1.0  0.62704  0.66170  0.33942  1.0000
  H   H1900     1.0  0.60544  0.58684  0.36747  1.0000
  H   H1901     1.0  0.84580  0.55143  0.35931  1.0000
  H   H1902     1.0  0.58300  0.63313  0.38575  1.0000
  Fe  Fe118     1.0  0.72565  0.96188  0.45772  1.0000
  H   H1903     1.0  0.67960  0.68734  0.45713  1.0000
  H   H1904     1.0  0.76635  0.90059  0.52917  1.0000
  C   C1069     1.0  0.91124  0.58306  0.31898  1.0000
  C   C1070     1.0  0.88612  0.54433  0.43147  1.0000
  C   C1071     1.0  0.81808  0.49898  0.38815  1.0000
  H   H1905     1.0  0.74593  0.54821  0.33063  1.0000
  H   H1906     1.0  0.73418  0.93071  0.61321  1.0000
  H   H1907     1.0  0.62445  0.96393  0.62305  1.0000
  H   H1908     1.0  0.59774  0.62206  0.32380  1.0000
  Fe  Fe119     1.0  0.68464  0.95980  0.51654  1.0000
  S   S243      1.0  0.76548  0.64654  0.32131  1.0000
  H   H1909     1.0  0.59981  0.52295  0.42339  1.0000
  H   H1910     1.0  0.76108  0.57537  0.43482  1.0000
  H   H1911     1.0  0.63492  0.62547  0.38269  1.0000
  H   H1912     1.0  0.63008  0.62972  0.63966  1.0000
  C   C1072     1.0  0.90157  0.79598  0.31307  1.0000
  H   H1913     1.0  0.72052  0.90746  0.33497  1.0000
  H   H1914     1.0  0.80234  0.94531  0.63105  1.0000
  H   H1915     1.0  0.94329  0.56613  0.61804  1.0000
  Fe  Fe120     1.0  0.49263  0.51490  0.34449  1.0000
  H   H1916     1.0  0.50561  0.71245  0.34892  1.0000
  H   H1917     1.0  0.90432  0.55897  0.47705  1.0000
  C   C1073     1.0  0.59547  0.62560  0.44411  1.0000
  H   H1918     1.0  0.83865  0.57561  0.42075  1.0000
  H   H1919     1.0  0.68708  0.81362  0.61689  1.0000
  N   N61       1.0  0.57493  0.59516  0.42656  1.0000
  C   C1074     1.0  0.58341  0.56892  0.43579  1.0000
  C   C1075     1.0  0.53750  0.57717  0.43863  1.0000
  H   H1920     1.0  0.73791  0.79578  0.63457  1.0000
  C   C1076     1.0  0.82804  0.91359  0.60367  1.0000
  C   C1077     1.0  0.75971  0.94699  0.62136  1.0000
  H   H1921     1.0  0.87168  0.95682  0.56898  1.0000
  H   H1922     1.0  0.80121  0.94988  0.57169  1.0000
  C   C1078     1.0  0.73257  0.49991  0.36027  1.0000
  H   H1923     1.0  0.51562  0.93193  0.47706  1.0000
  H   H1924     1.0  0.81969  0.90839  0.62992  1.0000
  H   H1925     1.0  0.97987  0.55309  0.47181  1.0000
  C   C1079     1.0  0.54211  0.65004  0.32710  1.0000
  C   C1080     1.0  0.57167  0.96390  0.46214  1.0000
  H   H1926     1.0  0.67612  0.53067  0.50121  1.0000
  C   C1081     1.0  0.63001  0.49191  0.53327  1.0000
  H   H1927     1.0  0.66588  0.48357  0.34950  1.0000
  C   C1082     1.0  0.94227  0.54961  0.64011  1.0000
  C   C1083     1.0  0.67443  0.80827  0.64158  1.0000
  C   C1084     1.0  0.48665  0.69951  0.33195  1.0000
  H   H1928     1.0  0.82891  0.51662  0.33586  1.0000
  C   C1085     1.0  0.74655  0.79875  0.60889  1.0000
  H   H1929     1.0  0.76252  0.86058  0.62489  1.0000
  H   H1930     1.0  0.86697  0.49755  0.46673  1.0000
  C   C1086     1.0  0.50416  0.89833  0.39462  1.0000
  H   H1931     1.0  0.54089  0.94135  0.50985  1.0000
  Fe  Fe121     1.0  0.75845  0.48562  0.50569  1.0000
  H   H1932     1.0  0.75305  0.77968  0.60701  1.0000
  S   S244      1.0  0.54311  0.54575  0.31245  1.0000
  H   H1933     1.0  0.61991  0.68425  0.61764  1.0000
  H   H1934     1.0  0.62420  0.77484  0.62907  1.0000
  H   H1935     1.0  0.65070  0.74543  0.61819  1.0000
  H   H1936     1.0  0.77529  0.97322  0.60532  1.0000
  H   H1937     1.0  0.66599  0.95379  0.42467  1.0000
  H   H1938     1.0  0.98423  0.87890  0.33322  1.0000
  H   H1939     1.0  0.66187  0.66999  0.61219  1.0000
  H   H1940     1.0  0.96314  0.54602  0.63661  1.0000
  H   H1941     1.0  0.58796  0.70908  0.61331  1.0000
  H   H1942     1.0  0.50782  0.50462  0.49242  1.0000
  H   H1943     1.0  0.57390  0.98107  0.43987  1.0000
  H   H1944     1.0  0.51571  0.68759  0.64131  1.0000
  C   C1087     1.0  0.51855  0.66783  0.63280  1.0000
  H   H1945     1.0  0.49359  0.64159  0.63901  1.0000
  H   H1946     1.0  0.54670  0.64548  0.64039  1.0000
  C   C1088     1.0  0.58147  0.70251  0.64006  1.0000
  C   C1089     1.0  0.69748  0.61452  0.31179  1.0000
  H   H1947     1.0  0.91737  0.52332  0.64348  1.0000
  C   C1090     1.0  0.64247  0.74210  0.64417  1.0000
  H   H1948     1.0  0.67125  0.82969  0.64364  1.0000
  S   S245      1.0  0.86249  0.71344  0.92699  1.0000
  S   S246      1.0  0.92018  0.81927  0.90412  1.0000
  C   C1091     1.0  0.63033  0.71289  0.71316  1.0000
  Fe  Fe122     1.0  0.59181  0.60344  0.89580  1.0000
  S   S247      1.0  0.56066  0.55898  0.86816  1.0000
  S   S248      1.0  0.65067  0.63678  0.89317  1.0000
  Fe  Fe123     1.0  0.52959  0.60388  0.91782  1.0000
  H   H1949     1.0  0.72397  0.68406  0.88144  1.0000
  H   H1950     1.0  0.77300  0.60596  0.90470  1.0000
  H   H1951     1.0  0.80184  0.76049  0.92330  1.0000
  C   C1092     1.0  0.84881  0.82196  0.94764  1.0000
  Fe  Fe124     1.0  0.53656  0.58695  0.85111  1.0000
  H   H1952     1.0  0.56794  0.52963  0.79860  1.0000
  S   S249      1.0  0.55258  0.57629  0.93998  1.0000
  S   S250      1.0  0.57048  0.63315  0.87497  1.0000
  C   C1093     1.0  0.55045  0.58369  0.70291  1.0000
  C   C1094     1.0  0.56652  0.58101  0.72925  1.0000
  C   C1095     1.0  0.55855  0.58570  0.75965  1.0000
  C   C1096     1.0  0.53416  0.59278  0.76402  1.0000
  C   C1097     1.0  0.51896  0.59666  0.73743  1.0000
  C   C1098     1.0  0.52677  0.59178  0.70705  1.0000
  H   H1953     1.0  0.58499  0.57489  0.72620  1.0000
  H   H1954     1.0  0.57087  0.58331  0.77981  1.0000
  C   C1099     1.0  0.63202  0.97413  0.92375  1.0000
  H   H1955     1.0  0.97026  0.51785  0.97429  1.0000
  C   C1100     1.0  0.94599  0.86139  0.91524  1.0000
  C   C1101     1.0  0.95723  0.86538  0.94552  1.0000
  C   C1102     1.0  0.61907  0.69177  0.93260  1.0000
  H   H1956     1.0  0.59673  0.69919  0.75724  1.0000
  H   H1957     1.0  0.94656  0.88881  0.86979  1.0000
  C   C1103     1.0  0.63446  0.95175  0.95274  1.0000
  H   H1958     1.0  0.74472  0.60464  0.93502  1.0000
  H   H1959     1.0  0.57699  0.72183  0.64690  1.0000
  H   H1960     1.0  0.58470  0.66736  0.70031  1.0000
  C   C1104     1.0  0.93524  0.65332  0.94454  1.0000
  C   C1105     1.0  0.83835  0.81781  0.91321  1.0000
  C   C1106     1.0  0.97676  0.60447  0.72341  1.0000
  C   C1107     1.0  0.88749  0.92021  0.94912  1.0000
  C   C1108     1.0  0.92895  0.62146  0.93817  1.0000
  H   H1961     1.0  0.95530  0.63714  0.65944  1.0000
  H   H1962     1.0  0.58259  0.95055  0.97644  1.0000
  C   C1109     1.0  0.68276  0.64404  0.91819  1.0000
  H   H1963     1.0  0.62579  0.95889  0.90381  1.0000
  C   C1110     1.0  0.73610  0.65845  0.95610  1.0000
  C   C1111     1.0  0.74395  0.67671  0.92451  1.0000
  C   C1112     1.0  0.71748  0.66965  0.90581  1.0000
  H   H1964     1.0  0.77041  0.69630  0.91442  1.0000
  H   H1965     1.0  0.94158  0.95439  0.92977  1.0000
  S   S251      1.0  0.89963  0.65594  0.95202  1.0000
  C   C1113     1.0  0.48973  0.94178  0.90374  1.0000
  H   H1966     1.0  0.65063  0.70958  0.70620  1.0000
  C   C1114     1.0  0.51668  0.48544  0.82073  1.0000
  C   C1115     1.0  0.97447  0.92531  0.90175  1.0000
  C   C1116     1.0  0.54607  0.66647  0.64875  1.0000
  H   H1967     1.0  0.79020  0.63897  0.92981  1.0000
  C   C1117     1.0  0.63936  0.77282  0.64747  1.0000
  H   H1968     1.0  0.51387  0.59337  0.68710  1.0000
  H   H1969     1.0  0.63748  0.66432  0.68253  1.0000
  C   C1118     1.0  0.70141  0.63271  0.96848  1.0000
  Fe  Fe125     1.0  0.89678  0.76785  0.93982  1.0000
  Fe  Fe126     1.0  0.51996  0.53344  0.91142  1.0000
  Fe  Fe127     1.0  0.82728  0.70100  0.97134  1.0000
  H   H1970     1.0  0.58064  0.97918  0.72090  1.0000
  H   H1971     1.0  0.50037  0.60260  0.74057  1.0000
  H   H1972     1.0  0.91873  0.65428  0.71172  1.0000
  H   H1973     1.0  0.66482  0.94043  0.92432  1.0000
  C   C1119     1.0  0.67492  0.62544  0.94968  1.0000
  H   H1974     1.0  0.62656  0.76866  0.67170  1.0000
  H   H1975     1.0  0.65673  0.68409  0.94876  1.0000
  S   S252      1.0  0.56033  0.57585  0.66575  1.0000
  H   H1976     1.0  0.94292  0.54813  0.69083  1.0000
  H   H1977     1.0  0.95046  0.59306  0.92756  1.0000
  H   H1978     1.0  0.81779  0.82155  0.90922  1.0000
  H   H1979     1.0  0.79644  0.81854  0.96256  1.0000
  H   H1980     1.0  0.92194  0.97711  0.93386  1.0000
  H   H1981     1.0  0.98091  0.94824  0.88475  1.0000
  H   H1982     1.0  0.52010  0.49540  0.84364  1.0000
  H   H1983     1.0  0.93427  0.61461  0.69886  1.0000
  C   C1120     1.0  0.97680  0.89911  0.95390  1.0000
  H   H1984     1.0  0.62166  0.70952  0.88181  1.0000
  H   H1985     1.0  0.56692  0.91120  0.93021  1.0000
  H   H1986     1.0  0.87350  0.82483  0.94618  1.0000
  H   H1987     1.0  0.50371  0.49774  0.77457  1.0000
  H   H1988     1.0  0.50517  0.96524  0.88540  1.0000
  H   H1989     1.0  0.90411  0.88789  0.93698  1.0000
  H   H1990     1.0  0.86517  0.92142  0.94675  1.0000
  H   H1991     1.0  0.62064  0.95164  0.66632  1.0000
  H   H1992     1.0  0.66637  0.93436  0.96710  1.0000
  H   H1993     1.0  0.48806  0.90707  0.87368  1.0000
  H   H1994     1.0  0.61156  0.92403  0.95690  1.0000
  C   C1121     1.0  0.64316  0.69506  0.95770  1.0000
  C   C1122     1.0  0.96920  0.68137  0.94549  1.0000
  H   H1995     1.0  0.80141  0.59362  0.94592  1.0000
  C   C1123     1.0  0.98075  0.60284  0.66612  1.0000
  S   S253      1.0  0.51931  0.63551  0.94778  1.0000
  H   H1996     1.0  0.64237  0.74159  0.71096  1.0000
  H   H1997     1.0  0.97468  0.70603  0.95038  1.0000
  H   H1998     1.0  0.53675  0.92157  0.92364  1.0000
  H   H1999     1.0  0.64850  0.60527  0.95946  1.0000
  H   H2000     1.0  0.51342  0.68649  0.97278  1.0000
  H   H2001     1.0  0.81689  0.86011  0.93679  1.0000
  H   H2002     1.0  0.66366  0.72353  0.95648  1.0000
  C   C1124     1.0  0.57565  0.95549  0.95260  1.0000
  H   H2003     1.0  0.98515  0.90183  0.97747  1.0000
  H   H2004     1.0  0.58434  0.70506  0.69902  1.0000
  C   C1125     1.0  0.55220  0.50036  0.80374  1.0000
  C   C1126     1.0  0.63940  0.71203  0.89930  1.0000
  H   H2005     1.0  0.69093  0.80850  0.65954  1.0000
  H   H2006     1.0  0.60471  0.70269  0.93891  1.0000
  H   H2007     1.0  0.75617  0.55955  0.95155  1.0000
  C   C1127     1.0  0.77578  0.58728  0.95357  1.0000
  S   S254      1.0  0.49412  0.55914  0.89291  1.0000
  H   H2008     1.0  0.58293  0.96313  0.88724  1.0000
  H   H2009     1.0  0.95947  0.62741  0.75379  1.0000
  H   H2010     1.0  0.65323  0.70126  0.89082  1.0000
  Fe  Fe128     1.0  0.89068  0.69843  0.95962  1.0000
  H   H2011     1.0  0.50942  0.52533  0.80197  1.0000
  C   C1128     1.0  0.77058  0.61066  0.92939  1.0000
  N   N62       1.0  0.85194  0.85201  0.96076  1.0000
  H   H2012     1.0  0.63809  0.70873  0.76351  1.0000
  H   H2013     1.0  0.63430  0.74181  0.97646  1.0000
  H   H2014     1.0  0.95006  0.58034  0.72759  1.0000
  H   H2015     1.0  0.53613  0.97662  0.68034  1.0000
  H   H2016     1.0  0.86093  0.83758  0.89503  1.0000
  H   H2017     1.0  0.59266  0.65188  0.65188  1.0000
  H   H2018     1.0  0.97592  0.61316  0.80440  1.0000
  H   H2019     1.0  0.66947  0.70440  0.65488  1.0000
  H   H2020     1.0  0.68970  0.97830  0.94370  1.0000
  C   C1129     1.0  0.60085  0.69655  0.69208  1.0000
  H   H2021     1.0  0.60591  0.66741  0.75243  1.0000
  H   H2022     1.0  0.60035  0.66370  0.93095  1.0000
  H   H2023     1.0  0.90289  0.59946  0.93746  1.0000
  C   C1130     1.0  0.64526  0.67793  0.65695  1.0000
  H   H2024     1.0  0.94396  0.53405  0.96917  1.0000
  C   C1131     1.0  0.95597  0.61774  0.93245  1.0000
  C   C1132     1.0  0.94038  0.67502  0.69316  1.0000
  C   C1133     1.0  0.94560  0.56660  0.66957  1.0000
  C   C1134     1.0  0.61686  0.69601  0.74870  1.0000
  H   H2025     1.0  0.94978  0.57388  0.78756  1.0000
  S   S255      1.0  0.52045  0.59520  0.80237  1.0000
  H   H2026     1.0  0.87343  0.88660  0.91424  1.0000
  H   H2027     1.0  0.84524  0.77597  0.90985  1.0000
  C   C1135     1.0  0.87989  0.88605  0.93926  1.0000
  C   C1136     1.0  0.52696  0.89040  0.96982  1.0000
  H   H2028     1.0  0.65813  0.74046  0.89988  1.0000
  H   H2029     1.0  0.91339  0.95279  0.90155  1.0000
  C   C1137     1.0  0.97493  0.59996  0.78405  1.0000
  H   H2030     1.0  0.56532  0.49197  0.81953  1.0000
  H   H2031     1.0  0.55927  0.96476  0.95726  1.0000
  H   H2032     1.0  0.94877  0.70119  0.69846  1.0000
  C   C1138     1.0  0.66578  0.95125  0.94643  1.0000
  H   H2033     1.0  0.50921  0.86558  0.96079  1.0000
  C   C1139     1.0  0.48890  0.64611  0.94379  1.0000
  H   H2034     1.0  0.81955  0.77934  0.88156  1.0000
  H   H2035     1.0  0.93150  0.67283  0.66907  1.0000
  C   C1140     1.0  0.95987  0.63573  0.68512  1.0000
  C   C1141     1.0  0.81773  0.84704  0.96041  1.0000
  H   H2036     1.0  0.77932  0.87559  0.95825  1.0000
  N   N63       1.0  0.98463  0.62574  0.69012  1.0000
  H   H2037     1.0  0.66435  0.74664  0.65646  1.0000
  H   H2038     1.0  0.53793  0.65888  0.67514  1.0000
  C   C1142     1.0  0.97985  0.62296  0.75219  1.0000
  C   C1143     1.0  0.82548  0.78116  0.90669  1.0000
  H   H2039     1.0  0.55023  0.49052  0.78083  1.0000
  N   N64       1.0  0.61060  0.70531  0.65596  1.0000
  C   C1144     1.0  0.49752  0.49725  0.80024  1.0000
  S   S256      1.0  0.92748  0.75390  0.96844  1.0000
  H   H2040     1.0  0.57935  0.96756  0.67164  1.0000
  H   H2041     1.0  0.97881  0.67498  0.71770  1.0000
  H   H2042     1.0  0.63602  0.96148  0.97550  1.0000
  C   C1145     1.0  0.95494  0.89157  0.89334  1.0000
  C   C1146     1.0  0.97023  0.67152  0.69368  1.0000
  C   C1147     1.0  0.55210  0.91948  0.94166  1.0000
  C   C1148     1.0  0.49211  0.67245  0.95941  1.0000
  H   H2043     1.0  0.95078  0.84245  0.96252  1.0000
  C   C1149     1.0  0.91790  0.95299  0.92716  1.0000
  H   H2044     1.0  0.92411  0.56930  0.67230  1.0000
  H   H2045     1.0  0.83010  0.79657  0.96439  1.0000
  H   H2046     1.0  0.89365  0.92181  0.97415  1.0000
  H   H2047     1.0  0.67357  0.65583  0.64796  1.0000
  C   C1150     1.0  0.98531  0.92923  0.93221  1.0000
  H   H2048     1.0  0.75604  0.95094  0.64609  1.0000
  C   C1151     1.0  0.61586  0.67926  0.64449  1.0000
  C   C1152     1.0  0.63490  0.97371  0.64539  1.0000
