data_image0
_chemical_formula_structural       H2SHNHFeS2FeS2FeSFeS4FeHFeS2FeSHSHFeH3SHCFeSCH5C5H3C6H4CSFeC4H3C3HCH2C7H3C7H4C2NC4HC4HCH3CH11CH8NCHC2HC2HC2H2NC4H13FeH5C2HSCFeHCH8SH3CH6C3HCHSHSC2H2C2H6CSCHC2HC2H4CH2CHCH3SH4C4HC2SH3NFeH3CH8C2HSC2HCHSH4SCH3CHCH5CH3CH3FeH2SH6C2H2CH5C2H2C4H6SHC3SH3CH4SFeSCFeS2FeCFeS4CH5SH2CS2C5HCH2CHC6H4CHC2H2C2H3CH3FeHC5H5C2HSH3C2HC2HSH3C2H2C2FeC3H2CH3C4H7SH2CHCNHC3HCHFeHCH5CH5C4H2C4H3NSH7CH3C2H2CHNC2H4C3H5C3HSFeH9CH5C2H4CH7NH6CH4CFe2CH2C2H2CH5CH4CH2SHCHCH2NH2CSH3NC8H2SHCH6CSH2CHC2H2CFeC2H5CHCS2C2FeS2FeS2FeSFeS4FeHFeCSFeSHSHCH2FeSFeSFeSH4CHC5H2FeC6H6CHC3H3C3H5C6H3C7H4SCNC6HC4H12SH8FeSCH9CNCHSHCHCH5C2H3C2H3C2HCH2CHCH7CHS2CHCHFeC2H3S2H3C2H2C2H4C2HCHCSC2FeH2CH2C2H4FeHCNC2HC3HC3H11CH13SH6SH2CH2C2HCH3C2HCH4CSH5FeHCHCH3C2SH4NHC2SCHCHFeSFe2S2FeSFeS5H5SCHFeCSHC2HCHSH2CHC6H5CH4C2H2CHCHC2HC5H3CH3CH3FeCH8FeHCHCH4CHCFeHNHC3H2NHC8HCHCH18CH5CSCHCHCHC2H2SHCHCH3CH2CH3CHNH4CH2CHCH2SCNH4SC2H2C2HC3HCH3CH2CHCHSHSH2CNHC2HCH2CH8SH6C5H6CHNH3CHCH4CH11C2H2CH5C2H4CSCHC3H2C3H11CH2SCFeSHC2SFeSHFeSFeHSHFeSFe2S2FeSFeS4FeC6HCHC5H3C7H4C3HCH3SHCHC6H5NCH2CHSH2CH5C2H3C2H3CSH4C4H2FeH3CHSCH2C2HC2H2C2H5C4H2CHCH3CH2CH5CH10FeH6CH2CHFeH2C2HSH2C3H4CH3C2HC2HC2H5CH5NCH2NHCHCH3C3HNCH2CH5CH10SH2C3SCHCH3CH2CHSH2C2H2CHC2H4CNH2CH2C4HC2H8FeCHSHCH2CH4FeH4CFeH4CHFeS2FeS2FeSFeS4FeSFeS2FeSFeS3H4CHCH3C10H4C2HCHCHCHCH2CH3C3HCHCH8CH4C2H4C4H2CH2C2H2CH2CHCH2SH2C2HC2HCH3CHCH5C2HC3H5CH5CH5CHCH3CH3CH2CNCHCH5CHCHCH3CHCH2CH2CH2CH6SH2CHNCH6CHNH3NCNH2CHCH3SCHCHC2HCHC2HC2H2CH2CH5CHCH6C2HCHCH3C3HC2H2CHCHFeH4CH6NCSHFeSHCFeSFeSHFeSFeS2HFeS2FeS2FeSFeS4C7H3C5HCFeHC6H4C2HC2H2FeCH3C6H4CH4C3HCHCH4SH2SCH2SC2SH3CSHCHCHCNCH8NHCH7C2SFeH5C3H9CH2CSHCH11CH6CHC2H4CHCH3CHC2H2CH2C2H2SC2H2C3H5CH6NH2CH4CHCH5SCNC6HC2NHCH7CH2CSCH6SHSH3C2H2CH2C2H5C2H4CH3C2H3SCH5SCH3C3H2NHCH2NHCH3FeS2FeS2FeSFeS4HSFeS2FeSFeS3C2H4CH3CH3C6H4C2HCHC2HC3HCH3CH2CHC3HCH2C2HCH2CH6C2HC2H2C2FeHCH4CH2C2H2CH4C3H3CHCHCH2C2H6CH7CH2CHCH3CH4CH5CH3CHC2H3CHCHCHC2NCH2CH7CH5CH4CNH2C4H3CH3SCH7CH2CHC3SNCNH2CHCHCH2CH4CH2NC3H2CH2CH2CHCH4C3HSH4CH2FeH3C3H6CHFeS2FeS2FeSFeHS3FeSFeS2FeSHSH2CHFeSHCFeSCH3CHC5H3C6H6C5H3C3FeH4C7H3C6H10NC12H27CS2HCH4FeHCHFeC2HCH10SCH4CH2CHNHCHC3HC3H4CFeH6FeH2NCH8CH2C2HCH4CHCH2C2SH3C5H2S2HSHCH4SHCH4CH5CS2H3CH2CHSHCHC2SHCH3CS2CHC2H4CFeH2C2HC5H5FeHC2HCH4C3HSH7NH2SFeS2FeS2FeHFeS4HFeH4SCHFeS2C3H5C9H4CH2NCH2C2H4CH3C6H3C2HC2H5SHCH4SC2H5CHCH3CSH2C3HCH3NC2H4CFeH2CH5FeCH3C2HC2HCHNCHSHCH4CSH3C2H2C2H3CH8CHS2H2CH4CHCH3CHCHSHCH4CNH2CHNCHCH2C3HCNC7HCH15C2H7CHCHCHCH2C2HCH2CH3FeCSC2HCH2CH3CH4S2H2FeS2FeS2FeSFeS4FeHFeHSFeSCSHCHCFeSCFe2SCSHSCHC5H3C6H4CSC6H2C3HCH3C7H3C6H7CH2SHC2HCH3CH12C3H7NH2C3H3CH2CHSH8C3HC2HFeCH2C5H19NC2HC2SH3CH2CHFeSC4FeCHCHFeH8CH4NHCH2C2HCH4FeH5NH7CH4C2SNHC2HNSHSH3FeH2C2H2C3HC2SH3C4HCHCHSHCH3CHC4H10NH2CHCHSHCHSC2HNH4C2HCSFeSCFeS2FeCFeS5H5SC2FeHSHSCHCH3C2HC6H4C3HSHC3H4C2H3C4H4CH4CHC2H5CH6CH2CH3CH2SHC2H3CHFeH3CH2C2NC4HCHC2HCHCH5CH2CHCNCH2C3HCH2CH3CHCH10CH4CH7NHC4H2CH4FeHCHCNH2FeH2CH6CH4SH3C2H2C2H3CHCHCH2C4SH2CH4CHCHCH3SH2FeH2CHC2H7CHCH2SHC2H2CHFeS2FeSH3SFeSCFeSFeS2Fe2SHFeS2FeSFeS4HC6H3C5H2C8H4C2HC2H3C2H2C6H2CH3C3H5CHSH6FeCHCH6NC6HC3H7CH6CH11C2H3NCSHC2H3SCSCH3CH3SCHC2H5CH6CH2CH3C3NHCH5SH5CHC4H6C2NH3NHC4HCHFeCH2CHCFeH7CHC2HC3HCHCH5FeHSHC2SH9CHNCH2CH7C2S2CHCHNHCHC2HCH5CNHSC2H2CH2S2H3CH2FeH5CH6CH2FeS2FeS2FeSFeS4HSFeS2FeSFeS3HNHC2HC2HC2H3C6H4CH3C3H2C2HC3H6C2H2CHNFeHCHCH4CH2CH3CH2CNHCHC2H4C2HCH3CH11CH3C2H6CH2CH2CH5C2H2C2SC3HCH3C2H5CHFeHNHC3H2C2H2CH3CH5CH4CH2CHC2HCH3CNH3CH8C2H4CH6C2H2CH4C2H3C3HC2H3CH2CHC2H2C3SH4CH3CHC3SCFeSCNFeSFeSCFeSFeS2HFeSCFeS2FeSFeS4C7H3C5H4C6H4C5H6C7H4CH2C2H2CH3C5H2NSH7CH2CSH2CHCH4CHC2HC2HCHCFeH2CHCH5CHCHCH10SCNC10H6CH2CH10SH2CH2SHSH8CSH3SH7C2HCH4CH8CH3CHCHC2HCHCNHFeH2CHSH4CH2CH3CHCHCH3FeC2SH2SH3CH4CH2FeC2SH5CH2CH4CH3CH2CHCH4CHCH3C3HFeHNH8FeS2FeS2FeSFeS3H2SFeSCFeSFeS3C2HCH8CHC6H4CH5CH2C3HNH4SH4C2H2C4H2CHCH7CSCH5C2H2CH3FeHC3H3CSCH2C2H2C2HC2H3C2H2CH7CH4CH4CNCH3CSC2NHCHC2H2C2H2CHC2HCH3C2HC3HCH3C2HCHCHCHCHCHC2H2NH6CH2CH2SH4CHC2H3CH3CHCHCH6NH3CH4
_chemical_formula_sum              "H2876 S384 N89 Fe192 C1644"
_cell_length_a       47.4507
_cell_length_b       45.3719
_cell_length_c       38.7633
_cell_angle_alpha    91.2195
_cell_angle_beta     90.2877
_cell_angle_gamma    120.008

_space_group_name_H-M_alt    "P 1"
_space_group_IT_number       1

loop_
  _space_group_symop_operation_xyz
  'x, y, z'

loop_
  _atom_site_type_symbol
  _atom_site_label
  _atom_site_symmetry_multiplicity
  _atom_site_fract_x
  _atom_site_fract_y
  _atom_site_fract_z
  _atom_site_occupancy
  H   H1        1.0  0.16443  0.02881  0.01278  1.0000
  H   H2        1.0  0.01977  0.18042  0.46027  1.0000
  S   S1        1.0  0.00208  0.06171  0.31801  1.0000
  H   H3        1.0  0.13990  0.18834  0.43068  1.0000
  N   N1        1.0  0.11967  0.44622  0.28184  1.0000
  H   H4        1.0  0.09750  0.45228  0.35189  1.0000
  Fe  Fe1       1.0  0.13064  0.23818  0.29152  1.0000
  S   S2        1.0  0.10774  0.25634  0.33175  1.0000
  S   S3        1.0  0.17015  0.22271  0.28756  1.0000
  Fe  Fe2       1.0  0.09746  0.25333  0.23334  1.0000
  S   S4        1.0  0.07384  0.27388  0.26797  1.0000
  S   S5        1.0  0.08882  0.24596  0.17616  1.0000
  Fe  Fe3       1.0  0.12136  0.30075  0.29732  1.0000
  S   S6        1.0  0.13543  0.35377  0.31873  1.0000
  Fe  Fe4       1.0  0.06036  0.22847  0.30068  1.0000
  S   S7        1.0  0.00493  0.20494  0.30753  1.0000
  S   S8        1.0  0.14619  0.28431  0.25888  1.0000
  S   S9        1.0  0.08219  0.20665  0.26346  1.0000
  S   S10       1.0  0.14667  0.38517  0.10067  1.0000
  Fe  Fe5       1.0  0.16837  0.32836  0.43434  1.0000
  H   H5        1.0  0.13951  0.99443  0.98320  1.0000
  Fe  Fe6       1.0  0.10153  0.26290  0.42228  1.0000
  S   S11       1.0  0.07732  0.28527  0.45498  1.0000
  S   S12       1.0  0.06942  0.20539  0.40645  1.0000
  Fe  Fe7       1.0  0.10582  0.33436  0.42695  1.0000
  S   S13       1.0  0.08033  0.36620  0.41478  1.0000
  H   H6        1.0  0.04558  0.25718  0.35914  1.0000
  S   S14       1.0  0.12943  0.31191  0.39281  1.0000
  H   H7        1.0  0.08717  0.46421  0.29816  1.0000
  Fe  Fe8       1.0  0.99618  0.45713  0.40349  1.0000
  H   H8        1.0  0.02799  0.19419  0.13825  1.0000
  H   H9        1.0  0.20703  0.13285  0.20305  1.0000
  H   H10       1.0  0.02151  0.19127  0.02262  1.0000
  S   S15       1.0  0.03842  0.05755  0.40422  1.0000
  H   H11       1.0  0.99514  0.23105  0.40139  1.0000
  C   C1        1.0  0.08723  0.44466  0.28027  1.0000
  Fe  Fe9       1.0  0.05880  0.02709  0.37826  1.0000
  S   S16       1.0  0.11208  0.05397  0.35918  1.0000
  C   C2        1.0  0.98640  0.16244  0.22149  1.0000
  H   H12       1.0  0.00943  0.23601  0.46687  1.0000
  H   H13       1.0  0.09306  0.46336  0.14876  1.0000
  H   H14       1.0  0.01345  0.17550  0.22243  1.0000
  H   H15       1.0  0.18450  0.29483  0.99800  1.0000
  H   H16       1.0  0.17128  0.05174  0.25434  1.0000
  C   C3        1.0  0.17335  0.06320  0.27964  1.0000
  C   C4        1.0  0.14503  0.05270  0.29951  1.0000
  C   C5        1.0  0.14716  0.06703  0.33257  1.0000
  C   C6        1.0  0.17812  0.09203  0.34505  1.0000
  C   C7        1.0  0.20635  0.10247  0.32512  1.0000
  H   H17       1.0  0.12161  0.03301  0.28963  1.0000
  H   H18       1.0  0.18044  0.10356  0.37035  1.0000
  H   H19       1.0  0.15947  0.03948  0.45323  1.0000
  C   C8        1.0  0.10267  0.28492  0.15632  1.0000
  C   C9        1.0  0.12167  0.31561  0.17477  1.0000
  C   C10       1.0  0.13454  0.34663  0.15783  1.0000
  C   C11       1.0  0.12833  0.34684  0.12254  1.0000
  C   C12       1.0  0.10845  0.31618  0.10444  1.0000
  C   C13       1.0  0.09567  0.28524  0.12130  1.0000
  H   H20       1.0  0.12690  0.31542  0.20191  1.0000
  H   H21       1.0  0.14974  0.37033  0.17188  1.0000
  H   H22       1.0  0.10305  0.31616  0.07734  1.0000
  H   H23       1.0  0.08074  0.26155  0.10705  1.0000
  C   C14       1.0  0.99785  0.98545  0.13035  1.0000
  S   S17       1.0  0.04574  0.99020  0.42157  1.0000
  Fe  Fe10      1.0  0.02494  0.02018  0.44590  1.0000
  C   C15       1.0  0.19549  0.40514  0.29815  1.0000
  C   C16       1.0  0.17371  0.39136  0.32522  1.0000
  C   C17       1.0  0.17932  0.41120  0.35559  1.0000
  C   C18       1.0  0.20520  0.44518  0.35806  1.0000
  H   H24       1.0  0.99446  0.08189  0.39120  1.0000
  H   H25       1.0  0.16256  0.40073  0.37668  1.0000
  H   H26       1.0  0.01375  0.31278  0.43304  1.0000
  C   C19       1.0  0.19072  0.20947  0.31676  1.0000
  C   C20       1.0  0.18457  0.20628  0.35216  1.0000
  C   C21       1.0  0.19968  0.19313  0.37354  1.0000
  H   H27       1.0  0.99138  0.02149  0.09964  1.0000
  C   C22       1.0  0.21267  0.19996  0.30337  1.0000
  H   H28       1.0  0.16774  0.21338  0.36297  1.0000
  H   H29       1.0  0.19466  0.19092  0.40075  1.0000
  C   C23       1.0  0.98092  0.41016  0.16210  1.0000
  C   C24       1.0  0.01979  0.10148  0.34360  1.0000
  C   C25       1.0  0.04261  0.13204  0.32827  1.0000
  C   C26       1.0  0.05813  0.16353  0.34704  1.0000
  C   C27       1.0  0.05070  0.16577  0.38158  1.0000
  C   C28       1.0  0.02735  0.13560  0.39686  1.0000
  C   C29       1.0  0.01201  0.10409  0.37818  1.0000
  H   H30       1.0  0.04860  0.13146  0.30161  1.0000
  H   H31       1.0  0.07612  0.18602  0.33472  1.0000
  H   H32       1.0  0.02078  0.13640  0.42331  1.0000
  C   C30       1.0  0.20952  0.25468  0.18607  1.0000
  C   C31       1.0  0.01783  0.39474  0.34265  1.0000
  C   C32       1.0  0.02953  0.41031  0.37517  1.0000
  C   C33       1.0  0.04833  0.40135  0.39658  1.0000
  C   C34       1.0  0.05718  0.37731  0.38557  1.0000
  C   C35       1.0  0.04726  0.36316  0.35208  1.0000
  C   C36       1.0  0.02735  0.37122  0.33125  1.0000
  H   H33       1.0  0.02360  0.42909  0.38398  1.0000
  H   H34       1.0  0.05609  0.41339  0.42187  1.0000
  H   H35       1.0  0.05495  0.34598  0.34208  1.0000
  H   H36       1.0  0.01945  0.35927  0.30597  1.0000
  C   C37       1.0  0.13788  0.45577  0.38069  1.0000
  C   C38       1.0  0.14823  0.04824  0.43377  1.0000
  N   N2        1.0  0.14592  0.23452  0.03674  1.0000
  C   C39       1.0  0.15373  0.26470  0.06022  1.0000
  C   C40       1.0  0.14164  0.24291  0.00023  1.0000
  C   C41       1.0  0.11344  0.20550  0.04770  1.0000
  C   C42       1.0  0.17128  0.22370  0.03869  1.0000
  H   H37       1.0  0.98225  0.30977  0.40677  1.0000
  C   C43       1.0  0.15450  0.25885  0.09951  1.0000
  C   C44       1.0  0.09951  0.17186  0.02585  1.0000
  C   C45       1.0  0.99078  0.11920  0.25796  1.0000
  C   C46       1.0  0.13450  0.98944  0.35499  1.0000
  H   H38       1.0  0.00598  0.41792  0.17106  1.0000
  C   C47       1.0  0.17451  0.29242  0.11984  1.0000
  H   H39       1.0  0.10836  0.44518  0.46708  1.0000
  H   H40       1.0  0.13507  0.27250  0.05654  1.0000
  H   H41       1.0  0.17708  0.28734  0.05334  1.0000
  C   C48       1.0  0.17227  0.27081  0.98241  1.0000
  H   H42       1.0  0.12277  0.25060  0.99948  1.0000
  H   H43       1.0  0.09464  0.21348  0.04756  1.0000
  H   H44       1.0  0.11503  0.19870  0.07476  1.0000
  H   H45       1.0  0.16548  0.20503  0.05951  1.0000
  H   H46       1.0  0.17054  0.20970  0.01440  1.0000
  H   H47       1.0  0.99878  0.22744  0.24008  1.0000
  H   H48       1.0  0.12907  0.46450  0.40265  1.0000
  H   H49       1.0  0.12928  0.24630  0.10942  1.0000
  H   H50       1.0  0.16457  0.24204  0.10514  1.0000
  H   H51       1.0  0.11812  0.16432  0.02136  1.0000
  H   H52       1.0  0.09040  0.17470  0.00047  1.0000
  C   C49       1.0  0.15428  0.00125  0.00743  1.0000
  H   H53       1.0  0.00710  0.14441  0.09726  1.0000
  H   H54       1.0  0.99066  0.13344  0.28160  1.0000
  H   H55       1.0  0.13875  0.45087  0.03834  1.0000
  H   H56       1.0  0.18116  0.10032  0.44607  1.0000
  H   H57       1.0  0.05992  0.43498  0.05854  1.0000
  H   H58       1.0  0.04467  0.00677  0.22681  1.0000
  H   H59       1.0  0.13996  0.99206  0.38308  1.0000
  H   H60       1.0  0.19738  0.39683  0.21568  1.0000
  N   N3        1.0  0.21022  0.01545  0.98286  1.0000
  C   C50       1.0  0.14989  0.47849  0.04449  1.0000
  H   H61       1.0  0.11196  0.06426  0.47572  1.0000
  C   C51       1.0  0.09905  0.13523  0.24292  1.0000
  C   C52       1.0  0.05403  0.21582  0.98068  1.0000
  H   H62       1.0  0.02215  0.04071  0.13316  1.0000
  C   C53       1.0  0.07076  0.14254  0.04364  1.0000
  C   C54       1.0  0.01112  0.01985  0.11328  1.0000
  H   H63       1.0  0.14486  0.09241  0.42268  1.0000
  C   C55       1.0  0.12533  0.43780  0.31767  1.0000
  C   C56       1.0  0.02083  0.15390  0.98668  1.0000
  H   H64       1.0  0.98125  0.43244  0.15026  1.0000
  H   H65       1.0  0.10722  0.41119  0.32383  1.0000
  N   N4        1.0  0.10851  0.11085  0.25777  1.0000
  C   C57       1.0  0.14510  0.12587  0.25682  1.0000
  C   C58       1.0  0.09842  0.10557  0.29509  1.0000
  C   C59       1.0  0.11692  0.13716  0.31970  1.0000
  C   C60       1.0  0.10768  0.12925  0.35747  1.0000
  H   H66       1.0  0.15758  0.15403  0.26066  1.0000
  H   H67       1.0  0.15374  0.11684  0.27886  1.0000
  H   H68       1.0  0.10149  0.08484  0.30564  1.0000
  H   H69       1.0  0.07212  0.09679  0.29752  1.0000
  H   H70       1.0  0.11340  0.16081  0.25566  1.0000
  H   H71       1.0  0.11197  0.15762  0.31231  1.0000
  H   H72       1.0  0.14327  0.14679  0.31878  1.0000
  H   H73       1.0  0.11044  0.98750  0.35086  1.0000
  H   H74       1.0  0.08156  0.11038  0.35990  1.0000
  H   H75       1.0  0.12236  0.11942  0.36975  1.0000
  H   H76       1.0  0.11288  0.15294  0.37177  1.0000
  H   H77       1.0  0.18922  0.98923  0.02988  1.0000
  H   H78       1.0  0.20910  0.29793  0.27182  1.0000
  Fe  Fe11      1.0  0.14080  0.37245  0.04394  1.0000
  H   H79       1.0  0.04973  0.45127  0.10842  1.0000
  H   H80       1.0  0.14912  0.43879  0.31948  1.0000
  H   H81       1.0  0.04579  0.15513  0.11647  1.0000
  H   H82       1.0  0.01294  0.36033  0.46457  1.0000
  H   H83       1.0  0.20807  0.14214  0.24857  1.0000
  C   C61       1.0  0.12079  0.42081  0.25690  1.0000
  C   C62       1.0  0.09139  0.38389  0.25736  1.0000
  H   H84       1.0  0.20350  0.30610  0.21640  1.0000
  S   S18       1.0  0.14169  0.27844  0.46206  1.0000
  C   C63       1.0  0.09622  0.36067  0.23195  1.0000
  Fe  Fe12      1.0  0.98849  0.02191  0.37918  1.0000
  H   H85       1.0  0.99137  0.25438  0.34771  1.0000
  C   C64       1.0  0.98592  0.34583  0.46443  1.0000
  H   H86       1.0  0.06779  0.42002  0.28989  1.0000
  H   H87       1.0  0.02395  0.27124  0.41866  1.0000
  H   H88       1.0  0.14079  0.13583  0.44130  1.0000
  H   H89       1.0  0.05987  0.11951  0.02636  1.0000
  H   H90       1.0  0.12319  0.42958  0.23001  1.0000
  H   H91       1.0  0.14293  0.41888  0.26205  1.0000
  H   H92       1.0  0.06839  0.38302  0.24987  1.0000
  H   H93       1.0  0.08822  0.37280  0.28322  1.0000
  S   S19       1.0  0.99839  0.04107  0.01475  1.0000
  H   H94       1.0  0.07813  0.43416  0.22392  1.0000
  H   H95       1.0  0.22578  0.37295  0.36120  1.0000
  H   H96       1.0  0.16652  0.31084  0.11321  1.0000
  C   C65       1.0  0.22867  0.31526  0.20731  1.0000
  H   H97       1.0  0.09889  0.37010  0.20528  1.0000
  H   H98       1.0  0.11814  0.35922  0.23942  1.0000
  H   H99       1.0  0.07479  0.33460  0.23238  1.0000
  H   H100      1.0  0.20867  0.46052  0.38112  1.0000
  H   H101      1.0  0.16479  0.47136  0.38033  1.0000
  H   H102      1.0  0.09157  0.16451  0.16245  1.0000
  C   C66       1.0  0.09048  0.16329  0.19101  1.0000
  C   C67       1.0  0.14667  0.46803  0.11921  1.0000
  C   C68       1.0  0.04316  0.28015  0.35641  1.0000
  H   H103      1.0  0.09651  0.15937  0.43327  1.0000
  C   C69       1.0  0.15448  0.08370  0.44382  1.0000
  H   H104      1.0  0.15402  0.01243  0.34291  1.0000
  S   S20       1.0  0.15149  0.33324  0.02263  1.0000
  H   H105      1.0  0.22784  0.32105  0.17970  1.0000
  S   S21       1.0  0.14684  0.35402  0.46725  1.0000
  C   C70       1.0  0.22824  0.04935  0.00220  1.0000
  C   C71       1.0  0.99328  0.20943  0.18599  1.0000
  H   H106      1.0  0.01635  0.12804  0.25079  1.0000
  H   H107      1.0  0.18971  0.26171  0.97751  1.0000
  C   C72       1.0  0.15962  0.11789  0.22454  1.0000
  C   C73       1.0  0.03919  0.02578  0.21574  1.0000
  H   H108      1.0  0.03014  0.16884  0.17206  1.0000
  H   H109      1.0  0.02997  0.02348  0.09428  1.0000
  H   H110      1.0  0.20539  0.45539  0.45207  1.0000
  H   H111      1.0  0.08329  0.42004  0.03647  1.0000
  H   H112      1.0  0.20212  0.16802  0.21794  1.0000
  H   H113      1.0  0.17107  0.28776  0.14793  1.0000
  C   C74       1.0  0.03116  0.18737  0.99881  1.0000
  S   S22       1.0  0.99166  0.40362  0.31541  1.0000
  C   C75       1.0  0.01963  0.14511  0.12178  1.0000
  H   H114      1.0  0.02644  0.37499  0.03860  1.0000
  C   C76       1.0  0.09385  0.42695  0.09229  1.0000
  C   C77       1.0  0.07022  0.41800  0.06078  1.0000
  H   H115      1.0  0.03849  0.45788  0.26703  1.0000
  C   C78       1.0  0.12334  0.45996  0.34727  1.0000
  C   C79       1.0  0.00930  0.27281  0.36690  1.0000
  H   H116      1.0  0.21410  0.23301  0.18776  1.0000
  H   H117      1.0  0.21795  0.41820  0.17740  1.0000
  H   H118      1.0  0.01983  0.21871  0.18534  1.0000
  H   H119      1.0  0.21516  0.35732  0.24427  1.0000
  C   C80       1.0  0.98676  0.29830  0.42952  1.0000
  H   H120      1.0  0.12170  0.02996  0.43125  1.0000
  H   H121      1.0  0.20076  0.30382  0.11404  1.0000
  C   C81       1.0  0.11877  0.17771  0.44817  1.0000
  H   H122      1.0  0.18221  0.44188  0.15049  1.0000
  C   C82       1.0  0.01630  0.16817  0.14876  1.0000
  H   H123      1.0  0.10773  0.41369  0.08658  1.0000
  H   H124      1.0  0.07933  0.41409  0.11535  1.0000
  H   H125      1.0  0.13258  0.22020  0.98271  1.0000
  S   S23       1.0  0.01150  0.99378  0.35019  1.0000
  H   H126      1.0  0.01236  0.01439  0.21375  1.0000
  H   H127      1.0  0.15943  0.04906  0.40848  1.0000
  H   H128      1.0  0.12260  0.42389  0.15307  1.0000
  H   H129      1.0  0.21672  0.29394  0.33491  1.0000
  C   C83       1.0  0.04197  0.44412  0.24487  1.0000
  C   C84       1.0  0.22117  0.43919  0.30047  1.0000
  C   C85       1.0  0.20715  0.25226  0.04569  1.0000
  C   C86       1.0  0.00881  0.26880  0.20745  1.0000
  H   H130      1.0  0.10257  0.10851  0.45882  1.0000
  C   C87       1.0  0.19644  0.14171  0.22347  1.0000
  C   C88       1.0  0.00105  0.25798  0.40347  1.0000
  S   S24       1.0  0.22385  0.34892  0.43205  1.0000
  H   H131      1.0  0.09297  0.47771  0.23720  1.0000
  H   H132      1.0  0.22116  0.33688  0.29582  1.0000
  H   H133      1.0  0.03624  0.45290  0.22075  1.0000
  N   N5        1.0  0.11675  0.46424  0.10079  1.0000
  Fe  Fe13      1.0  0.10542  0.31346  0.99125  1.0000
  H   H134      1.0  0.00927  0.11886  0.13138  1.0000
  H   H135      1.0  0.19117  0.39019  0.27471  1.0000
  H   H136      1.0  0.09856  0.05912  0.25197  1.0000
  C   C89       1.0  0.07687  0.45086  0.24438  1.0000
  H   H137      1.0  0.15481  0.09132  0.22552  1.0000
  H   H138      1.0  0.02474  0.41647  0.24730  1.0000
  H   H139      1.0  0.13038  0.42871  0.38463  1.0000
  H   H140      1.0  0.05066  0.36323  0.06467  1.0000
  H   H141      1.0  0.99833  0.17627  0.37663  1.0000
  H   H142      1.0  0.02629  0.37899  0.08491  1.0000
  H   H143      1.0  0.06477  0.15272  0.19875  1.0000
  H   H144      1.0  0.21488  0.06356  0.99992  1.0000
  C   C90       1.0  0.22103  0.18278  0.36002  1.0000
  C   C91       1.0  0.05352  0.05785  0.23897  1.0000
  H   H145      1.0  0.00848  0.29666  0.36549  1.0000
  S   S25       1.0  0.09300  0.35105  0.01602  1.0000
  C   C92       1.0  0.04171  0.38154  0.06244  1.0000
  C   C93       1.0  0.98927  0.23085  0.21524  1.0000
  H   H146      1.0  0.18468  0.24622  0.19583  1.0000
  C   C94       1.0  0.09130  0.07636  0.23964  1.0000
  H   H147      1.0  0.19450  0.15302  0.44458  1.0000
  S   S26       1.0  0.21116  0.99952  0.38960  1.0000
  H   H148      1.0  0.09894  0.07791  0.21252  1.0000
  H   H149      1.0  0.21467  0.27441  0.02912  1.0000
  H   H150      1.0  0.05168  0.14920  0.04937  1.0000
  H   H151      1.0  0.04443  0.07431  0.22894  1.0000
  S   S27       1.0  0.16990  0.41076  0.00464  1.0000
  C   C95       1.0  0.10103  0.47825  0.12483  1.0000
  H   H152      1.0  0.14909  0.12024  0.20001  1.0000
  H   H153      1.0  0.15826  0.45652  0.10315  1.0000
  H   H154      1.0  0.07884  0.13646  0.06807  1.0000
  C   C96       1.0  0.10388  0.14100  0.20368  1.0000
  H   H155      1.0  0.14953  0.43153  0.47397  1.0000
  C   C97       1.0  0.20434  0.08839  0.29218  1.0000
  H   H156      1.0  0.04728  0.28796  0.32917  1.0000
  H   H157      1.0  0.13018  0.15462  0.19791  1.0000
  H   H158      1.0  0.03446  0.27646  0.20157  1.0000
  H   H159      1.0  0.07334  0.12719  0.24896  1.0000
  H   H160      1.0  0.04383  0.04987  0.26525  1.0000
  C   C98       1.0  0.14142  0.45129  0.15494  1.0000
  H   H161      1.0  0.06217  0.30121  0.37268  1.0000
  H   H162      1.0  0.98003  0.17250  0.24467  1.0000
  H   H163      1.0  0.00352  0.13242  0.00123  1.0000
  C   C99       1.0  0.14573  0.48161  0.27245  1.0000
  H   H164      1.0  0.98689  0.21667  0.16105  1.0000
  H   H165      1.0  0.09123  0.11665  0.18862  1.0000
  H   H166      1.0  0.10535  0.18964  0.20177  1.0000
  Fe  Fe14      1.0  0.17770  0.36999  0.98051  1.0000
  H   H167      1.0  0.04909  0.03199  0.18934  1.0000
  H   H168      1.0  0.21789  0.20249  0.27615  1.0000
  S   S28       1.0  0.06647  0.25728  0.99831  1.0000
  H   H169      1.0  0.11543  0.19895  0.45786  1.0000
  H   H170      1.0  0.16869  0.44125  0.19378  1.0000
  H   H171      1.0  0.19168  0.18622  0.46673  1.0000
  H   H172      1.0  0.21052  0.26181  0.07283  1.0000
  H   H173      1.0  0.21075  0.26164  0.15862  1.0000
  H   H174      1.0  0.00920  0.28415  0.23028  1.0000
  C   C100      1.0  0.12764  0.12936  0.46606  1.0000
  C   C101      1.0  0.17303  0.45417  0.16877  1.0000
  H   H175      1.0  0.99776  0.27457  0.18515  1.0000
  H   H176      1.0  0.18562  0.46966  0.27298  1.0000
  C   C102      1.0  0.22756  0.18655  0.32470  1.0000
  H   H177      1.0  0.11057  0.98678  0.03681  1.0000
  H   H178      1.0  0.22515  0.21761  0.05714  1.0000
  H   H179      1.0  0.21299  0.36136  0.18102  1.0000
  H   H180      1.0  0.13400  0.46429  0.17436  1.0000
  H   H181      1.0  0.14479  0.99189  0.06225  1.0000
  C   C103      1.0  0.22116  0.40887  0.20256  1.0000
  C   C104      1.0  0.19860  0.16642  0.46982  1.0000
  H   H182      1.0  0.22778  0.28287  0.42268  1.0000
  H   H183      1.0  0.19202  0.48132  0.17283  1.0000
  C   C105      1.0  0.07015  0.47790  0.11117  1.0000
  C   C106      1.0  0.18120  0.99158  0.00352  1.0000
  C   C107      1.0  0.98016  0.15593  0.15699  1.0000
  C   C108      1.0  0.22543  0.45976  0.32993  1.0000
  H   H184      1.0  0.18155  0.99216  0.46832  1.0000
  H   H185      1.0  0.22919  0.23017  0.01258  1.0000
  H   H186      1.0  0.98265  0.98472  0.15237  1.0000
  H   H187      1.0  0.10748  0.48334  0.05351  1.0000
  H   H188      1.0  0.01900  0.98432  0.14085  1.0000
  H   H189      1.0  0.09000  0.43582  0.80467  1.0000
  S   S29       1.0  0.02091  0.10640  0.94013  1.0000
  H   H190      1.0  0.00027  0.45924  0.61395  1.0000
  C   C109      1.0  0.99338  0.15325  0.55492  1.0000
  C   C110      1.0  0.02836  0.25519  0.86461  1.0000
  C   C111      1.0  0.21006  0.13245  0.78125  1.0000
  S   S30       1.0  0.06748  0.44753  0.60646  1.0000
  H   H191      1.0  0.98588  0.45345  0.84099  1.0000
  H   H192      1.0  0.15249  0.25630  0.92976  1.0000
  H   H193      1.0  0.04031  0.11600  0.55290  1.0000
  C   C112      1.0  0.06160  0.46181  0.84799  1.0000
  H   H194      1.0  0.12223  0.44367  0.75884  1.0000
  H   H195      1.0  0.14869  0.07259  0.49716  1.0000
  H   H196      1.0  0.07681  0.34131  0.78570  1.0000
  H   H197      1.0  0.14602  0.28854  0.95037  1.0000
  S   S31       1.0  0.13181  0.34789  0.94689  1.0000
  Fe  Fe15      1.0  0.17954  0.29385  0.81942  1.0000
  S   S32       1.0  0.15677  0.32263  0.84453  1.0000
  C   C113      1.0  0.06544  0.47490  0.57663  1.0000
  Fe  Fe16      1.0  0.16830  0.31193  0.74617  1.0000
  S   S33       1.0  0.14519  0.34128  0.76661  1.0000
  S   S34       1.0  0.18197  0.31121  0.68953  1.0000
  Fe  Fe17      1.0  0.18595  0.36426  0.80668  1.0000
  C   C114      1.0  0.16343  0.27910  0.94732  1.0000
  Fe  Fe18      1.0  0.11769  0.29760  0.80270  1.0000
  S   S35       1.0  0.06144  0.27241  0.80168  1.0000
  S   S36       1.0  0.21052  0.33670  0.78434  1.0000
  S   S37       1.0  0.13901  0.26691  0.77975  1.0000
  S   S38       1.0  0.10208  0.29180  0.54895  1.0000
  C   C115      1.0  0.17881  0.14202  0.49902  1.0000
  H   H198      1.0  0.16393  0.00985  0.52280  1.0000
  H   H199      1.0  0.99245  0.17083  0.91987  1.0000
  H   H200      1.0  0.18197  0.43518  0.74749  1.0000
  H   H201      1.0  0.16395  0.20779  0.69475  1.0000
  H   H202      1.0  0.10004  0.46769  0.49982  1.0000
  S   S39       1.0  0.13220  0.01317  0.76828  1.0000
  H   H203      1.0  0.16990  0.44983  0.86973  1.0000
  H   H204      1.0  0.13106  0.19956  0.84152  1.0000
  C   C116      1.0  0.20000  0.02130  0.94791  1.0000
  S   S40       1.0  0.07816  0.44194  0.70482  1.0000
  S   S41       1.0  0.08476  0.02602  0.69093  1.0000
  C   C117      1.0  0.14459  0.15965  0.83863  1.0000
  C   C118      1.0  0.04687  0.02288  0.52994  1.0000
  C   C119      1.0  0.04130  0.02477  0.56509  1.0000
  C   C120      1.0  0.05181  0.00959  0.58918  1.0000
  C   C121      1.0  0.98844  0.08852  0.70776  1.0000
  H   H205      1.0  0.04708  0.01086  0.61625  1.0000
  C   C122      1.0  0.06386  0.00663  0.51896  1.0000
  H   H206      1.0  0.16739  0.44876  0.57351  1.0000
  H   H207      1.0  0.04677  0.46029  0.87067  1.0000
  C   C123      1.0  0.15471  0.46318  0.57942  1.0000
  H   H208      1.0  0.14641  0.17936  0.49314  1.0000
  C   C124      1.0  0.15931  0.30580  0.65075  1.0000
  C   C125      1.0  0.12526  0.28800  0.64970  1.0000
  C   C126      1.0  0.10833  0.28289  0.61807  1.0000
  C   C127      1.0  0.12504  0.29628  0.58725  1.0000
  C   C128      1.0  0.15909  0.31385  0.58822  1.0000
  C   C129      1.0  0.17606  0.31827  0.61973  1.0000
  H   H209      1.0  0.11206  0.27746  0.67312  1.0000
  H   H210      1.0  0.08208  0.26830  0.61737  1.0000
  H   H211      1.0  0.17235  0.32419  0.56478  1.0000
  H   H212      1.0  0.20239  0.33172  0.62014  1.0000
  C   C130      1.0  0.10620  0.45115  0.82675  1.0000
  H   H213      1.0  0.03663  0.09464  0.64560  1.0000
  C   C131      1.0  0.08509  0.09426  0.81538  1.0000
  C   C132      1.0  0.06032  0.35614  0.51948  1.0000
  H   H214      1.0  0.00193  0.24159  0.91233  1.0000
  H   H215      1.0  0.08338  0.23182  0.93527  1.0000
  C   C133      1.0  0.07468  0.99171  0.54313  1.0000
  C   C134      1.0  0.02642  0.25635  0.82864  1.0000
  H   H216      1.0  0.14885  0.10877  0.80752  1.0000
  H   H217      1.0  0.05181  0.26431  0.87715  1.0000
  H   H218      1.0  0.99341  0.24451  0.78535  1.0000
  C   C135      1.0  0.15455  0.45276  0.80338  1.0000
  H   H219      1.0  0.04340  0.35979  0.53634  1.0000
  H   H220      1.0  0.01695  0.22264  0.65273  1.0000
  H   H221      1.0  0.08915  0.14045  0.79482  1.0000
  Fe  Fe19      1.0  0.03357  0.01003  0.70779  1.0000
  H   H222      1.0  0.10004  0.48227  0.94339  1.0000
  C   C136      1.0  0.17829  0.00749  0.54414  1.0000
  C   C137      1.0  0.06867  0.33547  0.73065  1.0000
  C   C138      1.0  0.17795  0.05418  0.72057  1.0000
  C   C139      1.0  0.17214  0.03689  0.75149  1.0000
  C   C140      1.0  0.19876  0.03899  0.76990  1.0000
  H   H223      1.0  0.06442  0.17264  0.91330  1.0000
  H   H224      1.0  0.15787  0.05314  0.70621  1.0000
  H   H225      1.0  0.19458  0.02634  0.79420  1.0000
  H   H226      1.0  0.04592  0.33668  0.49910  1.0000
  H   H227      1.0  0.09547  0.07732  0.81134  1.0000
  C   C141      1.0  0.99988  0.24225  0.88456  1.0000
  C   C142      1.0  0.06615  0.21027  0.94982  1.0000
  H   H228      1.0  0.10026  0.38441  0.48607  1.0000
  S   S42       1.0  0.22634  0.37167  0.97173  1.0000
  H   H229      1.0  0.07128  0.00004  0.82758  1.0000
  H   H230      1.0  0.03468  0.31847  0.77296  1.0000
  H   H231      1.0  0.04223  0.37844  0.97346  1.0000
  C   C143      1.0  0.04205  0.16511  0.50039  1.0000
  C   C144      1.0  0.12749  0.37305  0.60980  1.0000
  H   H232      1.0  0.99594  0.36998  0.89697  1.0000
  C   C145      1.0  0.19425  0.15251  0.79492  1.0000
  C   C146      1.0  0.01319  0.32167  0.91032  1.0000
  H   H233      1.0  0.06858  0.00545  0.49191  1.0000
  S   S43       1.0  0.19641  0.26477  0.85444  1.0000
  H   H234      1.0  0.05825  0.17684  0.52331  1.0000
  H   H235      1.0  0.01630  0.17821  0.55438  1.0000
  H   H236      1.0  0.98818  0.14779  0.79764  1.0000
  C   C147      1.0  0.01561  0.26361  0.68197  1.0000
  C   C148      1.0  0.13252  0.18355  0.89276  1.0000
  H   H237      1.0  0.17454  0.20192  0.78975  1.0000
  H   H238      1.0  0.02017  0.32070  0.71083  1.0000
  C   C149      1.0  0.08364  0.44741  0.85704  1.0000
  C   C150      1.0  0.15657  0.13129  0.79113  1.0000
  Fe  Fe20      1.0  0.06298  0.46262  0.66102  1.0000
  C   C151      1.0  0.01579  0.23003  0.67994  1.0000
  C   C152      1.0  0.11974  0.46384  0.48902  1.0000
  C   C153      1.0  0.20992  0.07327  0.70828  1.0000
  H   H239      1.0  0.12593  0.40732  0.76895  1.0000
  H   H240      1.0  0.02834  0.03748  0.57371  1.0000
  C   C154      1.0  0.13847  0.08321  0.47851  1.0000
  H   H241      1.0  0.06802  0.29269  0.67613  1.0000
  H   H242      1.0  0.99323  0.20962  0.69145  1.0000
  H   H243      1.0  0.18148  0.00110  0.68630  1.0000
  C   C155      1.0  0.04465  0.11207  0.62360  1.0000
  C   C156      1.0  0.03300  0.14831  0.95597  1.0000
  C   C157      1.0  0.97962  0.31847  0.91038  1.0000
  C   C158      1.0  0.01124  0.13038  0.50798  1.0000
  H   H244      1.0  0.10340  0.33853  0.85521  1.0000
  H   H245      1.0  0.05008  0.36333  0.70447  1.0000
  H   H246      1.0  0.03351  0.47322  0.49724  1.0000
  H   H247      1.0  0.09895  0.11668  0.76563  1.0000
  H   H248      1.0  0.09830  0.15786  0.85133  1.0000
  H   H249      1.0  0.08703  0.10118  0.84323  1.0000
  H   H250      1.0  0.18571  0.29929  0.93511  1.0000
  S   S44       1.0  0.01431  0.44906  0.68294  1.0000
  H   H251      1.0  0.03695  0.08911  0.80982  1.0000
  H   H252      1.0  0.16131  0.10472  0.55598  1.0000
  C   C159      1.0  0.12487  0.17542  0.85422  1.0000
  H   H253      1.0  0.99861  0.10953  0.61645  1.0000
  C   C160      1.0  0.08780  0.34761  0.86713  1.0000
  N   N6        1.0  0.13258  0.45014  0.51634  1.0000
  H   H254      1.0  0.13397  0.19263  0.78493  1.0000
  C   C161      1.0  0.07695  0.46120  0.95105  1.0000
  C   C162      1.0  0.10390  0.41820  0.52972  1.0000
  C   C163      1.0  0.19307  0.46928  0.50167  1.0000
  H   H255      1.0  0.00185  0.38494  0.61298  1.0000
  C   C164      1.0  0.08402  0.38947  0.50246  1.0000
  H   H256      1.0  0.06755  0.42022  0.86277  1.0000
  Fe  Fe21      1.0  0.98353  0.05900  0.96800  1.0000
  H   H257      1.0  0.01434  0.30470  0.92984  1.0000
  C   C165      1.0  0.04951  0.46547  0.95272  1.0000
  H   H258      1.0  0.20323  0.47429  0.52838  1.0000
  H   H259      1.0  0.16169  0.98671  0.56109  1.0000
  H   H260      1.0  0.12723  0.15825  0.72985  1.0000
  H   H261      1.0  0.08667  0.42441  0.54299  1.0000
  H   H262      1.0  0.11219  0.40664  0.54944  1.0000
  C   C166      1.0  0.01676  0.40673  0.96850  1.0000
  H   H263      1.0  0.13187  0.44621  0.59305  1.0000
  H   H264      1.0  0.15587  0.41928  0.51496  1.0000
  H   H265      1.0  0.18565  0.23145  0.73324  1.0000
  H   H266      1.0  0.01735  0.11064  0.49947  1.0000
  H   H267      1.0  0.06941  0.39657  0.48573  1.0000
  C   C167      1.0  0.06814  0.99269  0.57817  1.0000
  C   C168      1.0  0.18956  0.99118  0.66444  1.0000
  C   C169      1.0  0.98913  0.05964  0.71922  1.0000
  C   C170      1.0  0.22800  0.99112  0.83351  1.0000
  H   H268      1.0  0.07380  0.34661  0.53486  1.0000
  H   H269      1.0  0.21998  0.02273  0.51238  1.0000
  C   C171      1.0  0.10267  0.12628  0.79290  1.0000
  C   C172      1.0  0.13452  0.09325  0.55359  1.0000
  C   C173      1.0  0.22336  0.01908  0.65389  1.0000
  C   C174      1.0  0.12191  0.09641  0.58885  1.0000
  H   H270      1.0  0.08045  0.33619  0.89288  1.0000
  H   H271      1.0  0.98101  0.30066  0.48573  1.0000
  H   H272      1.0  0.12379  0.06565  0.54737  1.0000
  N   N7        1.0  0.14313  0.11690  0.49173  1.0000
  S   S45       1.0  0.10962  0.42543  0.95302  1.0000
  H   H273      1.0  0.12729  0.08194  0.60802  1.0000
  H   H274      1.0  0.13380  0.12349  0.59773  1.0000
  H   H275      1.0  0.09520  0.08571  0.58754  1.0000
  H   H276      1.0  0.20783  0.06276  0.54855  1.0000
  H   H277      1.0  0.12049  0.19756  0.90258  1.0000
  H   H278      1.0  0.17511  0.44851  0.80876  1.0000
  H   H279      1.0  0.98233  0.31519  0.78277  1.0000
  C   C175      1.0  0.17963  0.98911  0.92451  1.0000
  H   H280      1.0  0.03698  0.23232  0.69469  1.0000
  H   H281      1.0  0.22258  0.04238  0.64743  1.0000
  H   H282      1.0  0.20490  0.12668  0.75317  1.0000
  C   C176      1.0  0.19314  0.04085  0.56527  1.0000
  C   C177      1.0  0.98718  0.46638  0.59519  1.0000
  H   H283      1.0  0.05670  0.13871  0.63394  1.0000
  H   H284      1.0  0.99274  0.06151  0.53702  1.0000
  C   C178      1.0  0.99392  0.14465  0.85382  1.0000
  H   H285      1.0  0.21063  0.43425  0.48864  1.0000
  N   N8        1.0  0.13847  0.14968  0.80079  1.0000
  C   C179      1.0  0.11644  0.40292  0.83519  1.0000
  C   C180      1.0  0.00383  0.14359  0.81592  1.0000
  H   H286      1.0  0.05662  0.16039  0.48099  1.0000
  H   H287      1.0  0.99428  0.46275  0.56891  1.0000
  H   H288      1.0  0.15059  0.00680  0.89756  1.0000
  H   H289      1.0  0.21404  0.08671  0.68444  1.0000
  C   C181      1.0  0.03906  0.17123  0.81018  1.0000
  C   C182      1.0  0.16549  0.44502  0.74059  1.0000
  C   C183      1.0  0.13935  0.43545  0.76781  1.0000
  H   H290      1.0  0.98904  0.34297  0.86067  1.0000
  H   H291      1.0  0.18911  0.01841  0.87769  1.0000
  H   H292      1.0  0.01014  0.14016  0.87111  1.0000
  H   H293      1.0  0.00043  0.17149  0.85983  1.0000
  H   H294      1.0  0.21546  0.99167  0.81042  1.0000
  C   C184      1.0  0.97985  0.15254  0.59131  1.0000
  C   C185      1.0  0.20498  0.00095  0.52935  1.0000
  C   C186      1.0  0.16173  0.21100  0.72291  1.0000
  H   H295      1.0  0.00637  0.35383  0.58773  1.0000
  S   S46       1.0  0.03226  0.04102  0.50050  1.0000
  Fe  Fe22      1.0  0.08678  0.99531  0.73421  1.0000
  H   H296      1.0  0.00176  0.11866  0.80926  1.0000
  H   H297      1.0  0.20450  0.17644  0.78053  1.0000
  H   H298      1.0  0.00739  0.10606  0.69117  1.0000
  H   H299      1.0  0.11781  0.47790  0.81814  1.0000
  H   H300      1.0  0.00917  0.24286  0.52985  1.0000
  H   H301      1.0  0.14328  0.21897  0.72664  1.0000
  H   H302      1.0  0.06243  0.10804  0.60879  1.0000
  H   H303      1.0  0.03671  0.05101  0.82257  1.0000
  H   H304      1.0  0.18185  0.15896  0.52167  1.0000
  C   C187      1.0  0.07464  0.42984  0.95841  1.0000
  H   H305      1.0  0.06819  0.31080  0.73003  1.0000
  H   H306      1.0  0.04520  0.28406  0.63741  1.0000
  H   H307      1.0  0.04584  0.16945  0.78315  1.0000
  H   H308      1.0  0.04198  0.19690  0.81466  1.0000
  H   H309      1.0  0.05581  0.16819  0.82790  1.0000
  C   C188      1.0  0.03414  0.19085  0.48466  1.0000
  C   C189      1.0  0.14656  0.47584  0.54601  1.0000
  H   H310      1.0  0.04534  0.06435  0.77864  1.0000
  H   H311      1.0  0.22467  0.43671  0.88424  1.0000
  H   H312      1.0  0.02116  0.37104  0.66519  1.0000
  H   H313      1.0  0.09774  0.46143  0.88053  1.0000
  C   C190      1.0  0.01908  0.43810  0.96092  1.0000
  H   H314      1.0  0.12833  0.13469  0.53660  1.0000
  H   H315      1.0  0.09817  0.09411  0.52016  1.0000
  H   H316      1.0  0.06558  0.33858  0.85076  1.0000
  H   H317      1.0  0.05791  0.36432  0.76887  1.0000
  H   H318      1.0  0.15382  0.43370  0.71513  1.0000
  H   H319      1.0  0.15008  0.12052  0.76428  1.0000
  H   H320      1.0  0.12351  0.15974  0.90731  1.0000
  N   N9        1.0  0.13171  0.44123  0.83344  1.0000
  H   H321      1.0  0.07855  0.36234  0.60103  1.0000
  H   H322      1.0  0.03260  0.34823  0.91650  1.0000
  H   H323      1.0  0.09012  0.37950  0.66248  1.0000
  H   H324      1.0  0.09411  0.35608  0.72678  1.0000
  H   H325      1.0  0.10330  0.15143  0.49582  1.0000
  H   H326      1.0  0.01415  0.27671  0.47898  1.0000
  C   C191      1.0  0.10625  0.38645  0.87093  1.0000
  H   H327      1.0  0.02545  0.31797  0.61710  1.0000
  H   H328      1.0  0.14096  0.36264  0.62378  1.0000
  H   H329      1.0  0.18061  0.48276  0.62840  1.0000
  H   H330      1.0  0.04431  0.15224  0.57543  1.0000
  C   C192      1.0  0.15176  0.45826  0.86567  1.0000
  Fe  Fe23      1.0  0.03137  0.43211  0.72884  1.0000
  Fe  Fe24      1.0  0.11897  0.30334  0.49281  1.0000
  C   C193      1.0  0.15004  0.18163  0.78043  1.0000
  H   H331      1.0  0.12814  0.39396  0.88746  1.0000
  H   H332      1.0  0.09040  0.39405  0.88450  1.0000
  C   C194      1.0  0.05000  0.46205  0.54450  1.0000
  C   C195      1.0  0.99543  0.24403  0.81312  1.0000
  H   H333      1.0  0.22185  0.03848  0.93287  1.0000
  H   H334      1.0  0.20893  0.04083  0.58645  1.0000
  C   C196      1.0  0.05882  0.34036  0.76672  1.0000
  H   H335      1.0  0.04500  0.44697  0.82606  1.0000
  H   H336      1.0  0.14038  0.13757  0.85430  1.0000
  H   H337      1.0  0.01763  0.31377  0.88458  1.0000
  H   H338      1.0  0.13711  0.39991  0.61845  1.0000
  H   H339      1.0  0.99304  0.25959  0.66891  1.0000
  C   C197      1.0  0.12486  0.11038  0.52512  1.0000
  H   H340      1.0  0.13187  0.37215  0.58177  1.0000
  H   H341      1.0  0.15910  0.20003  0.89745  1.0000
  H   H342      1.0  0.99989  0.30959  0.65297  1.0000
  H   H343      1.0  0.99118  0.20555  0.59022  1.0000
  C   C198      1.0  0.02616  0.12553  0.56760  1.0000
  H   H344      1.0  0.01447  0.26927  0.70974  1.0000
  H   H345      1.0  0.13645  0.44998  0.88880  1.0000
  S   S47       1.0  0.02201  0.05357  0.70632  1.0000
  H   H346      1.0  0.99891  0.15817  0.61122  1.0000
  C   C199      1.0  0.00103  0.36006  0.61386  1.0000
  H   H347      1.0  0.18607  0.03493  0.95070  1.0000
  C   C200      1.0  0.01525  0.10442  0.60088  1.0000
  H   H348      1.0  0.10236  0.34926  0.67008  1.0000
  H   H349      1.0  0.03946  0.43525  0.53797  1.0000
  N   N10       1.0  0.99978  0.12484  0.54489  1.0000
  H   H350      1.0  0.09455  0.39030  0.81810  1.0000
  H   H351      1.0  0.08247  0.32560  0.60698  1.0000
  C   C201      1.0  0.05546  0.17669  0.93746  1.0000
  S   S48       1.0  0.00333  0.38277  0.75867  1.0000
  H   H352      1.0  0.19166  0.12819  0.50673  1.0000
  H   H353      1.0  0.05046  0.38236  0.63194  1.0000
  H   H354      1.0  0.13353  0.39461  0.82532  1.0000
  N   N11       1.0  0.05019  0.32755  0.66667  1.0000
  C   C202      1.0  0.02461  0.32762  0.64352  1.0000
  C   C203      1.0  0.04630  0.29242  0.66477  1.0000
  C   C204      1.0  0.04579  0.33690  0.70293  1.0000
  C   C205      1.0  0.08410  0.35299  0.65553  1.0000
  C   C206      1.0  0.09105  0.35190  0.61659  1.0000
  C   C207      1.0  0.02620  0.36242  0.64022  1.0000
  C   C208      1.0  0.15667  0.44102  0.50122  1.0000
  C   C209      1.0  0.04883  0.07354  0.80596  1.0000
  H   H355      1.0  0.17067  0.17897  0.84333  1.0000
  H   H356      1.0  0.16922  0.16935  0.73383  1.0000
  S   S49       1.0  0.98296  0.44058  0.95627  1.0000
  H   H357      1.0  0.02050  0.19831  0.50229  1.0000
  C   C210      1.0  0.15138  0.17742  0.74073  1.0000
  H   H358      1.0  0.17343  0.04414  0.57669  1.0000
  H   H359      1.0  0.18013  0.47305  0.73831  1.0000
  H   H360      1.0  0.20092  0.10819  0.79504  1.0000
  H   H361      1.0  0.00237  0.07676  0.59435  1.0000
  H   H362      1.0  0.06018  0.99127  0.87216  1.0000
  H   H363      1.0  0.99130  0.12659  0.49000  1.0000
  C   C211      1.0  0.21320  0.45854  0.47964  1.0000
  S   S50       1.0  0.21602  0.42331  0.80862  1.0000
  H   H364      1.0  0.98402  0.42150  0.81116  1.0000
  H   H365      1.0  0.20169  0.15911  0.82248  1.0000
  C   C212      1.0  0.04445  0.40275  0.96780  1.0000
  H   H366      1.0  0.22182  0.00331  0.55070  1.0000
  C   C213      1.0  0.16815  0.99809  0.89148  1.0000
  C   C214      1.0  0.22448  0.24950  0.85092  1.0000
  H   H367      1.0  0.99313  0.41110  0.87219  1.0000
  H   H368      1.0  0.16585  0.48062  0.80004  1.0000
  C   C215      1.0  0.98703  0.23698  0.51451  1.0000
  Fe  Fe25      1.0  0.12220  0.38673  0.97464  1.0000
  C   C216      1.0  0.12446  0.16025  0.47850  1.0000
  C   C217      1.0  0.04675  0.48359  0.52132  1.0000
  H   H369      1.0  0.05726  0.21427  0.47875  1.0000
  H   H370      1.0  0.99387  0.08555  0.86133  1.0000
  H   H371      1.0  0.21951  0.23559  0.90430  1.0000
  H   H372      1.0  0.17284  0.98582  0.64204  1.0000
  H   H373      1.0  0.99335  0.38526  0.97463  1.0000
  C   C218      1.0  0.99670  0.24895  0.47771  1.0000
  H   H374      1.0  0.99610  0.68413  0.06621  1.0000
  C   C219      1.0  0.99194  0.51203  0.16174  1.0000
  S   S51       1.0  0.00544  0.55979  0.33310  1.0000
  S   S52       1.0  0.06571  0.78789  0.46234  1.0000
  C   C220      1.0  0.09527  0.66874  0.46910  1.0000
  C   C221      1.0  0.03942  0.67997  0.01430  1.0000
  Fe  Fe26      1.0  0.13992  0.72841  0.32368  1.0000
  S   S53       1.0  0.12279  0.75816  0.35555  1.0000
  S   S54       1.0  0.15188  0.68824  0.34285  1.0000
  Fe  Fe27      1.0  0.12716  0.75464  0.25661  1.0000
  S   S55       1.0  0.11071  0.78701  0.28357  1.0000
  S   S56       1.0  0.12390  0.74705  0.19892  1.0000
  Fe  Fe28      1.0  0.15296  0.80206  0.32016  1.0000
  S   S57       1.0  0.19345  0.85832  0.32873  1.0000
  Fe  Fe29      1.0  0.08080  0.74141  0.31671  1.0000
  S   S58       1.0  0.02546  0.72307  0.31176  1.0000
  S   S59       1.0  0.17141  0.77191  0.28999  1.0000
  S   S60       1.0  0.09654  0.70916  0.28763  1.0000
  S   S61       1.0  0.13837  0.87447  0.12005  1.0000
  Fe  Fe30      1.0  0.15874  0.83520  0.44080  1.0000
  H   H375      1.0  0.09890  0.61195  0.47115  1.0000
  Fe  Fe31      1.0  0.09328  0.76627  0.43341  1.0000
  C   C222      1.0  0.12067  0.94869  0.30317  1.0000
  S   S62       1.0  0.06380  0.70791  0.41662  1.0000
  Fe  Fe32      1.0  0.09217  0.83530  0.43070  1.0000
  S   S63       1.0  0.07369  0.87174  0.41167  1.0000
  H   H376      1.0  0.01424  0.72401  0.09069  1.0000
  S   S64       1.0  0.11816  0.81342  0.40028  1.0000
  H   H377      1.0  0.00826  0.83914  0.26349  1.0000
  C   C223      1.0  0.00405  0.88434  0.22100  1.0000
  H   H378      1.0  0.18321  0.77865  0.42378  1.0000
  H   H379      1.0  0.07782  0.52368  0.13925  1.0000
  Fe  Fe33      1.0  0.03243  0.52151  0.45088  1.0000
  S   S65       1.0  0.04461  0.55728  0.40763  1.0000
  Fe  Fe34      1.0  0.99218  0.52181  0.38714  1.0000
  S   S66       1.0  0.13389  0.85965  0.46947  1.0000
  Fe  Fe35      1.0  0.06139  0.52334  0.38138  1.0000
  S   S67       1.0  0.11110  0.53221  0.36055  1.0000
  H   H380      1.0  0.05432  0.48454  0.16226  1.0000
  H   H381      1.0  0.01799  0.80106  0.20390  1.0000
  H   H382      1.0  0.17691  0.95230  0.45601  1.0000
  H   H383      1.0  0.17716  0.61900  0.27450  1.0000
  C   C224      1.0  0.20871  0.96041  0.37562  1.0000
  H   H384      1.0  0.17507  0.74542  0.39260  1.0000
  C   C225      1.0  0.17691  0.60168  0.29336  1.0000
  C   C226      1.0  0.14775  0.58055  0.31094  1.0000
  C   C227      1.0  0.14701  0.55875  0.33640  1.0000
  C   C228      1.0  0.17577  0.55760  0.34288  1.0000
  C   C229      1.0  0.20502  0.57894  0.32551  1.0000
  H   H385      1.0  0.12615  0.58205  0.30566  1.0000
  H   H386      1.0  0.17591  0.54113  0.36253  1.0000
  Fe  Fe36      1.0  0.13283  0.86332  0.06294  1.0000
  C   C230      1.0  0.12745  0.78248  0.17748  1.0000
  C   C231      1.0  0.11773  0.77899  0.14275  1.0000
  C   C232      1.0  0.12063  0.80707  0.12513  1.0000
  C   C233      1.0  0.13362  0.83884  0.14210  1.0000
  C   C234      1.0  0.14324  0.84233  0.17682  1.0000
  C   C235      1.0  0.14012  0.81420  0.19456  1.0000
  H   H387      1.0  0.10790  0.75453  0.12944  1.0000
  H   H388      1.0  0.11277  0.80401  0.09844  1.0000
  H   H389      1.0  0.15384  0.86699  0.18966  1.0000
  H   H390      1.0  0.14830  0.81727  0.22115  1.0000
  H   H391      1.0  0.11916  0.50492  0.13305  1.0000
  H   H392      1.0  0.00887  0.68763  0.37728  1.0000
  C   C236      1.0  0.03306  0.61700  0.13724  1.0000
  H   H393      1.0  0.04726  0.60759  0.12275  1.0000
  C   C237      1.0  0.19927  0.89690  0.34896  1.0000
  C   C238      1.0  0.17460  0.89845  0.36692  1.0000
  C   C239      1.0  0.17949  0.92972  0.38065  1.0000
  H   H394      1.0  0.15905  0.69616  0.24457  1.0000
  H   H395      1.0  0.15148  0.87567  0.36980  1.0000
  H   H396      1.0  0.15993  0.93010  0.39434  1.0000
  C   C240      1.0  0.18383  0.68227  0.35921  1.0000
  C   C241      1.0  0.17729  0.64881  0.36329  1.0000
  C   C242      1.0  0.20147  0.64189  0.37523  1.0000
  H   H397      1.0  0.16572  0.66154  0.23126  1.0000
  H   H398      1.0  0.14249  0.51327  0.07687  1.0000
  H   H399      1.0  0.15320  0.62799  0.35700  1.0000
  H   H400      1.0  0.19591  0.61601  0.37824  1.0000
  H   H401      1.0  0.16839  0.94901  0.26849  1.0000
  C   C243      1.0  0.02247  0.60034  0.35868  1.0000
  C   C244      1.0  0.05308  0.62838  0.35030  1.0000
  C   C245      1.0  0.06605  0.66097  0.36737  1.0000
  C   C246      1.0  0.04921  0.66666  0.39407  1.0000
  C   C247      1.0  0.01981  0.63831  0.40394  1.0000
  C   C248      1.0  0.00682  0.60605  0.38684  1.0000
  H   H402      1.0  0.06721  0.62492  0.33060  1.0000
  H   H403      1.0  0.08927  0.68168  0.35985  1.0000
  H   H404      1.0  0.00606  0.64150  0.42427  1.0000
  C   C249      1.0  0.10615  0.66088  0.99191  1.0000
  C   C250      1.0  0.01252  0.89952  0.33712  1.0000
  C   C251      1.0  0.03777  0.92423  0.35814  1.0000
  C   C252      1.0  0.05534  0.91523  0.38122  1.0000
  C   C253      1.0  0.04863  0.88133  0.38373  1.0000
  C   C254      1.0  0.02346  0.85664  0.36258  1.0000
  C   C255      1.0  0.00610  0.86569  0.33911  1.0000
  H   H405      1.0  0.04423  0.95059  0.35618  1.0000
  H   H406      1.0  0.07485  0.93516  0.39642  1.0000
  H   H407      1.0  0.01751  0.83052  0.36429  1.0000
  H   H408      1.0  0.98799  0.73902  0.19938  1.0000
  S   S68       1.0  0.99258  0.91091  0.30439  1.0000
  C   C256      1.0  0.99088  0.70096  0.08291  1.0000
  N   N12       1.0  0.06350  0.61358  0.23042  1.0000
  C   C257      1.0  0.05650  0.58255  0.25042  1.0000
  C   C258      1.0  0.05034  0.63298  0.25002  1.0000
  C   C259      1.0  0.04768  0.60237  0.19511  1.0000
  C   C260      1.0  0.09963  0.63693  0.22622  1.0000
  C   C261      1.0  0.12100  0.64581  0.25952  1.0000
  C   C262      1.0  0.07217  0.56188  0.23632  1.0000
  H   H409      1.0  0.97934  0.56333  0.45518  1.0000
  C   C263      1.0  0.01300  0.61501  0.25376  1.0000
  C   C264      1.0  0.00315  0.63819  0.27282  1.0000
  C   C265      1.0  0.06554  0.53274  0.26001  1.0000
  C   C266      1.0  0.04855  0.63090  0.17284  1.0000
  H   H410      1.0  0.02981  0.56446  0.25125  1.0000
  H   H411      1.0  0.06413  0.58968  0.27802  1.0000
  H   H412      1.0  0.06035  0.63876  0.27671  1.0000
  H   H413      1.0  0.05842  0.65805  0.23823  1.0000
  H   H414      1.0  0.02187  0.58173  0.19711  1.0000
  H   H415      1.0  0.05964  0.59080  0.17981  1.0000
  H   H416      1.0  0.10941  0.62621  0.20670  1.0000
  H   H417      1.0  0.13576  0.97151  0.28760  1.0000
  H   H418      1.0  0.12030  0.62308  0.27032  1.0000
  H   H419      1.0  0.11273  0.65695  0.27991  1.0000
  H   H420      1.0  0.06208  0.55069  0.21038  1.0000
  H   H421      1.0  0.09891  0.57782  0.23418  1.0000
  S   S69       1.0  0.15500  0.90557  0.02561  1.0000
  H   H422      1.0  0.00053  0.60830  0.22825  1.0000
  H   H423      1.0  0.00408  0.59159  0.26878  1.0000
  H   H424      1.0  0.01191  0.66253  0.25932  1.0000
  H   H425      1.0  0.19924  0.92768  0.23225  1.0000
  H   H426      1.0  0.01313  0.64381  0.29970  1.0000
  H   H427      1.0  0.08099  0.52177  0.25267  1.0000
  H   H428      1.0  0.07107  0.54159  0.28747  1.0000
  H   H429      1.0  0.03968  0.51259  0.25754  1.0000
  Fe  Fe37      1.0  0.10682  0.87765  0.99736  1.0000
  S   S70       1.0  0.98062  0.48917  0.43411  1.0000
  C   C267      1.0  0.00311  0.75145  0.22292  1.0000
  H   H430      1.0  0.02683  0.75639  0.97955  1.0000
  H   H431      1.0  0.00726  0.86195  0.47405  1.0000
  H   H432      1.0  0.15839  0.73674  0.46981  1.0000
  H   H433      1.0  0.14196  0.50139  0.28572  1.0000
  H   H434      1.0  0.01273  0.80806  0.45966  1.0000
  H   H435      1.0  0.16531  0.49551  0.12290  1.0000
  H   H436      1.0  0.13075  0.66816  0.00191  1.0000
  H   H437      1.0  0.10906  0.94396  0.17190  1.0000
  H   H438      1.0  0.98921  0.96148  0.07883  1.0000
  C   C268      1.0  0.98928  0.77939  0.30165  1.0000
  N   N13       1.0  0.12589  0.66677  0.46516  1.0000
  C   C269      1.0  0.12820  0.48576  0.06911  1.0000
  H   H439      1.0  0.22702  0.70048  0.21327  1.0000
  S   S71       1.0  0.07499  0.74965  0.01322  1.0000
  H   H440      1.0  0.99219  0.74598  0.44750  1.0000
  C   C270      1.0  0.18047  0.75299  0.42031  1.0000
  H   H441      1.0  0.14144  0.94201  0.21993  1.0000
  C   C271      1.0  0.03559  0.75255  0.21824  1.0000
  H   H442      1.0  0.11720  0.96047  0.23367  1.0000
  H   H443      1.0  0.01618  0.79804  0.41529  1.0000
  H   H444      1.0  0.21201  0.60515  0.44376  1.0000
  H   H445      1.0  0.09149  0.60723  0.99605  1.0000
  H   H446      1.0  0.03290  0.63755  0.12232  1.0000
  C   C272      1.0  0.13163  0.98244  0.03708  1.0000
  C   C273      1.0  0.98429  0.76385  0.98139  1.0000
  H   H447      1.0  0.01779  0.92008  0.07225  1.0000
  H   H448      1.0  0.00974  0.93248  0.14962  1.0000
  H   H449      1.0  0.07188  0.91926  0.19502  1.0000
  C   C274      1.0  0.05057  0.70857  0.99349  1.0000
  C   C275      1.0  0.05576  0.93087  0.10895  1.0000
  H   H450      1.0  0.01143  0.91564  0.46900  1.0000
  H   H451      1.0  0.03629  0.49434  0.12656  1.0000
  H   H452      1.0  0.12226  0.95464  0.03464  1.0000
  C   C276      1.0  0.09702  0.92413  0.19151  1.0000
  C   C277      1.0  0.15257  0.72801  0.44244  1.0000
  H   H453      1.0  0.09286  0.93988  0.45266  1.0000
  C   C278      1.0  0.99866  0.79475  0.43583  1.0000
  H   H454      1.0  0.98007  0.83782  0.19115  1.0000
  H   H455      1.0  0.02922  0.87485  0.00736  1.0000
  C   C279      1.0  0.14563  0.69102  0.43729  1.0000
  H   H456      1.0  0.99310  0.89254  0.12796  1.0000
  C   C280      1.0  0.20602  0.60163  0.30091  1.0000
  H   H457      1.0  0.05802  0.61534  0.99340  1.0000
  H   H458      1.0  0.16051  0.49215  0.45460  1.0000
  H   H459      1.0  0.13257  0.68171  0.41192  1.0000
  H   H460      1.0  0.14389  0.48548  0.24447  1.0000
  H   H461      1.0  0.10147  0.62539  0.42799  1.0000
  H   H462      1.0  0.08307  0.66421  0.44362  1.0000
  H   H463      1.0  0.13066  0.72916  0.43448  1.0000
  C   C281      1.0  0.03149  0.89855  0.99907  1.0000
  H   H464      1.0  0.98688  0.84621  0.32303  1.0000
  S   S72       1.0  0.01209  0.49113  0.35738  1.0000
  S   S73       1.0  0.04747  0.48726  0.42563  1.0000
  C   C282      1.0  0.99864  0.84886  0.21218  1.0000
  H   H465      1.0  0.14614  0.53223  0.43421  1.0000
  C   C283      1.0  0.13477  0.95822  0.34050  1.0000
  H   H466      1.0  0.98304  0.88548  0.01421  1.0000
  Fe  Fe38      1.0  0.99611  0.95797  0.39559  1.0000
  C   C284      1.0  0.11964  0.95370  0.44989  1.0000
  C   C285      1.0  0.98780  0.82643  0.24445  1.0000
  H   H467      1.0  0.13036  0.72762  0.97658  1.0000
  H   H468      1.0  0.04874  0.76793  0.19572  1.0000
  H   H469      1.0  0.02188  0.85193  0.20244  1.0000
  S   S74       1.0  0.15142  0.83245  0.03585  1.0000
  S   S75       1.0  0.21492  0.87214  0.43619  1.0000
  H   H470      1.0  0.07462  0.94079  0.08876  1.0000
  H   H471      1.0  0.03556  0.96141  0.09312  1.0000
  H   H472      1.0  0.01746  0.52778  0.16827  1.0000
  C   C286      1.0  0.02660  0.93404  0.09729  1.0000
  C   C287      1.0  0.03645  0.95957  0.97705  1.0000
  H   H473      1.0  0.99625  0.78908  0.99531  1.0000
  H   H474      1.0  0.22420  0.68056  0.25419  1.0000
  C   C288      1.0  0.02066  0.64670  0.00023  1.0000
  C   C289      1.0  0.98653  0.68194  0.36480  1.0000
  H   H475      1.0  0.00064  0.72313  0.02031  1.0000
  H   H476      1.0  0.13648  0.48714  0.34106  1.0000
  H   H477      1.0  0.09574  0.94543  0.30370  1.0000
  H   H478      1.0  0.06656  0.94593  0.13322  1.0000
  C   C290      1.0  0.08290  0.62499  0.00420  1.0000
  C   C291      1.0  0.11565  0.63106  0.45276  1.0000
  H   H479      1.0  0.15066  0.58453  0.42129  1.0000
  C   C292      1.0  0.00820  0.78781  0.22849  1.0000
  H   H480      1.0  0.19593  0.88786  0.24426  1.0000
  C   C293      1.0  0.14314  0.62270  0.44744  1.0000
  S   S76       1.0  0.00844  0.53629  0.09635  1.0000
  C   C294      1.0  0.18134  0.49081  0.28022  1.0000
  C   C295      1.0  0.98773  0.69574  0.33271  1.0000
  Fe  Fe39      1.0  0.10273  0.80778  0.00784  1.0000
  H   H481      1.0  0.16948  0.96538  0.99204  1.0000
  H   H482      1.0  0.12567  0.94403  0.42618  1.0000
  C   C296      1.0  0.00535  0.90479  0.00309  1.0000
  H   H483      1.0  0.08166  0.62524  0.03281  1.0000
  H   H484      1.0  0.20364  0.75424  0.42790  1.0000
  C   C297      1.0  0.99920  0.91934  0.12433  1.0000
  C   C298      1.0  0.14495  0.49729  0.47215  1.0000
  H   H485      1.0  0.07420  0.49064  0.08613  1.0000
  H   H486      1.0  0.00432  0.75896  0.04283  1.0000
  H   H487      1.0  0.18683  0.49666  0.30828  1.0000
  H   H488      1.0  0.02269  0.89689  0.24191  1.0000
  Fe  Fe40      1.0  0.16953  0.87258  0.99572  1.0000
  H   H489      1.0  0.20376  0.51581  0.23240  1.0000
  C   C299      1.0  0.05915  0.49627  0.13652  1.0000
  N   N14       1.0  0.11949  0.91730  0.28730  1.0000
  C   C300      1.0  0.10069  0.90926  0.25358  1.0000
  C   C301      1.0  0.10196  0.88857  0.31203  1.0000
  H   H490      1.0  0.11635  0.52247  0.46762  1.0000
  C   C302      1.0  0.15400  0.92486  0.28238  1.0000
  C   C303      1.0  0.15805  0.89639  0.26463  1.0000
  C   C304      1.0  0.11638  0.93646  0.22550  1.0000
  H   H491      1.0  0.10920  0.49208  0.43316  1.0000
  C   C305      1.0  0.08394  0.85170  0.29689  1.0000
  C   C306      1.0  0.07648  0.82595  0.32509  1.0000
  C   C307      1.0  0.19311  0.90958  0.25353  1.0000
  H   H492      1.0  0.01248  0.90040  0.19798  1.0000
  H   H493      1.0  0.07584  0.90508  0.25849  1.0000
  H   H494      1.0  0.09656  0.88501  0.24162  1.0000
  H   H495      1.0  0.11898  0.89014  0.33278  1.0000
  H   H496      1.0  0.08272  0.89124  0.32554  1.0000
  H   H497      1.0  0.09621  0.90050  0.18167  1.0000
  H   H498      1.0  0.20818  0.68796  0.98380  1.0000
  H   H499      1.0  0.00756  0.59587  0.13957  1.0000
  H   H500      1.0  0.16692  0.92982  0.30762  1.0000
  H   H501      1.0  0.14237  0.88559  0.24134  1.0000
  H   H502      1.0  0.15193  0.87571  0.28308  1.0000
  C   C308      1.0  0.20557  0.52199  0.26045  1.0000
  H   H503      1.0  0.02818  0.80168  0.24785  1.0000
  H   H504      1.0  0.01250  0.62503  0.01668  1.0000
  H   H505      1.0  0.12099  0.93730  0.35849  1.0000
  H   H506      1.0  0.06062  0.84671  0.28504  1.0000
  H   H507      1.0  0.09785  0.84704  0.27688  1.0000
  H   H508      1.0  0.06096  0.79970  0.31450  1.0000
  H   H509      1.0  0.09950  0.82846  0.33517  1.0000
  H   H510      1.0  0.06369  0.82998  0.34681  1.0000
  H   H511      1.0  0.13207  0.48991  0.99760  1.0000
  H   H512      1.0  0.98398  0.58618  0.39547  1.0000
  H   H513      1.0  0.21027  0.92238  0.27559  1.0000
  H   H514      1.0  0.11982  0.59064  0.40184  1.0000
  H   H515      1.0  0.00656  0.80692  0.30493  1.0000
  S   S77       1.0  0.08351  0.83744  0.03736  1.0000
  H   H516      1.0  0.16915  0.69188  0.43353  1.0000
  H   H517      1.0  0.16902  0.52532  0.01574  1.0000
  H   H518      1.0  0.05109  0.76355  0.24181  1.0000
  H   H519      1.0  0.98103  0.88272  0.22969  1.0000
  H   H520      1.0  0.16371  0.64239  0.43304  1.0000
  H   H521      1.0  0.09883  0.67843  0.00390  1.0000
  S   S78       1.0  0.01179  0.53599  0.99539  1.0000
  H   H522      1.0  0.11140  0.56777  0.44150  1.0000
  H   H523      1.0  0.03130  0.72630  0.21410  1.0000
  C   C309      1.0  0.15652  0.67147  0.25213  1.0000
  H   H524      1.0  0.00366  0.76691  0.29610  1.0000
  H   H525      1.0  0.17170  0.67595  0.27569  1.0000
  C   C310      1.0  0.98595  0.73322  0.03241  1.0000
  C   C311      1.0  0.98089  0.51178  0.12809  1.0000
  H   H526      1.0  0.03499  0.64226  0.18509  1.0000
  C   C312      1.0  0.21458  0.70909  0.36937  1.0000
  H   H527      1.0  0.10449  0.66171  0.21577  1.0000
  H   H528      1.0  0.04569  0.68355  0.04154  1.0000
  H   H529      1.0  0.07392  0.65155  0.16891  1.0000
  C   C313      1.0  0.13040  0.58929  0.42697  1.0000
  C   C314      1.0  0.00779  0.93557  0.99270  1.0000
  H   H530      1.0  0.04843  0.90381  0.11304  1.0000
  C   C315      1.0  0.12806  0.51186  0.45058  1.0000
  H   H531      1.0  0.20094  0.54344  0.26467  1.0000
  H   H532      1.0  0.16040  0.96460  0.34058  1.0000
  H   H533      1.0  0.21991  0.73509  0.36724  1.0000
  H   H534      1.0  0.99098  0.73513  0.24510  1.0000
  C   C316      1.0  0.05992  0.92232  0.98298  1.0000
  S   S79       1.0  0.13476  0.78798  0.47335  1.0000
  H   H535      1.0  0.98900  0.76398  0.35439  1.0000
  H   H536      1.0  0.22692  0.57817  0.33150  1.0000
  H   H537      1.0  0.17426  0.48748  0.05644  1.0000
  H   H538      1.0  0.12788  0.98096  0.44715  1.0000
  H   H539      1.0  0.98439  0.80665  0.42728  1.0000
  Fe  Fe41      1.0  0.98330  0.52381  0.04426  1.0000
  H   H540      1.0  0.15234  0.61988  0.47283  1.0000
  C   C317      1.0  0.15558  0.49734  0.01076  1.0000
  H   H541      1.0  0.22822  0.96791  0.02101  1.0000
  C   C318      1.0  0.20540  0.59376  0.46966  1.0000
  H   H542      1.0  0.17884  0.58273  0.47291  1.0000
  H   H543      1.0  0.17014  0.49068  0.99324  1.0000
  H   H544      1.0  0.21111  0.57287  0.47124  1.0000
  C   C319      1.0  0.00998  0.70839  0.62046  1.0000
  C   C320      1.0  0.99930  0.67147  0.74746  1.0000
  S   S80       1.0  0.05457  0.48418  0.75555  1.0000
  H   H545      1.0  0.00008  0.74004  0.94214  1.0000
  H   H546      1.0  0.10040  0.86719  0.67499  1.0000
  H   H547      1.0  0.08837  0.62624  0.63281  1.0000
  H   H548      1.0  0.16927  0.66376  0.91512  1.0000
  N   N15       1.0  0.98717  0.55063  0.57562  1.0000
  H   H549      1.0  0.05086  0.85985  0.64726  1.0000
  C   C321      1.0  0.02382  0.67006  0.94405  1.0000
  C   C322      1.0  0.00579  0.85953  0.82405  1.0000
  S   S81       1.0  0.07961  0.97204  0.60803  1.0000
  C   C323      1.0  0.98451  0.51620  0.57118  1.0000
  H   H550      1.0  0.09181  0.96471  0.85016  1.0000
  C   C324      1.0  0.04042  0.59145  0.61123  1.0000
  H   H551      1.0  0.04683  0.87592  0.92277  1.0000
  Fe  Fe42      1.0  0.18716  0.80063  0.82489  1.0000
  S   S82       1.0  0.16136  0.82306  0.85550  1.0000
  Fe  Fe43      1.0  0.06220  0.97675  0.66058  1.0000
  Fe  Fe44      1.0  0.16314  0.81428  0.75503  1.0000
  S   S83       1.0  0.13535  0.83595  0.78157  1.0000
  S   S84       1.0  0.16825  0.80828  0.69670  1.0000
  Fe  Fe45      1.0  0.18034  0.86466  0.81606  1.0000
  S   S85       1.0  0.19735  0.92205  0.81908  1.0000
  Fe  Fe46      1.0  0.11867  0.79318  0.81905  1.0000
  S   S86       1.0  0.06833  0.75119  0.83618  1.0000
  S   S87       1.0  0.20886  0.84420  0.78776  1.0000
  S   S88       1.0  0.14378  0.76966  0.78992  1.0000
  S   S89       1.0  0.09848  0.81560  0.55743  1.0000
  S   S90       1.0  0.05390  0.54521  0.50295  1.0000
  H   H552      1.0  0.19987  0.51014  0.59264  1.0000
  H   H553      1.0  0.13837  0.69291  0.51510  1.0000
  H   H554      1.0  0.01106  0.66346  0.79965  1.0000
  H   H555      1.0  0.01106  0.57359  0.50863  1.0000
  H   H556      1.0  0.09669  0.71192  0.88547  1.0000
  S   S91       1.0  0.14921  0.51928  0.75702  1.0000
  C   C325      1.0  0.09701  0.68788  0.88077  1.0000
  H   H557      1.0  0.12744  0.66578  0.88929  1.0000
  Fe  Fe47      1.0  0.01738  0.93582  0.71744  1.0000
  C   C326      1.0  0.01114  0.76080  0.96199  1.0000
  S   S92       1.0  0.08864  0.51620  0.68220  1.0000
  H   H558      1.0  0.98462  0.50426  0.62650  1.0000
  C   C327      1.0  0.05956  0.51809  0.53003  1.0000
  C   C328      1.0  0.07600  0.53105  0.56161  1.0000
  H   H559      1.0  0.99049  0.79139  0.86094  1.0000
  C   C329      1.0  0.18100  0.69173  0.49941  1.0000
  H   H560      1.0  0.08606  0.88156  0.52416  1.0000
  S   S93       1.0  0.03702  0.98215  0.75370  1.0000
  H   H561      1.0  0.08627  0.55772  0.56822  1.0000
  H   H562      1.0  0.20771  0.71149  0.88080  1.0000
  C   C330      1.0  0.06208  0.95270  0.97173  1.0000
  H   H563      1.0  0.98598  0.70706  0.62211  1.0000
  C   C331      1.0  0.14841  0.81065  0.65847  1.0000
  C   C332      1.0  0.16032  0.80768  0.62615  1.0000
  C   C333      1.0  0.14542  0.80908  0.59505  1.0000
  C   C334      1.0  0.11819  0.81334  0.59583  1.0000
  C   C335      1.0  0.10625  0.81633  0.62818  1.0000
  C   C336      1.0  0.12129  0.81511  0.65929  1.0000
  H   H564      1.0  0.18126  0.80422  0.62512  1.0000
  H   H565      1.0  0.15496  0.80681  0.57046  1.0000
  H   H566      1.0  0.08510  0.81942  0.62910  1.0000
  H   H567      1.0  0.11185  0.81743  0.68387  1.0000
  H   H568      1.0  0.05666  0.67861  0.51859  1.0000
  C   C337      1.0  0.15372  0.94388  0.72421  1.0000
  H   H569      1.0  0.17721  0.96335  0.73661  1.0000
  H   H570      1.0  0.14964  0.93520  0.53950  1.0000
  H   H571      1.0  0.10138  0.92326  0.85590  1.0000
  H   H572      1.0  0.05748  0.90821  0.49525  1.0000
  C   C338      1.0  0.02494  0.77463  0.84976  1.0000
  C   C339      1.0  0.03096  0.74746  0.85029  1.0000
  H   H573      1.0  0.00144  0.96124  0.48031  1.0000
  H   H574      1.0  0.04341  0.79889  0.84043  1.0000
  C   C340      1.0  0.99752  0.58182  0.69919  1.0000
  H   H575      1.0  0.15435  0.64966  0.95765  1.0000
  C   C341      1.0  0.06532  0.95194  0.84426  1.0000
  H   H576      1.0  0.15006  0.95500  0.79397  1.0000
  C   C342      1.0  0.08659  0.90687  0.87705  1.0000
  C   C343      1.0  0.17072  0.49777  0.86668  1.0000
  H   H577      1.0  0.00384  0.81701  0.79450  1.0000
  C   C344      1.0  0.07462  0.88267  0.64172  1.0000
  C   C345      1.0  0.22356  0.62070  0.49803  1.0000
  C   C346      1.0  0.19142  0.54876  0.70282  1.0000
  C   C347      1.0  0.18787  0.53916  0.73725  1.0000
  C   C348      1.0  0.21596  0.54795  0.75729  1.0000
  H   H578      1.0  0.17571  0.76752  0.94006  1.0000
  H   H579      1.0  0.17005  0.54171  0.68694  1.0000
  H   H580      1.0  0.21354  0.54035  0.78389  1.0000
  C   C349      1.0  0.99668  0.55249  0.71166  1.0000
  H   H581      1.0  0.19778  0.50109  0.91376  1.0000
  H   H582      1.0  0.02479  0.60211  0.56407  1.0000
  H   H583      1.0  0.15769  0.96972  0.93769  1.0000
  C   C350      1.0  0.00777  0.86637  0.50257  1.0000
  H   H584      1.0  0.16893  0.49924  0.53852  1.0000
  H   H585      1.0  0.21288  0.93991  0.48385  1.0000
  H   H586      1.0  0.08031  0.64076  0.51802  1.0000
  Fe  Fe48      1.0  0.10041  0.49487  0.72795  1.0000
  C   C351      1.0  0.07639  0.61773  0.60697  1.0000
  H   H587      1.0  0.13916  0.91840  0.63843  1.0000
  H   H588      1.0  0.05753  0.89108  0.81514  1.0000
  H   H589      1.0  0.99985  0.87987  0.81926  1.0000
  H   H590      1.0  0.22161  0.71188  0.53593  1.0000
  H   H591      1.0  0.09432  0.65745  0.83518  1.0000
  H   H592      1.0  0.21097  0.66138  0.95035  1.0000
  H   H593      1.0  0.21745  0.64110  0.49494  1.0000
  H   H594      1.0  0.02604  0.84322  0.89166  1.0000
  Fe  Fe49      1.0  0.04080  0.50192  0.70752  1.0000
  H   H595      1.0  0.02160  0.72101  0.59611  1.0000
  C   C352      1.0  0.04470  0.65448  0.50299  1.0000
  H   H596      1.0  0.20859  0.69613  0.80355  1.0000
  C   C353      1.0  0.98510  0.85847  0.57322  1.0000
  H   H597      1.0  0.16228  0.50519  0.92062  1.0000
  H   H598      1.0  0.08395  0.87738  0.61749  1.0000
  H   H599      1.0  0.12531  0.92036  0.48343  1.0000
  H   H600      1.0  0.14087  0.87697  0.89135  1.0000
  C   C354      1.0  0.19471  0.69611  0.53613  1.0000
  H   H601      1.0  0.99484  0.83755  0.95538  1.0000
  C   C355      1.0  0.16398  0.90035  0.69394  1.0000
  Fe  Fe50      1.0  0.10855  0.81183  0.49972  1.0000
  H   H602      1.0  0.05047  0.72512  0.94179  1.0000
  N   N16       1.0  0.15948  0.93084  0.69019  1.0000
  H   H603      1.0  0.13361  0.65161  0.51518  1.0000
  C   C356      1.0  0.13547  0.94822  0.48145  1.0000
  C   C357      1.0  0.18307  0.51178  0.90327  1.0000
  C   C358      1.0  0.15014  0.75850  0.93204  1.0000
  H   H604      1.0  0.21017  0.60958  0.75159  1.0000
  H   H605      1.0  0.21361  0.65054  0.81873  1.0000
  N   N17       1.0  0.03556  0.73001  0.71819  1.0000
  H   H606      1.0  0.06082  0.94142  0.81742  1.0000
  C   C359      1.0  0.09853  0.89031  0.67182  1.0000
  C   C360      1.0  0.03797  0.76455  0.71962  1.0000
  C   C361      1.0  0.06977  0.73575  0.71782  1.0000
  C   C362      1.0  0.07324  0.70370  0.71386  1.0000
  C   C363      1.0  0.03181  0.72890  0.65123  1.0000
  C   C364      1.0  0.04873  0.78435  0.75482  1.0000
  C   C365      1.0  0.13329  0.89650  0.89074  1.0000
  C   C366      1.0  0.10794  0.71314  0.70432  1.0000
  H   H607      1.0  0.07629  0.48897  0.84101  1.0000
  C   C367      1.0  0.05899  0.82179  0.75064  1.0000
  H   H608      1.0  0.16061  0.51737  0.49130  1.0000
  C   C368      1.0  0.01655  0.71174  0.68576  1.0000
  H   H609      1.0  0.11778  0.91295  0.80359  1.0000
  H   H610      1.0  0.14015  0.95772  0.71999  1.0000
  H   H611      1.0  0.19663  0.94891  0.65121  1.0000
  H   H612      1.0  0.05504  0.78133  0.69986  1.0000
  H   H613      1.0  0.08398  0.75356  0.69716  1.0000
  H   H614      1.0  0.08316  0.74897  0.74205  1.0000
  H   H615      1.0  0.01396  0.66132  0.73574  1.0000
  H   H616      1.0  0.01199  0.68533  0.68364  1.0000
  H   H617      1.0  0.03493  0.75477  0.65019  1.0000
  H   H618      1.0  0.05584  0.73078  0.64767  1.0000
  H   H619      1.0  0.06926  0.78308  0.76676  1.0000
  H   H620      1.0  0.02824  0.77341  0.77312  1.0000
  H   H621      1.0  0.21949  0.83195  0.94605  1.0000
  H   H622      1.0  0.02697  0.93484  0.50994  1.0000
  H   H623      1.0  0.10998  0.68981  0.70272  1.0000
  H   H624      1.0  0.11428  0.72552  0.67888  1.0000
  H   H625      1.0  0.15915  0.81037  0.93338  1.0000
  H   H626      1.0  0.06082  0.85592  0.48832  1.0000
  C   C369      1.0  0.12684  0.72368  0.94808  1.0000
  H   H627      1.0  0.07053  0.90445  0.63782  1.0000
  H   H628      1.0  0.06553  0.83515  0.77626  1.0000
  H   H629      1.0  0.08048  0.83419  0.73379  1.0000
  H   H630      1.0  0.03879  0.82410  0.73901  1.0000
  H   H631      1.0  0.15534  0.50832  0.85808  1.0000
  C   C370      1.0  0.13578  0.91706  0.75209  1.0000
  S   S94       1.0  0.21764  0.89742  0.96648  1.0000
  C   C371      1.0  0.07874  0.50948  0.58497  1.0000
  H   H632      1.0  0.18897  0.67650  0.48397  1.0000
  C   C372      1.0  0.17149  0.67195  0.94265  1.0000
  H   H633      1.0  0.02966  0.60431  0.62632  1.0000
  C   C373      1.0  0.18913  0.93677  0.56707  1.0000
  H   H634      1.0  0.18774  0.67090  0.54687  1.0000
  C   C374      1.0  0.01316  0.64147  0.96491  1.0000
  C   C375      1.0  0.13194  0.92209  0.66474  1.0000
  H   H635      1.0  0.18631  0.88438  0.73330  1.0000
  H   H636      1.0  0.21465  0.94284  0.56467  1.0000
  S   S95       1.0  0.20385  0.76703  0.85252  1.0000
  H   H637      1.0  0.12803  0.95750  0.50434  1.0000
  C   C376      1.0  0.04546  0.92373  0.87047  1.0000
  H   H638      1.0  0.11284  0.89527  0.74209  1.0000
  C   C377      1.0  0.99495  0.77030  0.86141  1.0000
  H   H639      1.0  0.00521  0.91082  0.56038  1.0000
  H   H640      1.0  0.14854  0.91576  0.87169  1.0000
  H   H641      1.0  0.08370  0.97108  0.95874  1.0000
  C   C378      1.0  0.05602  0.97970  0.84574  1.0000
  H   H642      1.0  0.20868  0.60986  0.86609  1.0000
  H   H643      1.0  0.99192  0.70889  0.68697  1.0000
  C   C379      1.0  0.22163  0.96516  0.49727  1.0000
  H   H644      1.0  0.22439  0.70538  0.94229  1.0000
  H   H645      1.0  0.06785  0.69048  0.73881  1.0000
  H   H646      1.0  0.12570  0.73083  0.72405  1.0000
  C   C380      1.0  0.99991  0.86822  0.91064  1.0000
  H   H647      1.0  0.07906  0.64027  0.59333  1.0000
  N   N18       1.0  0.13103  0.69432  0.93613  1.0000
  H   H648      1.0  0.03879  0.57026  0.62635  1.0000
  H   H649      1.0  0.10459  0.63940  0.94049  1.0000
  H   H650      1.0  0.01359  0.85941  0.69333  1.0000
  H   H651      1.0  0.05694  0.68577  0.69344  1.0000
  C   C381      1.0  0.12775  0.68962  0.89735  1.0000
  H   H652      1.0  0.19218  0.50740  0.84972  1.0000
  H   H653      1.0  0.14943  0.71026  0.88468  1.0000
  C   C382      1.0  0.06053  0.86591  0.51464  1.0000
  H   H654      1.0  0.19870  0.73691  0.77428  1.0000
  C   C383      1.0  0.00391  0.91738  0.49591  1.0000
  H   H655      1.0  0.08754  0.97886  0.53459  1.0000
  H   H656      1.0  0.14858  0.75712  0.90346  1.0000
  S   S96       1.0  0.99131  0.59978  0.94589  1.0000
  C   C384      1.0  0.16463  0.70185  0.94697  1.0000
  N   N19       1.0  0.05076  0.89355  0.87027  1.0000
  H   H657      1.0  0.02455  0.63473  0.51797  1.0000
  H   H658      1.0  0.09474  0.92348  0.90083  1.0000
  H   H659      1.0  0.03720  0.57148  0.55939  1.0000
  H   H660      1.0  0.04671  0.81513  0.96204  1.0000
  S   S97       1.0  0.01096  0.96309  0.67283  1.0000
  C   C385      1.0  0.00644  0.71591  0.86223  1.0000
  C   C386      1.0  0.99599  0.50339  0.60189  1.0000
  H   H661      1.0  0.00917  0.86005  0.57290  1.0000
  H   H662      1.0  0.09398  0.86567  0.85586  1.0000
  C   C387      1.0  0.17047  0.90139  0.58245  1.0000
  C   C388      1.0  0.21936  0.73391  0.76532  1.0000
  H   H663      1.0  0.22510  0.57843  0.66349  1.0000
  C   C389      1.0  0.98924  0.65628  0.78314  1.0000
  C   C390      1.0  0.01757  0.71095  0.74976  1.0000
  C   C391      1.0  0.17480  0.61880  0.69789  1.0000
  H   H664      1.0  0.18826  0.62951  0.76443  1.0000
  C   C392      1.0  0.04165  0.87474  0.83586  1.0000
  H   H665      1.0  0.15758  0.62596  0.70937  1.0000
  H   H666      1.0  0.17478  0.62159  0.66950  1.0000
  H   H667      1.0  0.16601  0.59169  0.70330  1.0000
  C   C393      1.0  0.03180  0.86951  0.89879  1.0000
  H   H668      1.0  0.15138  0.90711  0.76153  1.0000
  H   H669      1.0  0.01897  0.79950  0.92539  1.0000
  C   C394      1.0  0.22270  0.56942  0.68952  1.0000
  H   H670      1.0  0.19863  0.53991  0.90301  1.0000
  C   C395      1.0  0.98469  0.55512  0.50913  1.0000
  H   H671      1.0  0.01952  0.91557  0.86540  1.0000
  S   S98       1.0  0.02834  0.54426  0.69960  1.0000
  H   H672      1.0  0.98092  0.52944  0.50263  1.0000
  S   S99       1.0  0.12208  0.84600  0.96509  1.0000
  H   H673      1.0  0.16666  0.91362  0.51734  1.0000
  H   H674      1.0  0.19233  0.67986  0.76103  1.0000
  C   C396      1.0  0.19400  0.90627  0.71603  1.0000
  N   N20       1.0  0.98741  0.88244  0.51159  1.0000
  H   H675      1.0  0.10939  0.93955  0.77632  1.0000
  C   C397      1.0  0.21412  0.69920  0.77564  1.0000
  C   C398      1.0  0.99894  0.83827  0.79087  1.0000
  H   H676      1.0  0.19684  0.49366  0.49187  1.0000
  C   C399      1.0  0.17319  0.93746  0.53225  1.0000
  H   H677      1.0  0.01402  0.76213  0.71303  1.0000
  H   H678      1.0  0.21116  0.96736  0.69309  1.0000
  C   C400      1.0  0.04424  0.88768  0.51383  1.0000
  H   H679      1.0  0.98911  0.84195  0.84333  1.0000
  H   H680      1.0  0.12704  0.94360  0.66293  1.0000
  H   H681      1.0  0.07436  0.66665  0.89112  1.0000
  H   H682      1.0  0.08033  0.65842  0.94557  1.0000
  H   H683      1.0  0.08890  0.60655  0.59220  1.0000
  H   H684      1.0  0.16477  0.88965  0.66805  1.0000
  H   H685      1.0  0.05134  0.93614  0.89670  1.0000
  H   H686      1.0  0.01783  0.59924  0.68401  1.0000
  S   S100      1.0  0.06725  0.94661  0.70272  1.0000
  H   H687      1.0  0.13784  0.90893  0.91675  1.0000
  H   H688      1.0  0.03449  0.71946  0.77250  1.0000
  H   H689      1.0  0.04598  0.85288  0.83649  1.0000
  H   H690      1.0  0.02279  0.51884  0.60498  1.0000
  H   H691      1.0  0.15596  0.97533  0.87394  1.0000
  H   H692      1.0  0.21286  0.88433  0.67842  1.0000
  C   C401      1.0  0.14339  0.67504  0.49970  1.0000
  C   C402      1.0  0.06928  0.64323  0.49375  1.0000
  C   C403      1.0  0.12778  0.93230  0.78336  1.0000
  C   C404      1.0  0.99019  0.83761  0.69874  1.0000
  C   C405      1.0  0.03347  0.79350  0.94331  1.0000
  H   H693      1.0  0.05153  0.79008  0.92820  1.0000
  H   H694      1.0  0.10151  0.71780  0.94323  1.0000
  H   H695      1.0  0.14256  0.87905  0.70599  1.0000
  H   H696      1.0  0.11674  0.77820  0.93520  1.0000
  H   H697      1.0  0.11829  0.70310  0.82999  1.0000
  H   H698      1.0  0.99824  0.71718  0.75646  1.0000
  C   C406      1.0  0.02250  0.57886  0.57580  1.0000
  H   H699      1.0  0.99296  0.95398  0.54679  1.0000
  N   N21       1.0  0.19273  0.96763  0.50972  1.0000
  H   H700      1.0  0.08767  0.89474  0.69515  1.0000
  H   H701      1.0  0.01799  0.66637  0.91672  1.0000
  H   H702      1.0  0.99140  0.67994  0.50168  1.0000
  C   C407      1.0  0.19024  0.95871  0.67472  1.0000
  H   H703      1.0  0.01076  0.69467  0.86282  1.0000
  C   C408      1.0  0.09722  0.87970  0.88071  1.0000
  H   H704      1.0  0.21765  0.97430  0.96463  1.0000
  H   H705      1.0  0.18338  0.72315  0.93181  1.0000
  H   H706      1.0  0.99751  0.84070  0.51343  1.0000
  H   H707      1.0  0.17187  0.88228  0.56519  1.0000
  C   C409      1.0  0.21107  0.63453  0.75146  1.0000
  H   H708      1.0  0.16364  0.50729  0.61135  1.0000
  H   H709      1.0  0.21523  0.66832  0.70856  1.0000
  H   H710      1.0  0.04769  0.84429  0.53225  1.0000
  H   H711      1.0  0.04745  0.90014  0.53961  1.0000
  H   H712      1.0  0.09133  0.51972  0.60933  1.0000
  H   H713      1.0  0.08319  0.86097  0.90067  1.0000
  H   H714      1.0  0.99913  0.51609  0.54892  1.0000
  H   H715      1.0  0.19225  0.71743  0.48834  1.0000
  H   H716      1.0  0.18552  0.70940  0.55311  1.0000
  H   H717      1.0  0.00233  0.80098  0.67767  1.0000
  H   H718      1.0  0.07453  0.68232  0.83039  1.0000
  C   C410      1.0  0.09610  0.68229  0.84167  1.0000
  C   C411      1.0  0.14171  0.78532  0.94412  1.0000
  H   H719      1.0  0.18127  0.90129  0.60785  1.0000
  H   H720      1.0  0.14441  0.89351  0.58574  1.0000
  C   C412      1.0  0.04224  0.70345  0.95826  1.0000
  H   H721      1.0  0.98399  0.86661  0.88890  1.0000
  H   H722      1.0  0.20349  0.92914  0.73339  1.0000
  H   H723      1.0  0.00604  0.89167  0.92604  1.0000
  H   H724      1.0  0.21298  0.59609  0.80527  1.0000
  H   H725      1.0  0.22071  0.73609  0.73681  1.0000
  C   C413      1.0  0.10483  0.66223  0.95197  1.0000
  C   C414      1.0  0.98472  0.93678  0.49255  1.0000
  H   H726      1.0  0.18869  0.95551  0.58568  1.0000
  H   H727      1.0  0.01401  0.85448  0.76969  1.0000
  H   H728      1.0  0.19445  0.97748  0.91663  1.0000
  H   H729      1.0  0.21404  0.60821  0.52295  1.0000
  C   C415      1.0  0.20912  0.64175  0.71281  1.0000
  S   S101      1.0  0.09215  0.91414  0.97364  1.0000
  C   C416      1.0  0.17300  0.96610  0.47801  1.0000
  H   H730      1.0  0.00617  0.68215  0.61959  1.0000
  C   C417      1.0  0.22163  0.90815  0.69422  1.0000
  C   C418      1.0  0.98378  0.80436  0.69016  1.0000
  C   C419      1.0  0.17605  0.49277  0.60437  1.0000
  H   H731      1.0  0.21491  0.82455  0.89998  1.0000
  H   H732      1.0  0.99739  0.88860  0.62136  1.0000
  C   C420      1.0  0.22390  0.95971  0.84408  1.0000
  C   C421      1.0  0.98482  0.88605  0.55023  1.0000
  C   C422      1.0  0.20587  0.68243  0.95554  1.0000
  H   H733      1.0  0.05161  0.48952  0.94607  1.0000
  H   H734      1.0  0.14315  0.78793  0.97271  1.0000
  H   H735      1.0  0.03005  0.96905  0.83807  1.0000
  H   H736      1.0  0.98267  0.55069  0.63136  1.0000
  H   H737      1.0  0.03865  0.98317  0.96853  1.0000
  H   H738      1.0  0.99557  0.60184  0.85334  1.0000
  H   H739      1.0  0.22637  0.63686  0.69784  1.0000
  H   H740      1.0  0.03416  0.65858  0.47918  1.0000
  H   H741      1.0  0.10110  0.69471  0.47796  1.0000
  H   H742      1.0  0.05566  0.61779  0.48061  1.0000
  H   H743      1.0  0.17009  0.71138  0.97427  1.0000
  C   C423      1.0  0.97995  0.83759  0.93324  1.0000
  H   H744      1.0  0.12915  0.48457  0.55334  1.0000
  H   H745      1.0  0.33951  0.45270  0.42213  1.0000
  S   S102      1.0  0.41179  0.41865  0.27173  1.0000
  C   C424      1.0  0.29503  0.47418  0.43600  1.0000
  Fe  Fe51      1.0  0.39305  0.43851  0.31482  1.0000
  S   S103      1.0  0.33662  0.41009  0.31911  1.0000
  H   H746      1.0  0.24094  0.28286  0.30788  1.0000
  C   C425      1.0  0.41942  0.13936  0.00222  1.0000
  C   C426      1.0  0.32946  0.34264  0.02004  1.0000
  S   S104      1.0  0.30617  0.15257  0.42399  1.0000
  Fe  Fe52      1.0  0.24968  0.05656  0.39486  1.0000
  S   S105      1.0  0.27595  0.09874  0.35735  1.0000
  H   H747      1.0  0.25205  0.03849  0.26245  1.0000
  Fe  Fe53      1.0  0.32014  0.11887  0.39392  1.0000
  S   S106      1.0  0.37402  0.13206  0.38822  1.0000
  Fe  Fe54      1.0  0.26128  0.13170  0.38957  1.0000
  H   H748      1.0  0.22933  0.04588  0.03042  1.0000
  S   S107      1.0  0.29329  0.07480  0.42977  1.0000
  H   H749      1.0  0.44912  0.12014  0.42865  1.0000
  Fe  Fe55      1.0  0.29565  0.13681  0.26934  1.0000
  S   S108      1.0  0.32463  0.18615  0.24095  1.0000
  Fe  Fe56      1.0  0.45882  0.99756  0.32462  1.0000
  Fe  Fe57      1.0  0.35792  0.13198  0.28582  1.0000
  S   S109      1.0  0.39085  0.18188  0.25942  1.0000
  S   S110      1.0  0.36451  0.08794  0.30776  1.0000
  Fe  Fe58      1.0  0.36183  0.20324  0.28499  1.0000
  S   S111      1.0  0.38132  0.25942  0.30312  1.0000
  Fe  Fe59      1.0  0.35241  0.16313  0.21679  1.0000
  S   S112      1.0  0.36828  0.16379  0.16041  1.0000
  S   S113      1.0  0.33161  0.15526  0.31434  1.0000
  S   S114      1.0  0.32128  0.11291  0.24181  1.0000
  S   S115      1.0  0.32900  0.19654  0.01353  1.0000
  Fe  Fe60      1.0  0.27643  0.10732  0.45600  1.0000
  C   C427      1.0  0.38686  0.06847  0.32424  1.0000
  C   C428      1.0  0.42065  0.08292  0.32160  1.0000
  C   C429      1.0  0.43721  0.06741  0.33657  1.0000
  C   C430      1.0  0.42070  0.03736  0.35561  1.0000
  C   C431      1.0  0.38651  0.02207  0.35628  1.0000
  C   C432      1.0  0.36991  0.03714  0.34065  1.0000
  H   H750      1.0  0.43448  0.10684  0.30904  1.0000
  C   C433      1.0  0.38333  0.45442  0.43792  1.0000
  H   H751      1.0  0.34370  0.02483  0.34218  1.0000
  C   C434      1.0  0.40726  0.29593  0.33022  1.0000
  C   C435      1.0  0.40756  0.32668  0.32483  1.0000
  C   C436      1.0  0.42470  0.35532  0.34743  1.0000
  C   C437      1.0  0.44329  0.35447  0.37514  1.0000
  C   C438      1.0  0.42568  0.29485  0.35804  1.0000
  H   H752      1.0  0.39419  0.32839  0.30316  1.0000
  H   H753      1.0  0.42401  0.37838  0.34299  1.0000
  H   H754      1.0  0.28118  0.48112  0.38468  1.0000
  C   C439      1.0  0.32317  0.47959  0.30546  1.0000
  C   C440      1.0  0.35538  0.17169  0.12007  1.0000
  C   C441      1.0  0.33906  0.19013  0.11752  1.0000
  C   C442      1.0  0.33116  0.19744  0.08477  1.0000
  C   C443      1.0  0.33886  0.18588  0.05417  1.0000
  C   C444      1.0  0.35468  0.16696  0.05676  1.0000
  C   C445      1.0  0.36326  0.16036  0.08944  1.0000
  H   H755      1.0  0.33297  0.19917  0.14079  1.0000
  H   H756      1.0  0.31891  0.21206  0.08317  1.0000
  H   H757      1.0  0.36033  0.15742  0.03364  1.0000
  H   H758      1.0  0.37583  0.14603  0.09105  1.0000
  C   C446      1.0  0.41263  0.15822  0.36795  1.0000
  C   C447      1.0  0.42174  0.18981  0.35359  1.0000
  C   C448      1.0  0.45311  0.20957  0.33931  1.0000
  H   H759      1.0  0.25940  0.29223  0.19782  1.0000
  C   C449      1.0  0.43562  0.14724  0.36769  1.0000
  H   H760      1.0  0.40478  0.19917  0.35365  1.0000
  H   H761      1.0  0.42882  0.12272  0.37783  1.0000
  H   H762      1.0  0.42614  0.27164  0.36262  1.0000
  S   S116      1.0  0.44015  0.01761  0.37960  1.0000
  H   H763      1.0  0.39328  0.44585  0.45893  1.0000
  C   C450      1.0  0.42275  0.44055  0.16452  1.0000
  H   H764      1.0  0.23945  0.43102  0.21837  1.0000
  C   C451      1.0  0.30582  0.39426  0.35127  1.0000
  C   C452      1.0  0.31061  0.38360  0.38321  1.0000
  C   C453      1.0  0.28488  0.36873  0.40682  1.0000
  C   C454      1.0  0.25412  0.36499  0.39945  1.0000
  C   C455      1.0  0.24917  0.37547  0.36745  1.0000
  C   C456      1.0  0.27473  0.38972  0.34352  1.0000
  H   H765      1.0  0.33406  0.38635  0.38944  1.0000
  H   H766      1.0  0.28884  0.35993  0.43102  1.0000
  H   H767      1.0  0.40282  0.04754  0.25516  1.0000
  H   H768      1.0  0.27011  0.39727  0.31889  1.0000
  H   H769      1.0  0.29040  0.44747  0.38720  1.0000
  N   N22       1.0  0.46090  0.23809  0.01843  1.0000
  C   C457      1.0  0.28855  0.44524  0.46100  1.0000
  H   H770      1.0  0.25827  0.03832  0.30824  1.0000
  H   H771      1.0  0.28825  0.37738  0.98411  1.0000
  C   C458      1.0  0.23242  0.38303  0.19639  1.0000
  H   H772      1.0  0.27926  0.06279  0.99312  1.0000
  S   S117      1.0  0.43609  0.45057  0.34921  1.0000
  H   H773      1.0  0.33094  0.31717  0.06654  1.0000
  H   H774      1.0  0.28053  0.21393  0.98937  1.0000
  C   C459      1.0  0.27857  0.46004  0.40084  1.0000
  H   H775      1.0  0.32115  0.33098  0.36039  1.0000
  H   H776      1.0  0.28351  0.25031  0.41628  1.0000
  H   H777      1.0  0.32491  0.30059  0.44458  1.0000
  H   H778      1.0  0.24983  0.01220  0.03257  1.0000
  H   H779      1.0  0.33919  0.01207  0.44312  1.0000
  C   C460      1.0  0.28757  0.26475  0.39226  1.0000
  C   C461      1.0  0.26303  0.27808  0.39124  1.0000
  H   H780      1.0  0.39108  0.26303  0.41847  1.0000
  H   H781      1.0  0.24428  0.26350  0.37097  1.0000
  H   H782      1.0  0.39816  0.04934  0.20865  1.0000
  C   C462      1.0  0.45924  0.00585  0.18990  1.0000
  C   C463      1.0  0.42650  0.17551  0.99564  1.0000
  H   H783      1.0  0.36204  0.32169  0.01375  1.0000
  H   H784      1.0  0.31668  0.00470  0.16779  1.0000
  H   H785      1.0  0.28688  0.42369  0.44542  1.0000
  C   C464      1.0  0.45512  0.31678  0.23829  1.0000
  S   S118      1.0  0.47148  0.47617  0.42991  1.0000
  H   H786      1.0  0.25456  0.39545  0.18056  1.0000
  H   H787      1.0  0.38013  0.99595  0.46211  1.0000
  H   H788      1.0  0.26351  0.43526  0.47104  1.0000
  H   H789      1.0  0.24854  0.20339  0.45795  1.0000
  C   C465      1.0  0.23075  0.23901  0.03983  1.0000
  C   C466      1.0  0.22949  0.31938  0.28595  1.0000
  C   C467      1.0  0.33629  0.01278  0.23707  1.0000
  C   C468      1.0  0.46670  0.16662  0.35292  1.0000
  H   H790      1.0  0.31644  0.22862  0.41890  1.0000
  H   H791      1.0  0.36288  0.98764  0.25423  1.0000
  Fe  Fe61      1.0  0.43957  0.46455  0.02281  1.0000
  H   H792      1.0  0.46287  0.07966  0.33326  1.0000
  H   H793      1.0  0.45375  0.29606  0.03277  1.0000
  H   H794      1.0  0.38422  0.32868  0.42832  1.0000
  C   C469      1.0  0.46595  0.27453  0.26925  1.0000
  H   H795      1.0  0.45847  0.27501  0.42885  1.0000
  S   S119      1.0  0.23921  0.10222  0.26503  1.0000
  C   C470      1.0  0.36615  0.24071  0.41580  1.0000
  H   H796      1.0  0.22981  0.12175  0.33511  1.0000
  H   H797      1.0  0.40679  0.39655  0.13042  1.0000
  C   C471      1.0  0.39369  0.17743  0.46647  1.0000
  C   C472      1.0  0.43705  0.27848  0.01234  1.0000
  H   H798      1.0  0.24442  0.17954  0.31385  1.0000
  C   C473      1.0  0.23735  0.30416  0.31676  1.0000
  C   C474      1.0  0.44624  0.36122  0.21581  1.0000
  H   H799      1.0  0.23696  0.45021  0.27878  1.0000
  H   H800      1.0  0.36863  0.29243  0.38285  1.0000
  C   C475      1.0  0.31358  0.29139  0.32311  1.0000
  C   C476      1.0  0.39653  0.03299  0.23025  1.0000
  H   H801      1.0  0.28037  0.24472  0.37160  1.0000
  H   H802      1.0  0.26526  0.12084  0.00840  1.0000
  H   H803      1.0  0.23237  0.00336  0.45701  1.0000
  H   H804      1.0  0.35270  0.39649  0.20580  1.0000
  H   H805      1.0  0.27405  0.99107  0.17246  1.0000
  C   C477      1.0  0.25950  0.33872  0.26275  1.0000
  C   C478      1.0  0.44316  0.32375  0.38042  1.0000
  C   C479      1.0  0.44779  0.27937  0.23924  1.0000
  C   C480      1.0  0.44488  0.47866  0.10470  1.0000
  H   H806      1.0  0.41442  0.02431  0.22616  1.0000
  H   H807      1.0  0.43537  0.32723  0.08876  1.0000
  C   C481      1.0  0.44602  0.07359  0.46665  1.0000
  H   H808      1.0  0.28480  0.98459  0.02695  1.0000
  C   C482      1.0  0.27895  0.10710  0.01164  1.0000
  H   H809      1.0  0.43520  0.99478  0.09273  1.0000
  H   H810      1.0  0.45983  0.23407  0.32896  1.0000
  H   H811      1.0  0.35797  0.36283  0.06779  1.0000
  C   C483      1.0  0.38325  0.06026  0.43370  1.0000
  H   H812      1.0  0.27704  0.00102  0.43038  1.0000
  H   H813      1.0  0.30414  0.12361  0.00274  1.0000
  C   C484      1.0  0.34640  0.03697  0.43158  1.0000
  H   H814      1.0  0.33504  0.25604  0.36405  1.0000
  H   H815      1.0  0.33412  0.04887  0.44542  1.0000
  H   H816      1.0  0.42308  0.13167  0.44951  1.0000
  H   H817      1.0  0.47844  0.13607  0.05472  1.0000
  H   H818      1.0  0.38054  0.17678  0.44247  1.0000
  C   C485      1.0  0.37670  0.36608  0.45462  1.0000
  H   H819      1.0  0.44710  0.28839  0.98664  1.0000
  H   H820      1.0  0.44685  0.07179  0.43800  1.0000
  H   H821      1.0  0.47049  0.19663  0.02523  1.0000
  H   H822      1.0  0.38479  0.15087  0.47430  1.0000
  H   H823      1.0  0.38981  0.08183  0.41644  1.0000
  H   H824      1.0  0.39441  0.04554  0.42361  1.0000
  H   H825      1.0  0.27667  0.36220  0.27751  1.0000
  H   H826      1.0  0.39885  0.48225  0.43500  1.0000
  H   H827      1.0  0.43215  0.36812  0.19812  1.0000
  H   H828      1.0  0.45041  0.32394  0.26451  1.0000
  Fe  Fe62      1.0  0.43625  0.47259  0.25431  1.0000
  H   H829      1.0  0.33882  0.47279  0.25579  1.0000
  H   H830      1.0  0.41031  0.30569  0.01362  1.0000
  H   H831      1.0  0.33797  0.03246  0.40423  1.0000
  H   H832      1.0  0.36315  0.37996  0.45138  1.0000
  H   H833      1.0  0.46391  0.25256  0.07243  1.0000
  H   H834      1.0  0.47222  0.33558  0.11085  1.0000
  C   C486      1.0  0.43694  0.47600  0.16634  1.0000
  H   H835      1.0  0.31986  0.32971  0.41996  1.0000
  H   H836      1.0  0.26332  0.28933  0.44631  1.0000
  C   C487      1.0  0.46043  0.12928  0.18091  1.0000
  H   H837      1.0  0.47075  0.08994  0.22370  1.0000
  Fe  Fe63      1.0  0.45737  0.43448  0.30490  1.0000
  H   H838      1.0  0.36258  0.22309  0.43682  1.0000
  H   H839      1.0  0.44230  0.13834  0.00311  1.0000
  C   C488      1.0  0.45531  0.15853  0.23299  1.0000
  C   C489      1.0  0.23892  0.37042  0.23090  1.0000
  H   H840      1.0  0.37890  0.35700  0.40066  1.0000
  S   S120      1.0  0.46486  0.38973  0.40542  1.0000
  H   H841      1.0  0.43673  0.19282  0.04916  1.0000
  H   H842      1.0  0.40515  0.31049  0.14282  1.0000
  C   C490      1.0  0.42359  0.12584  0.24276  1.0000
  C   C491      1.0  0.39462  0.11465  0.21775  1.0000
  C   C492      1.0  0.44208  0.99806  0.11974  1.0000
  H   H843      1.0  0.35559  0.32754  0.35270  1.0000
  H   H844      1.0  0.28672  0.27627  0.32477  1.0000
  H   H845      1.0  0.44527  0.13734  0.16619  1.0000
  H   H846      1.0  0.44245  0.06988  0.14203  1.0000
  C   C493      1.0  0.24566  0.99361  0.01146  1.0000
  H   H847      1.0  0.44775  0.17615  0.22218  1.0000
  H   H848      1.0  0.23345  0.27553  0.23451  1.0000
  H   H849      1.0  0.30155  0.41848  0.21636  1.0000
  C   C494      1.0  0.23498  0.28483  0.20795  1.0000
  C   C495      1.0  0.31465  0.26735  0.98103  1.0000
  H   H850      1.0  0.43929  0.35360  0.14586  1.0000
  C   C496      1.0  0.35640  0.33964  0.00034  1.0000
  C   C497      1.0  0.23143  0.99974  0.97789  1.0000
  H   H851      1.0  0.36019  0.43926  0.21119  1.0000
  C   C498      1.0  0.40524  0.27907  0.01525  1.0000
  C   C499      1.0  0.34850  0.44566  0.44524  1.0000
  H   H852      1.0  0.42733  0.10424  0.24708  1.0000
  H   H853      1.0  0.41623  0.13181  0.26788  1.0000
  H   H854      1.0  0.44321  0.10427  0.19148  1.0000
  H   H855      1.0  0.39595  0.10139  0.19414  1.0000
  H   H856      1.0  0.37208  0.09631  0.23089  1.0000
  C   C500      1.0  0.42924  0.44319  0.10237  1.0000
  H   H857      1.0  0.36369  0.22719  0.39069  1.0000
  H   H858      1.0  0.23219  0.24678  0.43251  1.0000
  H   H859      1.0  0.44246  0.10184  0.11475  1.0000
  H   H860      1.0  0.39221  0.13658  0.21007  1.0000
  H   H861      1.0  0.34782  0.32864  0.28758  1.0000
  N   N23       1.0  0.32296  0.29128  0.38924  1.0000
  C   C501      1.0  0.33289  0.31506  0.42038  1.0000
  H   H862      1.0  0.33692  0.26526  0.98206  1.0000
  H   H863      1.0  0.43512  0.28809  0.17296  1.0000
  N   N24       1.0  0.43650  0.32416  0.21130  1.0000
  H   H864      1.0  0.34523  0.26630  0.44313  1.0000
  C   C502      1.0  0.40056  0.30158  0.21804  1.0000
  H   H865      1.0  0.30780  0.30054  0.26962  1.0000
  C   C503      1.0  0.34223  0.41322  0.20139  1.0000
  H   H866      1.0  0.31453  0.33491  0.29918  1.0000
  H   H867      1.0  0.46131  0.24798  0.26855  1.0000
  H   H868      1.0  0.30466  0.32192  0.01284  1.0000
  C   C504      1.0  0.37727  0.31490  0.20808  1.0000
  C   C505      1.0  0.34173  0.28667  0.21038  1.0000
  C   C506      1.0  0.43202  0.32626  0.14461  1.0000
  H   H869      1.0  0.33844  0.41436  0.17326  1.0000
  N   N25       1.0  0.47889  0.15495  0.20948  1.0000
  C   C507      1.0  0.44492  0.31600  0.17622  1.0000
  H   H870      1.0  0.39123  0.27584  0.20580  1.0000
  H   H871      1.0  0.39665  0.29709  0.24608  1.0000
  C   C508      1.0  0.25438  0.02369  0.28363  1.0000
  H   H872      1.0  0.38403  0.44179  0.41330  1.0000
  H   H873      1.0  0.28016  0.10220  0.03942  1.0000
  H   H874      1.0  0.28375  0.01772  0.22269  1.0000
  H   H875      1.0  0.40317  0.38506  0.45591  1.0000
  H   H876      1.0  0.46298  0.19102  0.43256  1.0000
  C   C509      1.0  0.36243  0.00221  0.23187  1.0000
  H   H877      1.0  0.29634  0.34782  0.20949  1.0000
  H   H878      1.0  0.30540  0.04341  0.27729  1.0000
  H   H879      1.0  0.42145  0.26127  0.24229  1.0000
  H   H880      1.0  0.38103  0.33585  0.22636  1.0000
  H   H881      1.0  0.38125  0.32486  0.18171  1.0000
  H   H882      1.0  0.33675  0.27566  0.23652  1.0000
  H   H883      1.0  0.32544  0.29718  0.20540  1.0000
  H   H884      1.0  0.33618  0.26604  0.19094  1.0000
  H   H885      1.0  0.30941  0.27238  0.00770  1.0000
  H   H886      1.0  0.25608  0.25975  0.04540  1.0000
  S   S121      1.0  0.23167  0.08742  0.42357  1.0000
  H   H887      1.0  0.27420  0.30498  0.38418  1.0000
  H   H888      1.0  0.25964  0.32350  0.33070  1.0000
  C   C510      1.0  0.24563  0.27396  0.42541  1.0000
  C   C511      1.0  0.32145  0.31538  0.29305  1.0000
  C   C512      1.0  0.39454  0.07306  0.47142  1.0000
  S   S122      1.0  0.43922  0.04001  0.03002  1.0000
  C   C513      1.0  0.26330  0.07395  0.99025  1.0000
  H   H889      1.0  0.37251  0.99815  0.36883  1.0000
  C   C514      1.0  0.47588  0.19811  0.33856  1.0000
  H   H890      1.0  0.33932  0.03140  0.21721  1.0000
  H   H891      1.0  0.41393  0.42596  0.18765  1.0000
  H   H892      1.0  0.45707  0.32257  0.40178  1.0000
  C   C515      1.0  0.32908  0.31187  0.35717  1.0000
  H   H893      1.0  0.46769  0.17092  0.25807  1.0000
  H   H894      1.0  0.30568  0.45236  0.30886  1.0000
  C   C516      1.0  0.47293  0.02375  0.13075  1.0000
  H   H895      1.0  0.41512  0.23011  0.03812  1.0000
  S   S123      1.0  0.42164  0.42327  0.06170  1.0000
  H   H896      1.0  0.38817  0.26352  0.99394  1.0000
  H   H897      1.0  0.39355  0.26889  0.04035  1.0000
  C   C517      1.0  0.33365  0.34194  0.05907  1.0000
  C   C518      1.0  0.28320  0.01806  0.27769  1.0000
  H   H898      1.0  0.29769  0.02201  0.00160  1.0000
  H   H899      1.0  0.23142  0.99896  0.28562  1.0000
  C   C519      1.0  0.36980  0.34147  0.42404  1.0000
  H   H900      1.0  0.28012  0.36473  0.17993  1.0000
  C   C520      1.0  0.41870  0.42402  0.13229  1.0000
  C   C521      1.0  0.34078  0.25198  0.41833  1.0000
  H   H901      1.0  0.31599  0.40108  0.24840  1.0000
  H   H902      1.0  0.32281  0.27380  0.31685  1.0000
  H   H903      1.0  0.40642  0.13016  0.02688  1.0000
  H   H904      1.0  0.25479  0.39282  0.24807  1.0000
  C   C522      1.0  0.27813  0.99526  0.00489  1.0000
  N   N26       1.0  0.25284  0.34705  0.22726  1.0000
  H   H905      1.0  0.34283  0.02771  0.26188  1.0000
  H   H906      1.0  0.43056  0.04670  0.47428  1.0000
  C   C523      1.0  0.28451  0.36366  0.20799  1.0000
  H   H907      1.0  0.31485  0.34550  0.07238  1.0000
  H   H908      1.0  0.27221  0.32387  0.26076  1.0000
  C   C524      1.0  0.44937  0.20089  0.02400  1.0000
  C   C525      1.0  0.31027  0.40025  0.22061  1.0000
  C   C526      1.0  0.34269  0.27362  0.38705  1.0000
  C   C527      1.0  0.27951  0.99886  0.24279  1.0000
  H   H909      1.0  0.44004  0.36604  0.24232  1.0000
  C   C528      1.0  0.44523  0.31995  0.11102  1.0000
  C   C529      1.0  0.43105  0.24180  0.01551  1.0000
  H   H910      1.0  0.37878  0.36496  0.00407  1.0000
  H   H911      1.0  0.28504  0.00451  0.30023  1.0000
  H   H912      1.0  0.33091  0.36723  0.01409  1.0000
  H   H913      1.0  0.40289  0.17476  0.99534  1.0000
  H   H914      1.0  0.33394  0.41790  0.44766  1.0000
  H   H915      1.0  0.41609  0.22769  0.99230  1.0000
  H   H916      1.0  0.46598  0.00879  0.21699  1.0000
  H   H917      1.0  0.47176  0.32751  0.17404  1.0000
  Fe  Fe64      1.0  0.46826  0.05837  0.98157  1.0000
  C   C530      1.0  0.44278  0.12563  0.45463  1.0000
  H   H918      1.0  0.41996  0.18983  0.46075  1.0000
  S   S124      1.0  0.24210  0.16992  0.38911  1.0000
  H   H919      1.0  0.47569  0.42681  0.18759  1.0000
  C   C531      1.0  0.45811  0.09409  0.12872  1.0000
  H   H920      1.0  0.47246  0.08916  0.10946  1.0000
  H   H921      1.0  0.45586  0.27229  0.21522  1.0000
  C   C532      1.0  0.24507  0.99376  0.47319  1.0000
  H   H922      1.0  0.45734  0.27922  0.29428  1.0000
  H   H923      1.0  0.43775  0.29259  0.10777  1.0000
  H   H924      1.0  0.30272  0.47656  0.25560  1.0000
  H   H925      1.0  0.40389  0.12212  0.98086  1.0000
  Fe  Fe65      1.0  0.41588  0.98723  0.00586  1.0000
  H   H926      1.0  0.47153  0.10718  0.26631  1.0000
  H   H927      1.0  0.47317  0.32722  0.46737  1.0000
  H   H928      1.0  0.35808  0.98692  0.20771  1.0000
  H   H929      1.0  0.25226  0.44148  0.40369  1.0000
  C   C533      1.0  0.47211  0.15965  0.46822  1.0000
  Fe  Fe66      1.0  0.47907  0.03074  0.04737  1.0000
  H   H930      1.0  0.40983  0.04324  0.86764  1.0000
  H   H931      1.0  0.34311  0.32683  0.75990  1.0000
  H   H932      1.0  0.40924  0.37986  0.93056  1.0000
  H   H933      1.0  0.37518  0.31023  0.80110  1.0000
  C   C534      1.0  0.37091  0.98617  0.83199  1.0000
  H   H934      1.0  0.32284  0.47903  0.56376  1.0000
  Fe  Fe67      1.0  0.32954  0.11206  0.70969  1.0000
  S   S125      1.0  0.35308  0.14713  0.66573  1.0000
  S   S126      1.0  0.27596  0.09851  0.70815  1.0000
  Fe  Fe68      1.0  0.39406  0.11330  0.72485  1.0000
  S   S127      1.0  0.42080  0.14829  0.68192  1.0000
  S   S128      1.0  0.42114  0.09260  0.75596  1.0000
  Fe  Fe69      1.0  0.39718  0.17823  0.69922  1.0000
  S   S129      1.0  0.41946  0.23361  0.68361  1.0000
  Fe  Fe70      1.0  0.37489  0.11520  0.65207  1.0000
  S   S130      1.0  0.37810  0.10181  0.59709  1.0000
  S   S131      1.0  0.37258  0.14545  0.74504  1.0000
  S   S132      1.0  0.34915  0.07775  0.69327  1.0000
  S   S133      1.0  0.26879  0.10970  0.51289  1.0000
  Fe  Fe71      1.0  0.33199  0.17775  0.95887  1.0000
  S   S134      1.0  0.35389  0.14593  0.94318  1.0000
  Fe  Fe72      1.0  0.31597  0.18465  0.88377  1.0000
  S   S135      1.0  0.33797  0.15330  0.86317  1.0000
  S   S136      1.0  0.29584  0.20766  0.84471  1.0000
  Fe  Fe73      1.0  0.31134  0.11754  0.90610  1.0000
  S   S137      1.0  0.29061  0.05937  0.90737  1.0000
  Fe  Fe74      1.0  0.37928  0.18372  0.90136  1.0000
  S   S138      1.0  0.43291  0.19720  0.89688  1.0000
  S   S139      1.0  0.28724  0.14715  0.92477  1.0000
  S   S140      1.0  0.35931  0.21729  0.91898  1.0000
  H   H935      1.0  0.46894  0.37165  0.52341  1.0000
  H   H936      1.0  0.33315  0.37913  0.86263  1.0000
  H   H937      1.0  0.31501  0.20316  0.63161  1.0000
  H   H938      1.0  0.27115  0.23497  0.79412  1.0000
  C   C535      1.0  0.23512  0.18463  0.47811  1.0000
  H   H939      1.0  0.28518  0.45546  0.77790  1.0000
  C   C536      1.0  0.25220  0.22242  0.87865  1.0000
  H   H940      1.0  0.44928  0.20716  0.80492  1.0000
  H   H941      1.0  0.45310  0.26095  0.86037  1.0000
  H   H942      1.0  0.36073  0.46128  0.49906  1.0000
  C   C537      1.0  0.23364  0.46134  0.83545  1.0000
  C   C538      1.0  0.35477  0.08061  0.81721  1.0000
  C   C539      1.0  0.35712  0.21136  0.60243  1.0000
  C   C540      1.0  0.35738  0.07400  0.85592  1.0000
  C   C541      1.0  0.34619  0.10095  0.57361  1.0000
  C   C542      1.0  0.34933  0.10610  0.53816  1.0000
  C   C543      1.0  0.32526  0.10827  0.51931  1.0000
  C   C544      1.0  0.29799  0.10529  0.53602  1.0000
  C   C545      1.0  0.29444  0.09947  0.57143  1.0000
  C   C546      1.0  0.31849  0.09708  0.59023  1.0000
  H   H943      1.0  0.37093  0.10967  0.52559  1.0000
  H   H944      1.0  0.32816  0.11307  0.49201  1.0000
  H   H945      1.0  0.27321  0.09698  0.58436  1.0000
  H   H946      1.0  0.31550  0.09222  0.61752  1.0000
  C   C547      1.0  0.44780  0.08017  0.73675  1.0000
  C   C548      1.0  0.29751  0.18777  0.71023  1.0000
  H   H947      1.0  0.44888  0.25668  0.75290  1.0000
  C   C549      1.0  0.31867  0.29608  0.95692  1.0000
  H   H948      1.0  0.41153  0.19288  0.59801  1.0000
  C   C550      1.0  0.45651  0.08618  0.70208  1.0000
  H   H949      1.0  0.29247  0.37122  0.55306  1.0000
  C   C551      1.0  0.23931  0.24920  0.81988  1.0000
  H   H950      1.0  0.39834  0.21138  0.78591  1.0000
  C   C552      1.0  0.44716  0.27406  0.70224  1.0000
  H   H951      1.0  0.42313  0.25053  0.81023  1.0000
  H   H952      1.0  0.46336  0.12215  0.52030  1.0000
  C   C553      1.0  0.39001  0.07568  0.90601  1.0000
  H   H953      1.0  0.39063  0.05612  0.97283  1.0000
  H   H954      1.0  0.30000  0.47788  0.84228  1.0000
  H   H955      1.0  0.23430  0.25917  0.79699  1.0000
  C   C554      1.0  0.39335  0.04796  0.85099  1.0000
  C   C555      1.0  0.40715  0.98634  0.65771  1.0000
  C   C556      1.0  0.33096  0.21725  0.72120  1.0000
  H   H956      1.0  0.30872  0.20017  0.58544  1.0000
  C   C557      1.0  0.41645  0.10990  0.85602  1.0000
  H   H957      1.0  0.41234  0.13099  0.86478  1.0000
  C   C558      1.0  0.47869  0.41771  0.49957  1.0000
  H   H958      1.0  0.27742  0.42310  0.52727  1.0000
  H   H959      1.0  0.37123  0.31629  0.92062  1.0000
  H   H960      1.0  0.39652  0.22334  0.48376  1.0000
  H   H961      1.0  0.25086  0.05837  0.77139  1.0000
  H   H962      1.0  0.42631  0.05403  0.53107  1.0000
  H   H963      1.0  0.25637  0.21148  0.90114  1.0000
  H   H964      1.0  0.31426  0.22662  0.76993  1.0000
  H   H965      1.0  0.34943  0.34457  0.82159  1.0000
  C   C559      1.0  0.26042  0.23564  0.81837  1.0000
  H   H966      1.0  0.43210  0.21363  0.52090  1.0000
  H   H967      1.0  0.38585  0.99409  0.80836  1.0000
  H   H968      1.0  0.47391  0.33318  0.59132  1.0000
  H   H969      1.0  0.35778  0.46690  0.78941  1.0000
  C   C560      1.0  0.31964  0.06857  0.80611  1.0000
  C   C561      1.0  0.29301  0.40118  0.97334  1.0000
  H   H970      1.0  0.27301  0.33954  0.51881  1.0000
  H   H971      1.0  0.31699  0.39248  0.49585  1.0000
  H   H972      1.0  0.35714  0.06461  0.96974  1.0000
  H   H973      1.0  0.33892  0.27187  0.80893  1.0000
  C   C562      1.0  0.26666  0.40617  0.96587  1.0000
  C   C563      1.0  0.41069  0.36067  0.94654  1.0000
  C   C564      1.0  0.37308  0.23826  0.80086  1.0000
  C   C565      1.0  0.34104  0.35350  0.90524  1.0000
  H   H974      1.0  0.33607  0.04910  0.86212  1.0000
  H   H975      1.0  0.40609  0.05601  0.82590  1.0000
  C   C566      1.0  0.38748  0.19766  0.49421  1.0000
  H   H976      1.0  0.38208  0.30145  0.50457  1.0000
  H   H977      1.0  0.36927  0.10836  0.81262  1.0000
  C   C567      1.0  0.40605  0.20053  0.52812  1.0000
  C   C568      1.0  0.36562  0.04660  0.96228  1.0000
  H   H978      1.0  0.34354  0.23059  0.69758  1.0000
  H   H979      1.0  0.33409  0.43504  0.84109  1.0000
  C   C569      1.0  0.26497  0.02158  0.88203  1.0000
  H   H980      1.0  0.36284  0.35530  0.89282  1.0000
  H   H981      1.0  0.29291  0.42106  0.88590  1.0000
  C   C570      1.0  0.36217  0.01309  0.84315  1.0000
  H   H982      1.0  0.39767  0.06627  0.54522  1.0000
  C   C571      1.0  0.47804  0.07646  0.68778  1.0000
  H   H983      1.0  0.34611  0.00346  0.86566  1.0000
  H   H984      1.0  0.23173  0.01071  0.63094  1.0000
  S   S141      1.0  0.44193  0.00598  0.95557  1.0000
  H   H985      1.0  0.43274  0.26534  0.53193  1.0000
  H   H986      1.0  0.31811  0.43330  0.53752  1.0000
  C   C572      1.0  0.30648  0.47402  0.76316  1.0000
  C   C573      1.0  0.32534  0.42651  0.96678  1.0000
  H   H987      1.0  0.36968  0.35216  0.47915  1.0000
  C   C574      1.0  0.34521  0.35702  0.94505  1.0000
  C   C575      1.0  0.27316  0.43722  0.95210  1.0000
  H   H988      1.0  0.41410  0.08038  0.91549  1.0000
  C   C576      1.0  0.32278  0.47656  0.84133  1.0000
  H   H989      1.0  0.43744  0.18267  0.96979  1.0000
  H   H990      1.0  0.26312  0.08035  0.96288  1.0000
  H   H991      1.0  0.40480  0.99545  0.63202  1.0000
  C   C577      1.0  0.41360  0.35357  0.70458  1.0000
  H   H992      1.0  0.36080  0.18487  0.49779  1.0000
  C   C578      1.0  0.33605  0.38182  0.89114  1.0000
  H   H993      1.0  0.37063  0.25035  0.82499  1.0000
  H   H994      1.0  0.30999  0.33419  0.80450  1.0000
  H   H995      1.0  0.31368  0.30461  0.83174  1.0000
  H   H996      1.0  0.42916  0.98812  0.72222  1.0000
  H   H997      1.0  0.45376  0.09632  0.87122  1.0000
  C   C579      1.0  0.23650  0.07469  0.72614  1.0000
  C   C580      1.0  0.37303  0.29612  0.72854  1.0000
  H   H998      1.0  0.24384  0.16599  0.47834  1.0000
  C   C581      1.0  0.29380  0.39155  0.50209  1.0000
  C   C582      1.0  0.44215  0.08762  0.57551  1.0000
  C   C583      1.0  0.32582  0.32354  0.81132  1.0000
  H   H999      1.0  0.45414  0.05914  0.78359  1.0000
  H   H1000     1.0  0.31948  0.32877  0.89741  1.0000
  H   H1001     1.0  0.25069  0.04549  0.84376  1.0000
  H   H1002     1.0  0.39308  0.21334  0.83174  1.0000
  H   H1003     1.0  0.27378  0.98944  0.91545  1.0000
  C   C584      1.0  0.33176  0.45692  0.95163  1.0000
  H   H1004     1.0  0.39440  0.35920  0.69622  1.0000
  H   H1005     1.0  0.31878  0.07481  0.77871  1.0000
  H   H1006     1.0  0.27706  0.45959  0.71612  1.0000
  H   H1007     1.0  0.39981  0.17441  0.53567  1.0000
  H   H1008     1.0  0.37080  0.02193  0.91725  1.0000
  C   C585      1.0  0.26752  0.22271  0.84785  1.0000
  H   H1009     1.0  0.31111  0.24936  0.73518  1.0000
  H   H1010     1.0  0.33965  0.03371  0.91405  1.0000
  H   H1011     1.0  0.34961  0.21470  0.79514  1.0000
  H   H1012     1.0  0.34892  0.19790  0.54784  1.0000
  H   H1013     1.0  0.26356  0.41756  0.85384  1.0000
  C   C586      1.0  0.45109  0.11910  0.86880  1.0000
  H   H1014     1.0  0.27847  0.38816  0.85271  1.0000
  C   C587      1.0  0.28535  0.41505  0.85837  1.0000
  H   H1015     1.0  0.44219  0.11072  0.58567  1.0000
  H   H1016     1.0  0.39819  0.34608  0.75696  1.0000
  H   H1017     1.0  0.42571  0.12112  0.52161  1.0000
  C   C588      1.0  0.24819  0.02177  0.85232  1.0000
  H   H1018     1.0  0.46009  0.37858  0.92984  1.0000
  H   H1019     1.0  0.25305  0.36144  0.53572  1.0000
  H   H1020     1.0  0.31373  0.38031  0.90199  1.0000
  C   C589      1.0  0.43693  0.10532  0.51487  1.0000
  H   H1021     1.0  0.39220  0.44559  0.81389  1.0000
  H   H1022     1.0  0.38735  0.09703  0.91714  1.0000
  C   C590      1.0  0.36484  0.04225  0.92302  1.0000
  N   N27       1.0  0.34942  0.33007  0.96246  1.0000
  C   C591      1.0  0.43669  0.35416  0.93096  1.0000
  H   H1023     1.0  0.42281  0.48235  0.79168  1.0000
  C   C592      1.0  0.32774  0.24179  0.74735  1.0000
  H   H1024     1.0  0.33301  0.48334  0.86818  1.0000
  H   H1025     1.0  0.34770  0.01520  0.82178  1.0000
  H   H1026     1.0  0.45062  0.29964  0.65485  1.0000
  H   H1027     1.0  0.43755  0.19679  0.76009  1.0000
  H   H1028     1.0  0.42790  0.00893  0.67075  1.0000
  C   C593      1.0  0.40122  0.29679  0.51529  1.0000
  H   H1029     1.0  0.36987  0.24274  0.51274  1.0000
  C   C594      1.0  0.37167  0.00903  0.68156  1.0000
  H   H1030     1.0  0.36421  0.06758  0.80039  1.0000
  C   C595      1.0  0.45360  0.19656  0.78079  1.0000
  H   H1031     1.0  0.42050  0.27236  0.57272  1.0000
  H   H1032     1.0  0.23688  0.14773  0.78531  1.0000
  H   H1033     1.0  0.41869  0.34043  0.68308  1.0000
  C   C596      1.0  0.28653  0.23280  0.96888  1.0000
  H   H1034     1.0  0.34473  0.20592  0.73271  1.0000
  C   C597      1.0  0.31313  0.43862  0.83517  1.0000
  H   H1035     1.0  0.45599  0.13202  0.89465  1.0000
  H   H1036     1.0  0.35726  0.40728  0.89785  1.0000
  C   C598      1.0  0.39850  0.22778  0.80760  1.0000
  H   H1037     1.0  0.41711  0.11098  0.82739  1.0000
  H   H1038     1.0  0.30703  0.28754  0.76873  1.0000
  C   C599      1.0  0.30551  0.46229  0.94468  1.0000
  H   H1039     1.0  0.25319  0.44139  0.94596  1.0000
  H   H1040     1.0  0.44060  0.33650  0.94706  1.0000
  C   C600      1.0  0.33122  0.30684  0.77930  1.0000
  H   H1041     1.0  0.24126  0.02581  0.67544  1.0000
  H   H1042     1.0  0.30942  0.08141  0.82221  1.0000
  H   H1043     1.0  0.42945  0.47576  0.83602  1.0000
  H   H1044     1.0  0.44668  0.09834  0.68624  1.0000
  H   H1045     1.0  0.42401  0.32935  0.74547  1.0000
  H   H1046     1.0  0.39162  0.02860  0.69823  1.0000
  S   S142      1.0  0.42541  0.44546  0.96842  1.0000
  H   H1047     1.0  0.28465  0.17222  0.73280  1.0000
  H   H1048     1.0  0.32329  0.35711  0.95501  1.0000
  C   C601      1.0  0.36560  0.19890  0.56852  1.0000
  H   H1049     1.0  0.35376  0.09304  0.87094  1.0000
  N   N28       1.0  0.40078  0.21895  0.55809  1.0000
  C   C602      1.0  0.30044  0.42673  0.51577  1.0000
  H   H1050     1.0  0.36727  0.20496  0.62499  1.0000
  H   H1051     1.0  0.36745  0.23932  0.60329  1.0000
  H   H1052     1.0  0.43625  0.37807  0.71061  1.0000
  H   H1053     1.0  0.32021  0.46181  0.75352  1.0000
  H   H1054     1.0  0.36585  0.38281  0.95178  1.0000
  H   H1055     1.0  0.46166  0.21481  0.56617  1.0000
  C   C603      1.0  0.34658  0.46473  0.47812  1.0000
  H   H1056     1.0  0.40643  0.28660  0.78015  1.0000
  N   N29       1.0  0.38883  0.07599  0.86705  1.0000
  H   H1057     1.0  0.30049  0.17106  0.69101  1.0000
  H   H1058     1.0  0.35845  0.17172  0.57211  1.0000
  H   H1059     1.0  0.36877  0.26239  0.55238  1.0000
  N   N30       1.0  0.31288  0.45524  0.49039  1.0000
  C   C604      1.0  0.41141  0.25536  0.54924  1.0000
  N   N31       1.0  0.35914  0.27301  0.75881  1.0000
  H   H1060     1.0  0.39132  0.25304  0.74896  1.0000
  H   H1061     1.0  0.41986  0.23453  0.61016  1.0000
  C   C605      1.0  0.42393  0.07581  0.54076  1.0000
  H   H1062     1.0  0.38096  0.28406  0.70841  1.0000
  C   C606      1.0  0.47550  0.31164  0.75150  1.0000
  H   H1063     1.0  0.28242  0.19731  0.69820  1.0000
  H   H1064     1.0  0.46771  0.09352  0.57271  1.0000
  H   H1065     1.0  0.44833  0.00833  0.60085  1.0000
  S   S143      1.0  0.47425  0.10774  0.96022  1.0000
  C   C607      1.0  0.47733  0.33589  0.69607  1.0000
  H   H1066     1.0  0.24060  0.19835  0.50349  1.0000
  C   C608      1.0  0.38537  0.26221  0.53245  1.0000
  H   H1067     1.0  0.30955  0.16602  0.60793  1.0000
  C   C609      1.0  0.38373  0.26355  0.77088  1.0000
  C   C610      1.0  0.40308  0.33178  0.73663  1.0000
  H   H1068     1.0  0.27742  0.38290  0.47928  1.0000
  C   C611      1.0  0.45685  0.27856  0.73694  1.0000
  H   H1069     1.0  0.42964  0.34333  0.90427  1.0000
  C   C612      1.0  0.32032  0.19409  0.60700  1.0000
  C   C613      1.0  0.35212  0.29039  0.78838  1.0000
  H   H1070     1.0  0.46747  0.21749  0.63077  1.0000
  C   C614      1.0  0.41077  0.47301  0.81680  1.0000
  C   C615      1.0  0.27712  0.36442  0.52924  1.0000
  H   H1071     1.0  0.44745  0.16992  0.78533  1.0000
  H   H1072     1.0  0.45317  0.41223  0.50079  1.0000
  C   C616      1.0  0.42129  0.21917  0.58822  1.0000
  H   H1073     1.0  0.26359  0.01589  0.48890  1.0000
  H   H1074     1.0  0.31709  0.28649  0.92984  1.0000
  C   C617      1.0  0.26106  0.99018  0.89254  1.0000
  H   H1075     1.0  0.35399  0.29976  0.71569  1.0000
  H   H1076     1.0  0.46330  0.24222  0.96275  1.0000
  H   H1077     1.0  0.43010  0.06718  0.59454  1.0000
  H   H1078     1.0  0.47542  0.12973  0.81934  1.0000
  H   H1079     1.0  0.42213  0.46971  0.53695  1.0000
  C   C618      1.0  0.45796  0.30284  0.68176  1.0000
  H   H1080     1.0  0.30536  0.42977  0.80821  1.0000
  C   C619      1.0  0.45808  0.23365  0.58145  1.0000
  H   H1081     1.0  0.44207  0.46100  0.50202  1.0000
  H   H1082     1.0  0.29661  0.29861  0.95956  1.0000
  H   H1083     1.0  0.30439  0.04056  0.80857  1.0000
  H   H1084     1.0  0.46525  0.16905  0.49159  1.0000
  H   H1085     1.0  0.47818  0.32824  0.52810  1.0000
  H   H1086     1.0  0.37186  0.02013  0.65622  1.0000
  C   C620      1.0  0.47025  0.22811  0.87805  1.0000
  C   C621      1.0  0.37731  0.32724  0.94741  1.0000
  H   H1087     1.0  0.41618  0.31753  0.53438  1.0000
  C   C622      1.0  0.47732  0.14313  0.84433  1.0000
  H   H1088     1.0  0.46845  0.25766  0.56711  1.0000
  C   C623      1.0  0.46058  0.06387  0.75673  1.0000
  H   H1089     1.0  0.41675  0.29731  0.49368  1.0000
  H   H1090     1.0  0.47462  0.16559  0.83944  1.0000
  H   H1091     1.0  0.23922  0.47857  0.48165  1.0000
  C   C624      1.0  0.47753  0.24081  0.61523  1.0000
  C   C625      1.0  0.47333  0.25639  0.86095  1.0000
  C   C626      1.0  0.29307  0.48307  0.73166  1.0000
  H   H1092     1.0  0.38424  0.05008  0.48751  1.0000
  C   C627      1.0  0.45102  0.98539  0.60064  1.0000
  C   C628      1.0  0.23100  0.23583  0.88020  1.0000
  H   H1093     1.0  0.29378  0.22363  0.94564  1.0000
  H   H1094     1.0  0.25141  0.01504  0.95995  1.0000
  C   C629      1.0  0.23072  0.05732  0.75709  1.0000
  H   H1095     1.0  0.47670  0.26124  0.63071  1.0000
  C   C630      1.0  0.23477  0.46083  0.87152  1.0000
  H   H1096     1.0  0.34824  0.00189  0.69421  1.0000
  Fe  Fe75      1.0  0.47815  0.48147  0.95816  1.0000
  H   H1097     1.0  0.46620  0.99279  0.65373  1.0000
  H   H1098     1.0  0.38129  0.30883  0.96203  1.0000
  H   H1099     1.0  0.38230  0.08747  0.47948  1.0000
  H   H1100     1.0  0.26442  0.23438  0.96287  1.0000
  C   C631      1.0  0.44444  0.48063  0.52123  1.0000
  H   H1101     1.0  0.28967  0.48048  0.51577  1.0000
  H   H1102     1.0  0.34525  0.42219  0.97257  1.0000
  H   H1103     1.0  0.41938  0.37179  0.97284  1.0000
  H   H1104     1.0  0.34915  0.02164  0.97385  1.0000
  H   H1105     1.0  0.46307  0.36837  0.47718  1.0000
  H   H1106     1.0  0.38342  0.48350  0.85433  1.0000
  N   N32       1.0  0.43085  0.09474  0.47717  1.0000
  C   C632      1.0  0.23846  0.70204  0.38248  1.0000
  S   S144      1.0  0.40577  0.90326  0.28783  1.0000
  H   H1107     1.0  0.26068  0.69005  0.46476  1.0000
  Fe  Fe76      1.0  0.39069  0.92762  0.33002  1.0000
  S   S145      1.0  0.34106  0.88897  0.35461  1.0000
  H   H1108     1.0  0.46192  0.86327  0.17119  1.0000
  C   C633      1.0  0.26158  0.81462  0.27916  1.0000
  Fe  Fe77      1.0  0.27999  0.56919  0.44501  1.0000
  S   S146      1.0  0.31015  0.62400  0.43274  1.0000
  Fe  Fe78      1.0  0.27002  0.54639  0.37053  1.0000
  S   S147      1.0  0.29889  0.60060  0.35305  1.0000
  H   H1109     1.0  0.34601  0.76451  0.35368  1.0000
  Fe  Fe79      1.0  0.33603  0.60877  0.39434  1.0000
  S   S148      1.0  0.39199  0.63973  0.40270  1.0000
  Fe  Fe80      1.0  0.27184  0.61402  0.39266  1.0000
  S   S149      1.0  0.26427  0.66067  0.39785  1.0000
  S   S150      1.0  0.30815  0.55394  0.41015  1.0000
  H   H1110     1.0  0.31275  0.97699  0.29014  1.0000
  Fe  Fe81      1.0  0.29742  0.64724  0.27714  1.0000
  S   S151      1.0  0.32676  0.68954  0.24019  1.0000
  S   S152      1.0  0.24238  0.63005  0.27842  1.0000
  Fe  Fe82      1.0  0.35704  0.63807  0.29331  1.0000
  S   S153      1.0  0.38965  0.68061  0.25780  1.0000
  S   S154      1.0  0.36592  0.59729  0.31969  1.0000
  Fe  Fe83      1.0  0.36749  0.71095  0.28060  1.0000
  S   S155      1.0  0.39024  0.76931  0.29203  1.0000
  Fe  Fe84      1.0  0.34714  0.65737  0.22008  1.0000
  S   S156      1.0  0.35154  0.64028  0.16497  1.0000
  S   S157      1.0  0.33745  0.67044  0.31810  1.0000
  S   S158      1.0  0.31557  0.61406  0.25443  1.0000
  S   S159      1.0  0.34786  0.69699  0.01587  1.0000
  C   C634      1.0  0.26259  0.98123  0.44926  1.0000
  C   C635      1.0  0.38813  0.57749  0.33622  1.0000
  C   C636      1.0  0.42100  0.58889  0.32921  1.0000
  C   C637      1.0  0.43698  0.57200  0.34268  1.0000
  C   C638      1.0  0.42074  0.54340  0.36363  1.0000
  C   C639      1.0  0.38787  0.53217  0.37047  1.0000
  C   C640      1.0  0.37188  0.54880  0.35690  1.0000
  H   H1111     1.0  0.43442  0.61110  0.31377  1.0000
  H   H1112     1.0  0.37441  0.51010  0.38608  1.0000
  H   H1113     1.0  0.34654  0.53922  0.36242  1.0000
  C   C641      1.0  0.41084  0.80188  0.32545  1.0000
  C   C642      1.0  0.43070  0.80016  0.35133  1.0000
  C   C643      1.0  0.44776  0.82760  0.37569  1.0000
  C   C644      1.0  0.44550  0.85749  0.37456  1.0000
  C   C645      1.0  0.40799  0.83126  0.32506  1.0000
  H   H1114     1.0  0.43390  0.77830  0.35148  1.0000
  C   C646      1.0  0.44842  0.71517  0.46683  1.0000
  Fe  Fe85      1.0  0.42215  0.95191  0.26067  1.0000
  H   H1115     1.0  0.23373  0.81476  0.32381  1.0000
  C   C647      1.0  0.34891  0.65584  0.12392  1.0000
  C   C648      1.0  0.34595  0.63627  0.09396  1.0000
  C   C649      1.0  0.34487  0.64801  0.06077  1.0000
  C   C650      1.0  0.34765  0.67998  0.05704  1.0000
  C   C651      1.0  0.35064  0.69954  0.08701  1.0000
  C   C652      1.0  0.35105  0.68750  0.12023  1.0000
  H   H1116     1.0  0.34421  0.61174  0.09651  1.0000
  H   H1117     1.0  0.34173  0.63231  0.03811  1.0000
  H   H1118     1.0  0.35265  0.72421  0.08453  1.0000
  H   H1119     1.0  0.35346  0.70291  0.14295  1.0000
  C   C653      1.0  0.42455  0.65625  0.37249  1.0000
  C   C654      1.0  0.45382  0.65695  0.38086  1.0000
  H   H1120     1.0  0.38124  0.49209  0.14882  1.0000
  C   C655      1.0  0.45058  0.68771  0.32074  1.0000
  C   C656      1.0  0.42348  0.67246  0.34255  1.0000
  H   H1121     1.0  0.45540  0.64511  0.40412  1.0000
  H   H1122     1.0  0.40167  0.67322  0.33631  1.0000
  Fe  Fe86      1.0  0.46339  0.50491  0.32616  1.0000
  C   C657      1.0  0.30271  0.93087  0.26132  1.0000
  H   H1123     1.0  0.45863  0.57183  0.27127  1.0000
  H   H1124     1.0  0.45361  0.49357  0.08180  1.0000
  H   H1125     1.0  0.26178  0.72281  0.39102  1.0000
  C   C658      1.0  0.30618  0.88539  0.37692  1.0000
  C   C659      1.0  0.30323  0.91356  0.38704  1.0000
  C   C660      1.0  0.27515  0.90899  0.40452  1.0000
  C   C661      1.0  0.24891  0.87625  0.41146  1.0000
  C   C662      1.0  0.25210  0.84819  0.40150  1.0000
  C   C663      1.0  0.28055  0.85274  0.38499  1.0000
  H   H1126     1.0  0.32245  0.93890  0.38119  1.0000
  H   H1127     1.0  0.27342  0.93108  0.41197  1.0000
  H   H1128     1.0  0.24549  0.67447  0.21900  1.0000
  H   H1129     1.0  0.28226  0.83060  0.37754  1.0000
  C   C664      1.0  0.24963  0.83235  0.30387  1.0000
  H   H1130     1.0  0.36929  0.58684  0.20117  1.0000
  H   H1131     1.0  0.26703  0.50496  0.16165  1.0000
  H   H1132     1.0  0.28035  0.90902  0.24962  1.0000
  H   H1133     1.0  0.37977  0.55856  0.16079  1.0000
  C   C665      1.0  0.42461  0.85833  0.34950  1.0000
  C   C666      1.0  0.35769  0.55340  0.01926  1.0000
  C   C667      1.0  0.43222  0.59847  0.02786  1.0000
  H   H1134     1.0  0.36000  0.85437  0.04894  1.0000
  C   C668      1.0  0.42927  0.64334  0.99477  1.0000
  H   H1135     1.0  0.27040  0.85416  0.31706  1.0000
  C   C669      1.0  0.46578  0.77624  0.45801  1.0000
  H   H1136     1.0  0.37379  0.53263  0.27138  1.0000
  H   H1137     1.0  0.41265  0.58050  0.25632  1.0000
  H   H1138     1.0  0.25904  0.93655  0.14111  1.0000
  H   H1139     1.0  0.24692  0.73787  0.28234  1.0000
  S   S160      1.0  0.42789  0.50663  0.01843  1.0000
  H   H1140     1.0  0.38584  0.69728  0.44715  1.0000
  H   H1141     1.0  0.47785  0.56905  0.46411  1.0000
  S   S161      1.0  0.40327  0.94700  0.20627  1.0000
  C   C670      1.0  0.34920  0.52571  0.26139  1.0000
  H   H1142     1.0  0.23979  0.79340  0.26620  1.0000
  H   H1143     1.0  0.35099  0.82334  0.37852  1.0000
  S   S162      1.0  0.41763  0.49249  0.29575  1.0000
  C   C671      1.0  0.42912  0.97888  0.17845  1.0000
  C   C672      1.0  0.32179  0.74226  0.34734  1.0000
  S   S163      1.0  0.43947  0.94835  0.35626  1.0000
  H   H1144     1.0  0.37484  0.97690  0.41975  1.0000
  H   H1145     1.0  0.38897  0.52678  0.21333  1.0000
  H   H1146     1.0  0.36071  0.49230  0.47210  1.0000
  C   C673      1.0  0.33643  0.85380  0.05148  1.0000
  S   S164      1.0  0.43927  0.52028  0.38200  1.0000
  H   H1147     1.0  0.41846  0.66190  0.04374  1.0000
  C   C674      1.0  0.35185  0.85855  0.44107  1.0000
  H   H1148     1.0  0.30621  0.95133  0.19894  1.0000
  C   C675      1.0  0.31555  0.52590  0.21370  1.0000
  H   H1149     1.0  0.31113  0.72849  0.37136  1.0000
  C   C676      1.0  0.29699  0.91528  0.02524  1.0000
  N   N33       1.0  0.35029  0.53736  0.22491  1.0000
  C   C677      1.0  0.23387  0.95895  0.35837  1.0000
  H   H1150     1.0  0.42730  0.89958  0.46460  1.0000
  H   H1151     1.0  0.34673  0.48565  0.31770  1.0000
  H   H1152     1.0  0.43960  0.69007  0.45314  1.0000
  H   H1153     1.0  0.45994  0.52248  0.13816  1.0000
  H   H1154     1.0  0.44917  0.69958  0.29750  1.0000
  H   H1155     1.0  0.37713  0.60546  0.03675  1.0000
  H   H1156     1.0  0.41896  0.64162  0.21717  1.0000
  H   H1157     1.0  0.24886  0.92643  0.33253  1.0000
  N   N34       1.0  0.45745  0.74258  0.44071  1.0000
  H   H1158     1.0  0.45373  0.69696  0.11430  1.0000
  C   C678      1.0  0.33375  0.89143  0.47495  1.0000
  H   H1159     1.0  0.29460  0.76830  0.35050  1.0000
  H   H1160     1.0  0.42121  0.87997  0.34901  1.0000
  H   H1161     1.0  0.39298  0.83345  0.30553  1.0000
  H   H1162     1.0  0.37982  0.81199  0.39496  1.0000
  H   H1163     1.0  0.37024  0.54528  0.03773  1.0000
  H   H1164     1.0  0.29021  0.91183  0.31315  1.0000
  H   H1165     1.0  0.46537  0.84912  0.24447  1.0000
  C   C679      1.0  0.40777  0.59103  0.23309  1.0000
  C   C680      1.0  0.39044  0.51970  0.14555  1.0000
  S   S165      1.0  0.47319  0.97465  0.28024  1.0000
  Fe  Fe87      1.0  0.45657  0.92783  0.31197  1.0000
  H   H1166     1.0  0.46206  0.58154  0.33696  1.0000
  H   H1167     1.0  0.44507  0.63938  0.06652  1.0000
  H   H1168     1.0  0.38412  0.60001  0.45760  1.0000
  H   H1169     1.0  0.26580  0.94140  0.20670  1.0000
  H   H1170     1.0  0.27108  0.54631  0.15622  1.0000
  C   C681      1.0  0.42832  0.73186  0.41708  1.0000
  C   C682      1.0  0.39561  0.72223  0.43459  1.0000
  C   C683      1.0  0.36993  0.71827  0.40803  1.0000
  H   H1171     1.0  0.43325  0.75244  0.39910  1.0000
  H   H1172     1.0  0.36778  0.91890  0.41691  1.0000
  H   H1173     1.0  0.36462  0.59794  0.99286  1.0000
  H   H1174     1.0  0.37778  0.74257  0.39474  1.0000
  H   H1175     1.0  0.36577  0.69812  0.38852  1.0000
  H   H1176     1.0  0.34650  0.71061  0.42090  1.0000
  H   H1177     1.0  0.42415  0.70998  0.40031  1.0000
  H   H1178     1.0  0.43211  0.86728  0.12095  1.0000
  H   H1179     1.0  0.33706  0.83580  0.45669  1.0000
  C   C684      1.0  0.44858  0.49503  0.13663  1.0000
  H   H1180     1.0  0.29314  0.73778  0.98416  1.0000
  H   H1181     1.0  0.34209  0.79770  0.41650  1.0000
  C   C685      1.0  0.44599  0.85459  0.23635  1.0000
  S   S166      1.0  0.46623  0.89152  0.40669  1.0000
  H   H1182     1.0  0.45050  0.93207  0.16512  1.0000
  C   C686      1.0  0.42729  0.88380  0.13825  1.0000
  H   H1183     1.0  0.44712  0.75247  0.29365  1.0000
  H   H1184     1.0  0.41936  0.58573  0.21083  1.0000
  H   H1185     1.0  0.41615  0.66636  0.13324  1.0000
  H   H1186     1.0  0.29019  0.75086  0.45298  1.0000
  H   H1187     1.0  0.30182  0.95060  0.13579  1.0000
  H   H1188     1.0  0.28358  0.71506  0.26289  1.0000
  H   H1189     1.0  0.47275  0.74977  0.36598  1.0000
  H   H1190     1.0  0.31467  0.89798  0.28951  1.0000
  H   H1191     1.0  0.43012  0.70224  0.18703  1.0000
  H   H1192     1.0  0.33554  0.85768  0.41989  1.0000
  H   H1193     1.0  0.39442  0.87308  0.40822  1.0000
  C   C687      1.0  0.45208  0.60106  0.08931  1.0000
  H   H1194     1.0  0.27639  0.83327  0.25947  1.0000
  H   H1195     1.0  0.30378  0.70686  0.46836  1.0000
  H   H1196     1.0  0.40435  0.92233  0.42980  1.0000
  H   H1197     1.0  0.37956  0.86336  0.11429  1.0000
  H   H1198     1.0  0.43335  0.85582  0.25983  1.0000
  H   H1199     1.0  0.46392  0.82640  0.39457  1.0000
  C   C688      1.0  0.42464  0.62963  0.23875  1.0000
  H   H1200     1.0  0.30338  0.49909  0.20366  1.0000
  C   C689      1.0  0.45839  0.91854  0.14670  1.0000
  C   C690      1.0  0.29695  0.96136  0.26786  1.0000
  H   H1201     1.0  0.27161  0.94964  0.27753  1.0000
  H   H1202     1.0  0.39027  0.56788  0.43697  1.0000
  H   H1203     1.0  0.31607  0.57234  0.19823  1.0000
  H   H1204     1.0  0.35281  0.53833  0.99479  1.0000
  C   C691      1.0  0.36154  0.81925  0.40238  1.0000
  H   H1205     1.0  0.27631  0.73006  0.32340  1.0000
  C   C692      1.0  0.37806  0.59219  0.01280  1.0000
  H   H1206     1.0  0.46519  0.93397  0.12301  1.0000
  H   H1207     1.0  0.34976  0.49298  0.20255  1.0000
  H   H1208     1.0  0.25220  0.75746  0.24215  1.0000
  C   C693      1.0  0.37199  0.97165  0.44766  1.0000
  H   H1209     1.0  0.34102  0.88034  0.05272  1.0000
  C   C694      1.0  0.32887  0.85010  0.98636  1.0000
  C   C695      1.0  0.31355  0.83387  0.02118  1.0000
  H   H1210     1.0  0.41657  0.63564  0.26342  1.0000
  H   H1211     1.0  0.40796  0.60030  0.07574  1.0000
  C   C696      1.0  0.27438  0.52985  0.17471  1.0000
  H   H1212     1.0  0.24473  0.88971  0.03177  1.0000
  H   H1213     1.0  0.32038  0.89400  0.45248  1.0000
  C   C697      1.0  0.32455  0.54406  0.03413  1.0000
  C   C698      1.0  0.43489  0.69378  0.13311  1.0000
  H   H1214     1.0  0.34028  0.53893  0.27891  1.0000
  H   H1215     1.0  0.32493  0.72489  0.32933  1.0000
  S   S167      1.0  0.23999  0.55887  0.40706  1.0000
  C   C699      1.0  0.36877  0.53077  0.16399  1.0000
  C   C700      1.0  0.43889  0.70278  0.00810  1.0000
  H   H1216     1.0  0.46122  0.79551  0.28013  1.0000
  H   H1217     1.0  0.39870  0.74187  0.45415  1.0000
  C   C701      1.0  0.32334  0.93448  0.00352  1.0000
  C   C702      1.0  0.38222  0.92128  0.44046  1.0000
  C   C703      1.0  0.31055  0.91963  0.29493  1.0000
  H   H1218     1.0  0.30105  0.52587  0.23637  1.0000
  H   H1219     1.0  0.26818  0.64353  0.46923  1.0000
  H   H1220     1.0  0.31081  0.55135  0.01624  1.0000
  H   H1221     1.0  0.39644  0.95573  0.13478  1.0000
  H   H1222     1.0  0.26551  0.78468  0.31912  1.0000
  C   C704      1.0  0.38870  0.57884  0.46234  1.0000
  H   H1223     1.0  0.45140  0.64073  0.24064  1.0000
  H   H1224     1.0  0.44113  0.89474  0.21335  1.0000
  H   H1225     1.0  0.42799  0.83345  0.21939  1.0000
  H   H1226     1.0  0.23271  0.82288  0.40668  1.0000
  H   H1227     1.0  0.44023  0.60994  0.46590  1.0000
  H   H1228     1.0  0.33917  0.79705  0.97891  1.0000
  N   N35       1.0  0.41276  0.60551  0.00178  1.0000
  H   H1229     1.0  0.39213  0.84818  0.44517  1.0000
  H   H1230     1.0  0.25360  0.97836  0.23976  1.0000
  C   C705      1.0  0.37077  0.57579  0.22586  1.0000
  H   H1231     1.0  0.45871  0.68840  0.17730  1.0000
  H   H1232     1.0  0.41823  0.97487  0.45052  1.0000
  H   H1233     1.0  0.45521  0.73361  0.23540  1.0000
  H   H1234     1.0  0.30168  0.90947  0.05084  1.0000
  C   C706      1.0  0.25802  0.91088  0.98137  1.0000
  H   H1235     1.0  0.40977  0.90380  0.09770  1.0000
  C   C707      1.0  0.26460  0.90391  0.01447  1.0000
  H   H1236     1.0  0.39091  0.52454  0.11755  1.0000
  H   H1237     1.0  0.30865  0.80731  0.02227  1.0000
  H   H1238     1.0  0.42309  0.70833  0.12463  1.0000
  H   H1239     1.0  0.32519  0.55203  0.16355  1.0000
  H   H1240     1.0  0.32754  0.55706  0.05962  1.0000
  S   S168      1.0  0.25423  0.50400  0.32879  1.0000
  C   C708      1.0  0.37784  0.85194  0.42479  1.0000
  N   N36       1.0  0.29428  0.78297  0.27652  1.0000
  C   C709      1.0  0.31570  0.77534  0.29903  1.0000
  C   C710      1.0  0.31417  0.80661  0.24811  1.0000
  C   C711      1.0  0.28161  0.80146  0.29870  1.0000
  C   C712      1.0  0.26518  0.75101  0.26189  1.0000
  C   C713      1.0  0.27184  0.72419  0.24452  1.0000
  C   C714      1.0  0.46070  0.88868  0.21835  1.0000
  H   H1241     1.0  0.24463  0.95814  0.43434  1.0000
  C   C715      1.0  0.34266  0.80287  0.23337  1.0000
  C   C716      1.0  0.35682  0.82449  0.20156  1.0000
  N   N37       1.0  0.36366  0.89074  0.46276  1.0000
  H   H1242     1.0  0.28518  0.48986  0.44713  1.0000
  C   C717      1.0  0.42012  0.97587  0.14359  1.0000
  H   H1243     1.0  0.33687  0.79959  0.30893  1.0000
  H   H1244     1.0  0.32622  0.76224  0.28390  1.0000
  H   H1245     1.0  0.29803  0.80465  0.22617  1.0000
  H   H1246     1.0  0.32611  0.83371  0.25756  1.0000
  H   H1247     1.0  0.30221  0.82370  0.31255  1.0000
  H   H1248     1.0  0.46462  0.71232  0.01605  1.0000
  H   H1249     1.0  0.45124  0.60940  0.11624  1.0000
  C   C718      1.0  0.23261  0.66837  0.38374  1.0000
  H   H1250     1.0  0.32516  0.84150  0.07605  1.0000
  H   H1251     1.0  0.28707  0.73460  0.22158  1.0000
  C   C719      1.0  0.31002  0.54729  0.18660  1.0000
  S   S169      1.0  0.43803  0.49738  0.20452  1.0000
  C   C720      1.0  0.36493  0.52118  0.20243  1.0000
  H   H1252     1.0  0.31013  0.51611  0.03758  1.0000
  H   H1253     1.0  0.36265  0.81181  0.25292  1.0000
  H   H1254     1.0  0.33530  0.77630  0.22611  1.0000
  H   H1255     1.0  0.36742  0.85198  0.20850  1.0000
  H   H1256     1.0  0.37631  0.82033  0.19111  1.0000
  H   H1257     1.0  0.33779  0.81710  0.18114  1.0000
  S   S170      1.0  0.36342  0.94672  0.01844  1.0000
  H   H1258     1.0  0.33443  0.87698  0.98836  1.0000
  S   S171      1.0  0.45419  0.97656  0.02756  1.0000
  H   H1259     1.0  0.39255  0.65748  0.00780  1.0000
  H   H1260     1.0  0.45807  0.61043  0.02001  1.0000
  H   H1261     1.0  0.46394  0.77383  0.22063  1.0000
  C   C721      1.0  0.43284  0.61123  0.06535  1.0000
  C   C722      1.0  0.29113  0.96316  0.20438  1.0000
  H   H1262     1.0  0.44167  0.57300  0.08857  1.0000
  H   H1263     1.0  0.41571  0.53447  0.15612  1.0000
  C   C723      1.0  0.40078  0.88861  0.12137  1.0000
  H   H1264     1.0  0.25676  0.98211  0.35486  1.0000
  H   H1265     1.0  0.42369  0.57076  0.02826  1.0000
  C   C724      1.0  0.46897  0.77782  0.29004  1.0000
  C   C725      1.0  0.29946  0.75339  0.33075  1.0000
  H   H1266     1.0  0.25841  0.52588  0.19710  1.0000
  H   H1267     1.0  0.36107  0.58660  0.24542  1.0000
  H   H1268     1.0  0.33311  0.94062  0.30720  1.0000
  H   H1269     1.0  0.29045  0.83387  0.02531  1.0000
  H   H1270     1.0  0.46534  0.75836  0.16311  1.0000
  C   C726      1.0  0.24009  0.69313  0.23195  1.0000
  C   C727      1.0  0.44980  0.70564  0.16934  1.0000
  H   H1271     1.0  0.41688  0.86968  0.16212  1.0000
  H   H1272     1.0  0.45952  0.79157  0.44082  1.0000
  H   H1273     1.0  0.39243  0.90156  0.13983  1.0000
  H   H1274     1.0  0.45617  0.65556  0.99847  1.0000
  C   C728      1.0  0.41784  0.66499  0.01557  1.0000
  H   H1275     1.0  0.32296  0.93641  0.24378  1.0000
  H   H1276     1.0  0.34456  0.51745  0.15081  1.0000
  H   H1277     1.0  0.43772  0.70695  0.98009  1.0000
  C   C729      1.0  0.47570  0.75946  0.22998  1.0000
  C   C730      1.0  0.39305  0.95653  0.45832  1.0000
  H   H1278     1.0  0.34584  0.95451  0.45268  1.0000
  H   H1279     1.0  0.42964  0.71751  0.02260  1.0000
  H   H1280     1.0  0.27891  0.97512  0.46427  1.0000
  S   S172      1.0  0.40743  0.97674  0.30134  1.0000
  C   C731      1.0  0.32742  0.48693  0.26706  1.0000
  H   H1281     1.0  0.42200  0.54702  0.47113  1.0000
  H   H1282     1.0  0.35314  0.85198  0.98482  1.0000
  H   H1283     1.0  0.31330  0.49440  0.31864  1.0000
  H   H1284     1.0  0.23584  0.84195  0.28924  1.0000
  H   H1285     1.0  0.23077  0.53036  0.26959  1.0000
  S   S173      1.0  0.47816  0.98044  0.43118  1.0000
  C   C732      1.0  0.22923  0.92734  0.34551  1.0000
  H   H1286     1.0  0.27642  0.98047  0.98113  1.0000
  H   H1287     1.0  0.32142  0.49131  0.43182  1.0000
  H   H1288     1.0  0.47794  0.61343  0.08153  1.0000
  C   C733      1.0  0.47738  0.74351  0.16960  1.0000
  C   C734      1.0  0.47799  0.88791  0.18476  1.0000
  C   C735      1.0  0.28377  0.95919  0.13917  1.0000
  H   H1289     1.0  0.47549  0.88318  0.09160  1.0000
  H   H1290     1.0  0.47849  0.90853  0.23660  1.0000
  N   N38       1.0  0.30152  0.98396  0.23778  1.0000
  H   H1291     1.0  0.28420  0.97331  0.11594  1.0000
  C   C736      1.0  0.29213  0.98238  0.17135  1.0000
  H   H1292     1.0  0.47903  0.71812  0.41139  1.0000
  H   H1293     1.0  0.26400  0.82619  0.97660  1.0000
  N   N39       1.0  0.28189  0.66253  0.52218  1.0000
  H   H1294     1.0  0.37424  0.86450  0.50230  1.0000
  C   C737      1.0  0.28432  0.92920  0.95919  1.0000
  H   H1295     1.0  0.24661  0.64475  0.56301  1.0000
  H   H1296     1.0  0.43274  0.96609  0.58238  1.0000
  H   H1297     1.0  0.38461  0.50998  0.78125  1.0000
  Fe  Fe88      1.0  0.34198  0.62545  0.70019  1.0000
  S   S174      1.0  0.37361  0.67321  0.67084  1.0000
  S   S175      1.0  0.28870  0.61175  0.69436  1.0000
  Fe  Fe89      1.0  0.39904  0.61201  0.71182  1.0000
  S   S176      1.0  0.43364  0.65781  0.68231  1.0000
  S   S177      1.0  0.41440  0.57788  0.73958  1.0000
  Fe  Fe90      1.0  0.41261  0.68605  0.71075  1.0000
  S   S178      1.0  0.45226  0.73898  0.72971  1.0000
  Fe  Fe91      1.0  0.39197  0.64192  0.64494  1.0000
  S   S179      1.0  0.39863  0.64634  0.58762  1.0000
  S   S180      1.0  0.37991  0.64091  0.74308  1.0000
  S   S181      1.0  0.35882  0.59349  0.67158  1.0000
  S   S182      1.0  0.26977  0.55437  0.50067  1.0000
  H   H1298     1.0  0.34009  0.71605  0.55218  1.0000
  S   S183      1.0  0.35850  0.64002  0.93823  1.0000
  Fe  Fe92      1.0  0.32892  0.69299  0.88804  1.0000
  S   S184      1.0  0.34210  0.65661  0.86079  1.0000
  S   S185      1.0  0.31873  0.73128  0.85995  1.0000
  Fe  Fe93      1.0  0.31412  0.62012  0.90316  1.0000
  S   S186      1.0  0.28015  0.56151  0.90257  1.0000
  Fe  Fe94      1.0  0.38582  0.67848  0.89729  1.0000
  S   S187      1.0  0.43819  0.68835  0.89021  1.0000
  S   S188      1.0  0.29840  0.65532  0.92802  1.0000
  S   S189      1.0  0.37443  0.71673  0.92158  1.0000
  C   C738      1.0  0.26262  0.52355  0.87566  1.0000
  C   C739      1.0  0.31460  0.48567  0.50920  1.0000
  H   H1299     1.0  0.39463  0.75857  0.82222  1.0000
  H   H1300     1.0  0.27133  0.54819  0.82690  1.0000
  H   H1301     1.0  0.24156  0.91092  0.71158  1.0000
  H   H1302     1.0  0.32029  0.65059  0.52845  1.0000
  C   C740      1.0  0.42091  0.90791  0.48888  1.0000
  H   H1303     1.0  0.31745  0.83243  0.89940  1.0000
  H   H1304     1.0  0.44636  0.72435  0.82484  1.0000
  H   H1305     1.0  0.32632  0.65611  0.76058  1.0000
  C   C741      1.0  0.25636  0.72030  0.87355  1.0000
  H   H1306     1.0  0.31774  0.88787  0.90979  1.0000
  H   H1307     1.0  0.35035  0.88343  0.86187  1.0000
  H   H1308     1.0  0.27038  0.83171  0.89746  1.0000
  C   C742      1.0  0.36226  0.62173  0.56403  1.0000
  C   C743      1.0  0.36335  0.61962  0.52808  1.0000
  C   C744      1.0  0.33488  0.59888  0.50875  1.0000
  C   C745      1.0  0.30513  0.58046  0.52520  1.0000
  C   C746      1.0  0.30376  0.58327  0.56114  1.0000
  C   C747      1.0  0.33236  0.60397  0.58057  1.0000
  H   H1309     1.0  0.38624  0.63371  0.51506  1.0000
  H   H1310     1.0  0.33756  0.79165  0.93268  1.0000
  H   H1311     1.0  0.28073  0.56925  0.57398  1.0000
  H   H1312     1.0  0.33123  0.60599  0.60831  1.0000
  C   C748      1.0  0.44121  0.56415  0.72344  1.0000
  C   C749      1.0  0.45130  0.54657  0.74522  1.0000
  H   H1313     1.0  0.30143  0.67609  0.80415  1.0000
  C   C750      1.0  0.24732  0.56771  0.74360  1.0000
  H   H1314     1.0  0.42795  0.71234  0.48266  1.0000
  C   C751      1.0  0.45275  0.57041  0.68972  1.0000
  C   C752      1.0  0.36554  0.58375  0.87056  1.0000
  H   H1315     1.0  0.26664  0.63546  0.75550  1.0000
  C   C753      1.0  0.45989  0.87443  0.93926  1.0000
  C   C754      1.0  0.45694  0.78037  0.72967  1.0000
  C   C755      1.0  0.43072  0.78577  0.72413  1.0000
  H   H1316     1.0  0.37830  0.53466  0.85728  1.0000
  C   C756      1.0  0.30746  0.74616  0.96017  1.0000
  H   H1317     1.0  0.37221  0.57567  0.89454  1.0000
  H   H1318     1.0  0.27210  0.80322  0.82919  1.0000
  H   H1319     1.0  0.40671  0.76423  0.71889  1.0000
  C   C757      1.0  0.37543  0.97762  0.67703  1.0000
  H   H1320     1.0  0.47615  0.87876  0.96184  1.0000
  H   H1321     1.0  0.28265  0.78311  0.92887  1.0000
  C   C758      1.0  0.23634  0.65210  0.80903  1.0000
  H   H1322     1.0  0.26401  0.71447  0.78675  1.0000
  C   C759      1.0  0.26138  0.52407  0.83956  1.0000
  C   C760      1.0  0.44096  0.58427  0.91482  1.0000
  C   C761      1.0  0.33938  0.88555  0.91615  1.0000
  H   H1323     1.0  0.37517  0.96792  0.70310  1.0000
  C   C762      1.0  0.45219  0.62585  0.82493  1.0000
  H   H1324     1.0  0.31078  0.51428  0.79538  1.0000
  H   H1325     1.0  0.31708  0.66924  0.58671  1.0000
  C   C763      1.0  0.43441  0.95137  0.75064  1.0000
  C   C764      1.0  0.41157  0.58719  0.96833  1.0000
  H   H1326     1.0  0.43145  0.77083  0.79893  1.0000
  C   C765      1.0  0.43725  0.90021  0.51865  1.0000
  H   H1327     1.0  0.27953  0.93462  0.93346  1.0000
  H   H1328     1.0  0.29428  0.71422  0.53600  1.0000
  C   C766      1.0  0.46483  0.68849  0.51399  1.0000
  H   H1329     1.0  0.23763  0.93561  0.88271  1.0000
  H   H1330     1.0  0.43066  0.59641  0.89837  1.0000
  H   H1331     1.0  0.43214  0.93599  0.48819  1.0000
  H   H1332     1.0  0.25261  0.63400  0.87044  1.0000
  H   H1333     1.0  0.47007  0.62330  0.53040  1.0000
  H   H1334     1.0  0.25323  0.68723  0.52602  1.0000
  C   C767      1.0  0.33091  0.68264  0.76042  1.0000
  C   C768      1.0  0.43538  0.81901  0.72688  1.0000
  H   H1335     1.0  0.34541  0.52660  0.76915  1.0000
  C   C769      1.0  0.32790  0.50603  0.78608  1.0000
  C   C770      1.0  0.28699  0.74161  0.85974  1.0000
  H   H1336     1.0  0.32046  0.85386  0.51593  1.0000
  H   H1337     1.0  0.25165  0.69701  0.88560  1.0000
  C   C771      1.0  0.34457  0.70628  0.52773  1.0000
  C   C772      1.0  0.47016  0.73088  0.83488  1.0000
  Fe  Fe95      1.0  0.34455  0.67696  0.96020  1.0000
  H   H1338     1.0  0.31714  0.53002  0.56170  1.0000
  C   C773      1.0  0.37023  0.49247  0.80216  1.0000
  H   H1339     1.0  0.41481  0.52031  0.83385  1.0000
  H   H1340     1.0  0.24590  0.49414  0.79191  1.0000
  H   H1341     1.0  0.36120  0.88476  0.57492  1.0000
  H   H1342     1.0  0.44758  0.84155  0.61006  1.0000
  C   C774      1.0  0.30276  0.68445  0.77724  1.0000
  H   H1343     1.0  0.25622  0.67270  0.82502  1.0000
  H   H1344     1.0  0.45760  0.58721  0.96697  1.0000
  C   C775      1.0  0.42006  0.77944  0.81870  1.0000
  C   C776      1.0  0.46639  0.84727  0.73421  1.0000
  H   H1345     1.0  0.46578  0.48725  0.53830  1.0000
  H   H1346     1.0  0.26419  0.84349  0.52382  1.0000
  C   C777      1.0  0.45183  0.61678  0.59842  1.0000
  H   H1347     1.0  0.37587  0.69289  0.55648  1.0000
  H   H1348     1.0  0.44547  0.85708  0.65271  1.0000
  H   H1349     1.0  0.35081  0.59564  0.87762  1.0000
  H   H1350     1.0  0.35245  0.84729  0.92591  1.0000
  C   C778      1.0  0.43898  0.78762  0.85290  1.0000
  C   C779      1.0  0.25689  0.82423  0.92191  1.0000
  C   C780      1.0  0.39447  0.90071  0.61941  1.0000
  H   H1351     1.0  0.39601  0.59060  0.94906  1.0000
  H   H1352     1.0  0.26663  0.74336  0.49143  1.0000
  H   H1353     1.0  0.44186  0.68125  0.52767  1.0000
  C   C781      1.0  0.43914  0.58929  0.56975  1.0000
  H   H1354     1.0  0.45504  0.95193  0.63720  1.0000
  C   C782      1.0  0.23283  0.83727  0.92141  1.0000
  H   H1355     1.0  0.43309  0.90986  0.54351  1.0000
  C   C783      1.0  0.29334  0.66843  0.58843  1.0000
  H   H1356     1.0  0.35380  0.95808  0.66224  1.0000
  H   H1357     1.0  0.35389  0.69928  0.77512  1.0000
  C   C784      1.0  0.26079  0.63490  0.49599  1.0000
  C   C785      1.0  0.39505  0.49354  0.82922  1.0000
  H   H1358     1.0  0.24259  0.79599  0.92234  1.0000
  H   H1359     1.0  0.38781  0.60301  0.85760  1.0000
  H   H1360     1.0  0.42432  0.92479  0.68504  1.0000
  H   H1361     1.0  0.38507  0.89842  0.89113  1.0000
  H   H1362     1.0  0.43878  0.76409  0.86045  1.0000
  H   H1363     1.0  0.42528  0.79291  0.87259  1.0000
  C   C786      1.0  0.27093  0.64790  0.55746  1.0000
  H   H1364     1.0  0.38448  0.55486  0.81678  1.0000
  H   H1365     1.0  0.26794  0.62187  0.55821  1.0000
  H   H1366     1.0  0.24983  0.49072  0.91918  1.0000
  H   H1367     1.0  0.39009  0.92761  0.69813  1.0000
  H   H1368     1.0  0.41480  0.82282  0.72357  1.0000
  H   H1369     1.0  0.45051  0.77177  0.48116  1.0000
  H   H1370     1.0  0.36469  0.91762  0.64488  1.0000
  C   C787      1.0  0.29616  0.79500  0.95352  1.0000
  H   H1371     1.0  0.42686  0.50387  0.48651  1.0000
  H   H1372     1.0  0.46139  0.66721  0.49652  1.0000
  C   C788      1.0  0.36577  0.87348  0.59792  1.0000
  H   H1373     1.0  0.34343  0.86131  0.61364  1.0000
  C   C789      1.0  0.34089  0.53177  0.55645  1.0000
  H   H1374     1.0  0.44816  0.82293  0.92973  1.0000
  H   H1375     1.0  0.33703  0.56204  0.82471  1.0000
  H   H1376     1.0  0.32698  0.73945  0.96168  1.0000
  C   C790      1.0  0.29234  0.77158  0.84377  1.0000
  H   H1377     1.0  0.28790  0.86594  0.95780  1.0000
  H   H1378     1.0  0.41951  0.60743  0.50533  1.0000
  H   H1379     1.0  0.36890  0.92571  0.88112  1.0000
  H   H1380     1.0  0.47587  0.88533  0.62334  1.0000
  C   C791      1.0  0.31680  0.94140  0.97033  1.0000
  H   H1381     1.0  0.45059  0.97055  0.77047  1.0000
  H   H1382     1.0  0.46260  0.98244  0.70941  1.0000
  H   H1383     1.0  0.41641  0.91039  0.60328  1.0000
  H   H1384     1.0  0.25411  0.70659  0.74251  1.0000
  H   H1385     1.0  0.27412  0.67012  0.73001  1.0000
  C   C792      1.0  0.33548  0.49744  0.54307  1.0000
  H   H1386     1.0  0.32070  0.66811  0.48847  1.0000
  H   H1387     1.0  0.25673  0.61756  0.80940  1.0000
  H   H1388     1.0  0.43332  0.56522  0.58222  1.0000
  C   C793      1.0  0.25081  0.57952  0.70994  1.0000
  H   H1389     1.0  0.37128  0.85349  0.58903  1.0000
  C   C794      1.0  0.44745  0.97147  0.63757  1.0000
  C   C795      1.0  0.46221  0.85860  0.63200  1.0000
  H   H1390     1.0  0.33669  0.95571  0.95311  1.0000
  H   H1391     1.0  0.38358  0.94066  0.60762  1.0000
  H   H1392     1.0  0.43255  0.61039  0.61776  1.0000
  C   C796      1.0  0.36531  0.53640  0.83409  1.0000
  H   H1393     1.0  0.35545  0.53933  0.58088  1.0000
  C   C797      1.0  0.47227  0.53494  0.73338  1.0000
  H   H1394     1.0  0.31586  0.78824  0.83285  1.0000
  C   C798      1.0  0.34532  0.55291  0.84679  1.0000
  H   H1395     1.0  0.44174  0.84359  0.89341  1.0000
  C   C799      1.0  0.47279  0.71620  0.86528  1.0000
  C   C800      1.0  0.36232  0.89895  0.88565  1.0000
  N   N40       1.0  0.45694  0.57235  0.51286  1.0000
  C   C801      1.0  0.47374  0.55885  0.67790  1.0000
  H   H1396     1.0  0.44541  0.58405  0.67271  1.0000
  H   H1397     1.0  0.29514  0.66647  0.64424  1.0000
  C   C802      1.0  0.24694  0.49324  0.81972  1.0000
  H   H1398     1.0  0.44321  0.54228  0.77157  1.0000
  H   H1399     1.0  0.42475  0.55619  0.91353  1.0000
  H   H1400     1.0  0.45921  0.64560  0.84576  1.0000
  H   H1401     1.0  0.26491  0.61294  0.49832  1.0000
  H   H1402     1.0  0.24580  0.86511  0.91724  1.0000
  H   H1403     1.0  0.43517  0.86661  0.94882  1.0000
  H   H1404     1.0  0.33611  0.59674  0.48108  1.0000
  C   C803      1.0  0.45414  0.54074  0.52836  1.0000
  H   H1405     1.0  0.38024  0.90465  0.51603  1.0000
  H   H1406     1.0  0.41947  0.80210  0.80937  1.0000
  H   H1407     1.0  0.43330  0.62598  0.80796  1.0000
  H   H1408     1.0  0.40431  0.54668  0.51161  1.0000
  H   H1409     1.0  0.39793  0.88811  0.64196  1.0000
  C   C804      1.0  0.28252  0.86657  0.51057  1.0000
  H   H1410     1.0  0.43301  0.52897  0.54575  1.0000
  H   H1411     1.0  0.31004  0.48566  0.93293  1.0000
  H   H1412     1.0  0.46509  0.59048  0.90462  1.0000
  H   H1413     1.0  0.39729  0.73252  0.53434  1.0000
  C   C805      1.0  0.26751  0.78012  0.84155  1.0000
  N   N41       1.0  0.41446  0.95770  0.65359  1.0000
  H   H1414     1.0  0.26868  0.57548  0.75976  1.0000
  H   H1415     1.0  0.35962  0.49970  0.53921  1.0000
  C   C806      1.0  0.38822  0.92987  0.63108  1.0000
  C   C807      1.0  0.41513  0.94299  0.68801  1.0000
  C   C808      1.0  0.24477  0.69619  0.76835  1.0000
  C   C809      1.0  0.38345  0.89097  0.49360  1.0000
  H   H1416     1.0  0.46254  0.73807  0.65172  1.0000
  H   H1417     1.0  0.47399  0.76776  0.96742  1.0000
  H   H1418     1.0  0.35425  0.55180  0.53741  1.0000
  C   C810      1.0  0.27974  0.83840  0.95414  1.0000
  H   H1419     1.0  0.25475  0.65080  0.62654  1.0000
  H   H1420     1.0  0.29728  0.69468  0.58955  1.0000
  H   H1421     1.0  0.39382  0.95569  0.48684  1.0000
  S   S190      1.0  0.46900  0.52484  0.94601  1.0000
  C   C811      1.0  0.37644  0.70606  0.53244  1.0000
  H   H1422     1.0  0.46318  0.78738  0.91285  1.0000
  H   H1423     1.0  0.34813  0.72481  0.50755  1.0000
  H   H1424     1.0  0.29147  0.73217  0.93763  1.0000
  H   H1425     1.0  0.38471  0.98228  0.85292  1.0000
  H   H1426     1.0  0.30891  0.71148  0.77784  1.0000
  H   H1427     1.0  0.41624  0.58665  0.55904  1.0000
  H   H1428     1.0  0.33400  0.69123  0.73338  1.0000
  C   C812      1.0  0.32944  0.84805  0.92321  1.0000
  H   H1429     1.0  0.46393  0.91308  0.51442  1.0000
  H   H1430     1.0  0.26972  0.87236  0.48996  1.0000
  C   C813      1.0  0.44895  0.51200  0.50248  1.0000
  H   H1431     1.0  0.31039  0.76085  0.49463  1.0000
  C   C814      1.0  0.46497  0.59864  0.54132  1.0000
  C   C815      1.0  0.24914  0.49164  0.89134  1.0000
  C   C816      1.0  0.32268  0.78459  0.95634  1.0000
  S   S191      1.0  0.47087  0.88845  0.73913  1.0000
  N   N42       1.0  0.34606  0.50193  0.81602  1.0000
  C   C817      1.0  0.44498  0.59791  0.95194  1.0000
  N   N43       1.0  0.24059  0.66111  0.77146  1.0000
  H   H1432     1.0  0.40019  0.55930  0.97181  1.0000
  H   H1433     1.0  0.32449  0.50797  0.49219  1.0000
  C   C818      1.0  0.31644  0.67037  0.51633  1.0000
  H   H1434     1.0  0.23166  0.93018  0.67699  1.0000
  C   C819      1.0  0.27787  0.69315  0.51803  1.0000
  H   H1435     1.0  0.47115  0.82145  0.65534  1.0000
  C   C820      1.0  0.27030  0.66158  0.75716  1.0000
  H   H1436     1.0  0.34081  0.91405  0.49212  1.0000
  H   H1437     1.0  0.27796  0.78231  0.97404  1.0000
  C   C821      1.0  0.42048  0.59247  0.48291  1.0000
  H   H1438     1.0  0.44242  0.93234  0.74711  1.0000
  H   H1439     1.0  0.47396  0.61054  0.78568  1.0000
  H   H1440     1.0  0.46083  0.62595  0.95143  1.0000
  H   H1441     1.0  0.27432  0.62537  0.62264  1.0000
  C   C822      1.0  0.23461  0.61798  0.81777  1.0000
  H   H1442     1.0  0.46893  0.89866  0.92544  1.0000
  H   H1443     1.0  0.38012  0.69244  0.51040  1.0000
  N   N44       1.0  0.30851  0.83279  0.95430  1.0000
  C   C823      1.0  0.47527  0.72048  0.49329  1.0000
  C   C824      1.0  0.27831  0.65169  0.62244  1.0000
  C   C825      1.0  0.45847  0.84668  0.91505  1.0000
  H   H1444     1.0  0.47359  0.83909  0.83715  1.0000
  H   H1445     1.0  0.27843  0.49487  0.73978  1.0000
  C   C826      1.0  0.24061  0.95946  0.87386  1.0000
  H   H1446     1.0  0.40909  0.93851  0.76018  1.0000
  H   H1447     1.0  0.42786  0.87240  0.51984  1.0000
  C   C827      1.0  0.47454  0.81752  0.84924  1.0000
  H   H1448     1.0  0.23224  0.58870  0.86227  1.0000
  H   H1449     1.0  0.44158  0.60054  0.83679  1.0000
  C   C828      1.0  0.43669  0.96901  0.71680  1.0000
  H   H1450     1.0  0.32393  0.53448  0.86136  1.0000
  C   C829      1.0  0.28779  0.74271  0.48016  1.0000
  H   H1451     1.0  0.35212  0.90244  0.93887  1.0000
  H   H1452     1.0  0.34830  0.96160  0.82627  1.0000
  H   H1453     1.0  0.29357  0.88817  0.52964  1.0000
  H   H1454     1.0  0.23731  0.96592  0.51889  1.0000
  C   C830      1.0  0.42510  0.56276  0.49486  1.0000
  C   C831      1.0  0.30852  0.86009  0.49490  1.0000
  C   C832      1.0  0.23180  0.61239  0.85657  1.0000
  H   H1455     1.0  0.46955  0.78232  0.61036  1.0000
  S   S192      1.0  0.37183  0.48737  0.93882  1.0000
  H   H1456     1.0  0.42578  0.64759  0.96716  1.0000
  H   H1457     1.0  0.45868  0.64200  0.58777  1.0000
  H   H1458     1.0  0.46988  0.52060  0.48513  1.0000
  H   H1459     1.0  0.31325  0.50102  0.71520  1.0000
  C   C833      1.0  0.28270  0.70671  0.48082  1.0000
  H   H1460     1.0  0.47590  0.66497  0.76905  1.0000
  H   H1461     1.0  0.45552  0.72228  0.60766  1.0000
  Fe  Fe96      1.0  0.41712  0.48969  0.96280  1.0000
  H   H1462     1.0  0.47558  0.54686  0.54509  1.0000
  H   H1463     1.0  0.24216  0.75485  0.77705  1.0000
  H   H1464     1.0  0.47337  0.61841  0.61174  1.0000
  C   C834      1.0  0.23671  0.75846  0.85482  1.0000
  C   C835      1.0  0.23148  0.72866  0.87095  1.0000
  C   C836      1.0  0.47436  0.74025  0.62648  1.0000
  H   H1465     1.0  0.36783  0.55940  0.47670  1.0000
  H   H1466     1.0  0.29545  0.83759  0.47712  1.0000
  H   H1467     1.0  0.70737  0.41338  0.16446  1.0000
  H   H1468     1.0  0.49199  0.28579  0.04660  1.0000
  H   H1469     1.0  0.49138  0.38258  0.18552  1.0000
  H   H1470     1.0  0.71008  0.30838  0.00966  1.0000
  C   C837      1.0  0.50116  0.14647  0.22955  1.0000
  H   H1471     1.0  0.59346  0.12032  0.39871  1.0000
  Fe  Fe97      1.0  0.62213  0.21011  0.31213  1.0000
  S   S193      1.0  0.60972  0.24390  0.34433  1.0000
  S   S194      1.0  0.63776  0.17288  0.33286  1.0000
  Fe  Fe98      1.0  0.60621  0.23487  0.24679  1.0000
  S   S195      1.0  0.59505  0.27172  0.27417  1.0000
  S   S196      1.0  0.59975  0.22544  0.18946  1.0000
  Fe  Fe99      1.0  0.63928  0.28460  0.30655  1.0000
  S   S197      1.0  0.68201  0.33439  0.32760  1.0000
  Fe  Fe100     1.0  0.56550  0.22820  0.30985  1.0000
  H   H1472     1.0  0.51565  0.25786  0.18719  1.0000
  S   S198      1.0  0.65295  0.25117  0.27567  1.0000
  S   S199      1.0  0.57568  0.19112  0.28031  1.0000
  S   S200      1.0  0.65508  0.36424  0.11298  1.0000
  Fe  Fe101     1.0  0.65955  0.32753  0.43595  1.0000
  S   S201      1.0  0.63443  0.35360  0.46090  1.0000
  Fe  Fe102     1.0  0.59413  0.25984  0.42517  1.0000
  S   S202      1.0  0.56612  0.28267  0.45012  1.0000
  S   S203      1.0  0.56226  0.20070  0.41621  1.0000
  Fe  Fe103     1.0  0.59534  0.32974  0.41894  1.0000
  S   S204      1.0  0.57436  0.36351  0.39836  1.0000
  H   H1473     1.0  0.69115  0.05015  0.22409  1.0000
  S   S205      1.0  0.62231  0.30673  0.39200  1.0000
  H   H1474     1.0  0.57110  0.13905  0.44718  1.0000
  H   H1475     1.0  0.50084  0.07474  0.26167  1.0000
  C   C838      1.0  0.48078  0.12197  0.15469  1.0000
  H   H1476     1.0  0.49262  0.29205  0.26759  1.0000
  Fe  Fe104     1.0  0.52891  0.01515  0.44986  1.0000
  S   S206      1.0  0.54084  0.05128  0.40709  1.0000
  H   H1477     1.0  0.63064  0.13462  0.42296  1.0000
  C   C839      1.0  0.66997  0.00549  0.47223  1.0000
  Fe  Fe105     1.0  0.56030  0.01994  0.38096  1.0000
  S   S207      1.0  0.61357  0.03693  0.36466  1.0000
  C   C840      1.0  0.60395  0.46933  0.30316  1.0000
  H   H1478     1.0  0.72831  0.34470  0.06308  1.0000
  H   H1479     1.0  0.49561  0.34506  0.30263  1.0000
  H   H1480     1.0  0.71308  0.14103  0.19606  1.0000
  C   C841      1.0  0.51848  0.21997  0.21838  1.0000
  H   H1481     1.0  0.69220  0.48097  0.00126  1.0000
  C   C842      1.0  0.70511  0.08173  0.32295  1.0000
  C   C843      1.0  0.67748  0.06267  0.34366  1.0000
  C   C844      1.0  0.64723  0.06021  0.33626  1.0000
  C   C845      1.0  0.64469  0.07574  0.30647  1.0000
  C   C846      1.0  0.67205  0.09393  0.28522  1.0000
  H   H1482     1.0  0.67969  0.05015  0.36603  1.0000
  H   H1483     1.0  0.62169  0.07398  0.30004  1.0000
  H   H1484     1.0  0.66936  0.10525  0.26227  1.0000
  C   C847      1.0  0.61406  0.26427  0.16905  1.0000
  C   C848      1.0  0.63335  0.29514  0.18704  1.0000
  C   C849      1.0  0.64570  0.32594  0.16982  1.0000
  C   C850      1.0  0.63897  0.32581  0.13459  1.0000
  C   C851      1.0  0.61949  0.29491  0.11676  1.0000
  C   C852      1.0  0.60662  0.26425  0.13416  1.0000
  H   H1485     1.0  0.63915  0.29533  0.21409  1.0000
  H   H1486     1.0  0.66054  0.34981  0.18377  1.0000
  H   H1487     1.0  0.61429  0.29462  0.08959  1.0000
  H   H1488     1.0  0.59085  0.24051  0.12066  1.0000
  H   H1489     1.0  0.62933  0.07052  0.43462  1.0000
  H   H1490     1.0  0.49334  0.18105  0.41874  1.0000
  C   C853      1.0  0.64129  0.08367  0.45944  1.0000
  C   C854      1.0  0.68902  0.39238  0.29645  1.0000
  C   C855      1.0  0.69295  0.37791  0.32629  1.0000
  C   C856      1.0  0.55332  0.98501  0.27238  1.0000
  C   C857      1.0  0.72764  0.21049  0.45536  1.0000
  H   H1491     1.0  0.67623  0.37622  0.27425  1.0000
  H   H1492     1.0  0.70673  0.25887  0.38314  1.0000
  H   H1493     1.0  0.62896  0.44553  0.00266  1.0000
  C   C858      1.0  0.67286  0.17137  0.34687  1.0000
  C   C859      1.0  0.66864  0.14179  0.36262  1.0000
  C   C860      1.0  0.69553  0.13942  0.37480  1.0000
  Fe  Fe106     1.0  0.64184  0.35509  0.05660  1.0000
  H   H1494     1.0  0.52572  0.01489  0.20634  1.0000
  H   H1495     1.0  0.64430  0.12040  0.36540  1.0000
  H   H1496     1.0  0.69166  0.11682  0.38764  1.0000
  H   H1497     1.0  0.61639  0.45835  0.43324  1.0000
  C   C861      1.0  0.52060  0.09542  0.35583  1.0000
  C   C862      1.0  0.55032  0.12379  0.34626  1.0000
  C   C863      1.0  0.56326  0.15602  0.36384  1.0000
  C   C864      1.0  0.54716  0.16099  0.39158  1.0000
  C   C865      1.0  0.51794  0.13275  0.40133  1.0000
  C   C866      1.0  0.50506  0.10073  0.38414  1.0000
  C   C867      1.0  0.48852  0.42359  0.20998  1.0000
  H   H1498     1.0  0.58613  0.17679  0.35640  1.0000
  H   H1499     1.0  0.50458  0.13589  0.42182  1.0000
  H   H1500     1.0  0.52939  0.31338  0.45503  1.0000
  C   C868      1.0  0.50947  0.39212  0.33030  1.0000
  C   C869      1.0  0.52912  0.41315  0.35778  1.0000
  C   C870      1.0  0.54839  0.40395  0.37812  1.0000
  C   C871      1.0  0.54878  0.37343  0.37167  1.0000
  C   C872      1.0  0.52929  0.35232  0.34412  1.0000
  C   C873      1.0  0.51030  0.36180  0.32355  1.0000
  H   H1501     1.0  0.52941  0.43659  0.36361  1.0000
  H   H1502     1.0  0.56303  0.42074  0.39916  1.0000
  H   H1503     1.0  0.52894  0.32868  0.33847  1.0000
  H   H1504     1.0  0.56353  0.43836  0.26720  1.0000
  H   H1505     1.0  0.65871  0.01381  0.20124  1.0000
  H   H1506     1.0  0.64738  0.22914  0.43041  1.0000
  H   H1507     1.0  0.48474  0.05276  0.44078  1.0000
  H   H1508     1.0  0.65863  0.00062  0.44602  1.0000
  H   H1509     1.0  0.56320  0.01430  0.20014  1.0000
  H   H1510     1.0  0.55233  0.03808  0.17175  1.0000
  N   N45       1.0  0.58867  0.16353  0.07348  1.0000
  C   C874      1.0  0.62026  0.19119  0.05910  1.0000
  C   C875      1.0  0.58000  0.13077  0.05409  1.0000
  C   C876      1.0  0.56274  0.17320  0.06736  1.0000
  C   C877      1.0  0.59395  0.16158  0.11168  1.0000
  C   C878      1.0  0.56757  0.13001  0.13016  1.0000
  C   C879      1.0  0.63191  0.22786  0.07312  1.0000
  C   C880      1.0  0.52712  0.14389  0.06164  1.0000
  C   C881      1.0  0.60522  0.11860  0.05659  1.0000
  C   C882      1.0  0.59140  0.08266  0.04104  1.0000
  C   C883      1.0  0.57709  0.13018  0.16788  1.0000
  C   C884      1.0  0.66449  0.25354  0.05789  1.0000
  C   C885      1.0  0.50350  0.15752  0.05999  1.0000
  H   H1511     1.0  0.61832  0.19155  0.03047  1.0000
  H   H1512     1.0  0.64049  0.18618  0.06452  1.0000
  H   H1513     1.0  0.55641  0.10949  0.06271  1.0000
  H   H1514     1.0  0.57611  0.13328  0.02616  1.0000
  H   H1515     1.0  0.56814  0.18876  0.04392  1.0000
  H   H1516     1.0  0.56285  0.18991  0.08881  1.0000
  H   H1517     1.0  0.61771  0.16293  0.11656  1.0000
  H   H1518     1.0  0.59593  0.18412  0.12591  1.0000
  H   H1519     1.0  0.56424  0.10612  0.11810  1.0000
  H   H1520     1.0  0.54419  0.12978  0.13000  1.0000
  H   H1521     1.0  0.61415  0.23606  0.06641  1.0000
  H   H1522     1.0  0.63535  0.22941  0.10149  1.0000
  H   H1523     1.0  0.51938  0.12524  0.08226  1.0000
  H   H1524     1.0  0.52458  0.12999  0.03686  1.0000
  H   H1525     1.0  0.62738  0.13556  0.04201  1.0000
  H   H1526     1.0  0.61234  0.11817  0.08377  1.0000
  H   H1527     1.0  0.60879  0.99804  0.30319  1.0000
  H   H1528     1.0  0.56945  0.06426  0.05518  1.0000
  H   H1529     1.0  0.58477  0.08195  0.01337  1.0000
  H   H1530     1.0  0.57878  0.15240  0.18237  1.0000
  H   H1531     1.0  0.55836  0.10660  0.18008  1.0000
  H   H1532     1.0  0.60080  0.13094  0.16965  1.0000
  H   H1533     1.0  0.67198  0.27942  0.06852  1.0000
  H   H1534     1.0  0.68366  0.24729  0.06454  1.0000
  H   H1535     1.0  0.66219  0.25387  0.02942  1.0000
  H   H1536     1.0  0.70828  0.22174  0.33171  1.0000
  H   H1537     1.0  0.71547  0.25741  0.99049  1.0000
  C   C886      1.0  0.52556  0.40711  0.99800  1.0000
  S   S208      1.0  0.56054  0.37396  0.00165  1.0000
  S   S209      1.0  0.50191  0.04812  0.10018  1.0000
  H   H1538     1.0  0.64176  0.02161  0.25912  1.0000
  C   C887      1.0  0.66052  0.24075  0.40642  1.0000
  H   H1539     1.0  0.48422  0.19475  0.17573  1.0000
  H   H1540     1.0  0.64681  0.22311  0.38459  1.0000
  H   H1541     1.0  0.60989  0.07456  0.04292  1.0000
  H   H1542     1.0  0.66112  0.26525  0.40254  1.0000
  Fe  Fe107     1.0  0.48951  0.01459  0.38534  1.0000
  H   H1543     1.0  0.65933  0.11052  0.45395  1.0000
  C   C888      1.0  0.53448  0.25336  0.19904  1.0000
  H   H1544     1.0  0.50282  0.21201  0.45283  1.0000
  Fe  Fe108     1.0  0.60257  0.36268  0.99874  1.0000
  C   C889      1.0  0.67633  0.16992  0.21810  1.0000
  C   C890      1.0  0.65203  0.17430  0.24129  1.0000
  H   H1545     1.0  0.66523  0.43054  0.37036  1.0000
  C   C891      1.0  0.62300  0.13984  0.25046  1.0000
  H   H1546     1.0  0.50702  0.35179  0.44073  1.0000
  H   H1547     1.0  0.51134  0.16373  0.25269  1.0000
  H   H1548     1.0  0.49882  0.30427  0.98969  1.0000
  H   H1549     1.0  0.66441  0.16067  0.19226  1.0000
  H   H1550     1.0  0.67851  0.14852  0.22844  1.0000
  H   H1551     1.0  0.64242  0.18891  0.22791  1.0000
  H   H1552     1.0  0.66376  0.18816  0.26571  1.0000
  H   H1553     1.0  0.66276  0.20901  0.17503  1.0000
  H   H1554     1.0  0.66961  0.45898  0.31601  1.0000
  H   H1555     1.0  0.51843  0.18848  0.17646  1.0000
  S   S210      1.0  0.54196  0.48093  0.42648  1.0000
  C   C892      1.0  0.54640  0.39859  0.98020  1.0000
  H   H1556     1.0  0.60403  0.14367  0.26300  1.0000
  H   H1557     1.0  0.61210  0.12305  0.22729  1.0000
  H   H1558     1.0  0.63078  0.12694  0.26910  1.0000
  H   H1559     1.0  0.67301  0.26171  0.14765  1.0000
  C   C893      1.0  0.71012  0.39942  0.35462  1.0000
  H   H1560     1.0  0.61874  0.16469  0.40909  1.0000
  H   H1561     1.0  0.62986  0.47192  0.36988  1.0000
  C   C894      1.0  0.70345  0.42809  0.29475  1.0000
  H   H1562     1.0  0.67601  0.02105  0.27861  1.0000
  N   N46       1.0  0.63293  0.46659  0.29185  1.0000
  H   H1563     1.0  0.67727  0.06831  0.45771  1.0000
  C   C895      1.0  0.51373  0.42677  0.98258  1.0000
  H   H1564     1.0  0.50662  0.98610  0.14677  1.0000
  C   C896      1.0  0.62270  0.43388  0.27167  1.0000
  C   C897      1.0  0.60303  0.40061  0.29154  1.0000
  C   C898      1.0  0.65769  0.01030  0.25725  1.0000
  H   H1565     1.0  0.72032  0.16044  0.46582  1.0000
  C   C899      1.0  0.63692  0.45444  0.35719  1.0000
  C   C900      1.0  0.72393  0.43494  0.35320  1.0000
  C   C901      1.0  0.59045  0.36922  0.26758  1.0000
  H   H1566     1.0  0.53788  0.21781  0.23220  1.0000
  H   H1567     1.0  0.52617  0.11791  0.27709  1.0000
  H   H1568     1.0  0.52948  0.10584  0.23310  1.0000
  H   H1569     1.0  0.58914  0.44993  0.32217  1.0000
  C   C902      1.0  0.67607  0.02190  0.22347  1.0000
  Fe  Fe109     1.0  0.49271  0.44902  0.40031  1.0000
  H   H1570     1.0  0.58085  0.10713  0.45967  1.0000
  H   H1571     1.0  0.64742  0.43955  0.40651  1.0000
  H   H1572     1.0  0.60831  0.43235  0.24827  1.0000
  H   H1573     1.0  0.64437  0.43334  0.26177  1.0000
  H   H1574     1.0  0.58170  0.39976  0.30398  1.0000
  H   H1575     1.0  0.61883  0.39845  0.31140  1.0000
  Fe  Fe110     1.0  0.61716  0.30327  0.99582  1.0000
  H   H1576     1.0  0.51882  0.07401  0.46948  1.0000
  H   H1577     1.0  0.68999  0.48170  0.25625  1.0000
  N   N47       1.0  0.70975  0.20082  0.21516  1.0000
  C   C903      1.0  0.48099  0.02865  0.16601  1.0000
  H   H1578     1.0  0.61463  0.42944  0.35369  1.0000
  H   H1579     1.0  0.52352  0.40387  0.46925  1.0000
  H   H1580     1.0  0.71254  0.28536  0.16823  1.0000
  H   H1581     1.0  0.51880  0.39878  0.02414  1.0000
  H   H1582     1.0  0.61103  0.36844  0.25489  1.0000
  H   H1583     1.0  0.57702  0.34589  0.28293  1.0000
  H   H1584     1.0  0.57353  0.36918  0.24767  1.0000
  H   H1585     1.0  0.54949  0.27486  0.21738  1.0000
  C   C904      1.0  0.70763  0.23211  0.20763  1.0000
  H   H1586     1.0  0.50379  0.17039  0.08476  1.0000
  H   H1587     1.0  0.49587  0.11304  0.16784  1.0000
  C   C905      1.0  0.50731  0.28628  0.98287  1.0000
  C   C906      1.0  0.65860  0.06661  0.47596  1.0000
  H   H1588     1.0  0.69244  0.01120  0.22002  1.0000
  C   C907      1.0  0.57962  0.46576  0.27426  1.0000
  H   H1589     1.0  0.54699  0.46896  0.31132  1.0000
  H   H1590     1.0  0.49222  0.23336  0.98079  1.0000
  H   H1591     1.0  0.49308  0.15642  0.47465  1.0000
  H   H1592     1.0  0.52783  0.29178  0.00060  1.0000
  C   C908      1.0  0.65402  0.46990  0.32275  1.0000
  H   H1593     1.0  0.69318  0.22118  0.40784  1.0000
  C   C909      1.0  0.68826  0.23030  0.17454  1.0000
  H   H1594     1.0  0.65263  0.99413  0.32574  1.0000
  H   H1595     1.0  0.70147  0.43913  0.27115  1.0000
  C   C910      1.0  0.48271  0.38735  0.21035  1.0000
  C   C911      1.0  0.51243  0.10181  0.25431  1.0000
  S   S211      1.0  0.71618  0.35808  0.43982  1.0000
  H   H1596     1.0  0.66425  0.98487  0.38712  1.0000
  H   H1597     1.0  0.71646  0.21445  0.26973  1.0000
  H   H1598     1.0  0.68251  0.47406  0.38663  1.0000
  C   C912      1.0  0.50355  0.30530  0.45888  1.0000
  C   C913      1.0  0.59132  0.13411  0.45238  1.0000
  C   C914      1.0  0.50765  0.25081  0.06217  1.0000
  C   C915      1.0  0.70279  0.09794  0.29357  1.0000
  C   C916      1.0  0.52828  0.27542  0.09151  1.0000
  H   H1599     1.0  0.50444  0.04923  0.17473  1.0000
  H   H1600     1.0  0.49801  0.38650  0.23164  1.0000
  S   S212      1.0  0.50978  0.05254  0.00087  1.0000
  S   S213      1.0  0.51154  0.98601  0.35540  1.0000
  H   H1601     1.0  0.70091  0.41479  0.21004  1.0000
  S   S214      1.0  0.59232  0.31973  0.03430  1.0000
  H   H1602     1.0  0.51500  0.44169  0.20798  1.0000
  C   C917      1.0  0.49959  0.18897  0.19303  1.0000
  H   H1603     1.0  0.53930  0.30226  0.08349  1.0000
  H   H1604     1.0  0.51316  0.27184  0.11455  1.0000
  H   H1605     1.0  0.54821  0.27053  0.09884  1.0000
  H   H1606     1.0  0.56020  0.37193  0.46398  1.0000
  S   S215      1.0  0.63245  0.28049  0.46813  1.0000
  H   H1607     1.0  0.56989  0.01292  0.27589  1.0000
  C   C918      1.0  0.62882  0.46208  0.98210  1.0000
  H   H1608     1.0  0.52270  0.15169  0.21384  1.0000
  H   H1609     1.0  0.69555  0.02606  0.00118  1.0000
  H   H1610     1.0  0.52367  0.25285  0.04048  1.0000
  H   H1611     1.0  0.72596  0.18273  0.25835  1.0000
  C   C919      1.0  0.61513  0.48096  0.44230  1.0000
  H   H1612     1.0  0.55049  0.25285  0.17859  1.0000
  H   H1613     1.0  0.67621  0.26803  0.19382  1.0000
  H   H1614     1.0  0.60667  0.46428  0.98512  1.0000
  H   H1615     1.0  0.69988  0.22700  0.15116  1.0000
  H   H1616     1.0  0.50248  0.22202  0.23786  1.0000
  C   C920      1.0  0.70452  0.19861  0.34327  1.0000
  S   S216      1.0  0.51484  0.22370  0.31881  1.0000
  S   S217      1.0  0.65114  0.39897  0.02394  1.0000
  H   H1617     1.0  0.49695  0.22483  0.07256  1.0000
  H   H1618     1.0  0.69709  0.23889  0.22993  1.0000
  H   H1619     1.0  0.56367  0.12090  0.32519  1.0000
  C   C921      1.0  0.48613  0.10979  0.24317  1.0000
  H   H1620     1.0  0.65408  0.00885  0.98627  1.0000
  H   H1621     1.0  0.51020  0.17590  0.03891  1.0000
  C   C922      1.0  0.68754  0.26340  0.17088  1.0000
  H   H1622     1.0  0.71293  0.38853  0.37785  1.0000
  S   S218      1.0  0.48489  0.40297  0.30266  1.0000
  H   H1623     1.0  0.63104  0.18257  0.46937  1.0000
  C   C923      1.0  0.69499  0.24639  0.40752  1.0000
  H   H1624     1.0  0.70100  0.20060  0.45572  1.0000
  C   C924      1.0  0.48007  0.24855  0.98546  1.0000
  C   C925      1.0  0.54254  0.01445  0.18674  1.0000
  S   S219      1.0  0.60672  0.24876  0.98536  1.0000
  H   H1625     1.0  0.49790  0.43322  0.99680  1.0000
  C   C926      1.0  0.65956  0.44960  0.38167  1.0000
  H   H1626     1.0  0.71593  0.29418  0.43400  1.0000
  H   H1627     1.0  0.49426  0.30041  0.40329  1.0000
  H   H1628     1.0  0.71212  0.18693  0.16197  1.0000
  C   C927      1.0  0.49967  0.33700  0.46499  1.0000
  S   S220      1.0  0.50390  0.05487  0.33129  1.0000
  S   S221      1.0  0.66625  0.33557  0.02160  1.0000
  C   C928      1.0  0.60976  0.13876  0.41890  1.0000
  H   H1629     1.0  0.69883  0.25943  0.46208  1.0000
  C   C929      1.0  0.67181  0.00230  0.99729  1.0000
  C   C930      1.0  0.71440  0.26936  0.43902  1.0000
  H   H1630     1.0  0.62113  0.01676  0.45907  1.0000
  H   H1631     1.0  0.48239  0.08065  0.39253  1.0000
  H   H1632     1.0  0.59164  0.47934  0.25065  1.0000
  H   H1633     1.0  0.72405  0.32239  0.37851  1.0000
  C   C931      1.0  0.48496  0.28463  0.42657  1.0000
  Fe  Fe111     1.0  0.67283  0.37720  0.98706  1.0000
  H   H1634     1.0  0.53858  0.47376  0.26729  1.0000
  H   H1635     1.0  0.48868  0.26245  0.42293  1.0000
  C   C932      1.0  0.72718  0.16630  0.37052  1.0000
  C   C933      1.0  0.48330  0.18751  0.44154  1.0000
  H   H1636     1.0  0.49696  0.14493  0.14007  1.0000
  C   C934      1.0  0.65957  0.98746  0.03276  1.0000
  C   C935      1.0  0.72789  0.20679  0.24911  1.0000
  C   C936      1.0  0.48042  0.25795  0.05014  1.0000
  C   C937      1.0  0.72122  0.44957  0.32306  1.0000
  C   C938      1.0  0.49200  0.06104  0.46805  1.0000
  H   H1637     1.0  0.48345  0.15697  0.35251  1.0000
  H   H1638     1.0  0.65747  0.00643  0.04947  1.0000
  H   H1639     1.0  0.49813  0.11111  0.47172  1.0000
  H   H1640     1.0  0.69316  0.03002  0.47013  1.0000
  H   H1641     1.0  0.72395  0.37764  0.19636  1.0000
  Fe  Fe112     1.0  0.48184  0.99874  0.97936  1.0000
  H   H1642     1.0  0.72809  0.08363  0.32965  1.0000
  C   C939      1.0  0.72717  0.19436  0.18608  1.0000
  C   C940      1.0  0.71982  0.42215  0.19006  1.0000
  H   H1643     1.0  0.48180  0.33249  0.23466  1.0000
  C   C941      1.0  0.55830  0.48015  0.28650  1.0000
  H   H1644     1.0  0.59422  0.47211  0.45980  1.0000
  H   H1645     1.0  0.72874  0.29646  0.25714  1.0000
  H   H1646     1.0  0.47985  0.42974  0.23416  1.0000
  H   H1647     1.0  0.48964  0.43214  0.47587  1.0000
  C   C942      1.0  0.68163  0.19665  0.77223  1.0000
  C   C943      1.0  0.57996  0.40496  0.50753  1.0000
  C   C944      1.0  0.55488  0.12921  0.55818  1.0000
  H   H1648     1.0  0.50457  0.30050  0.83133  1.0000
  S   S222      1.0  0.51339  0.44318  0.67523  1.0000
  H   H1649     1.0  0.68601  0.01894  0.87320  1.0000
  H   H1650     1.0  0.53620  0.17481  0.73726  1.0000
  H   H1651     1.0  0.52474  0.36590  0.86180  1.0000
  H   H1652     1.0  0.51042  0.35503  0.61760  1.0000
  H   H1653     1.0  0.49309  0.15920  0.68719  1.0000
  H   H1654     1.0  0.69814  0.44609  0.59399  1.0000
  H   H1655     1.0  0.66015  0.38928  0.66363  1.0000
  N   N48       1.0  0.64869  0.00904  0.49897  1.0000
  H   H1656     1.0  0.60054  0.23016  0.53179  1.0000
  H   H1657     1.0  0.65884  0.24776  0.57279  1.0000
  S   S223      1.0  0.62478  0.34391  0.95820  1.0000
  Fe  Fe113     1.0  0.67757  0.30407  0.81663  1.0000
  S   S224      1.0  0.66149  0.33713  0.84593  1.0000
  S   S225      1.0  0.69085  0.26733  0.84346  1.0000
  Fe  Fe114     1.0  0.65883  0.31991  0.74592  1.0000
  S   S226      1.0  0.64173  0.35330  0.77026  1.0000
  S   S227      1.0  0.66205  0.30843  0.68837  1.0000
  Fe  Fe115     1.0  0.68682  0.37564  0.80442  1.0000
  H   H1658     1.0  0.55147  0.23328  0.53627  1.0000
  Fe  Fe116     1.0  0.61731  0.31309  0.81039  1.0000
  S   S228      1.0  0.56580  0.30292  0.82343  1.0000
  S   S229      1.0  0.70566  0.34421  0.77753  1.0000
  S   S230      1.0  0.63167  0.27813  0.78348  1.0000
  S   S231      1.0  0.59137  0.30790  0.54679  1.0000
  H   H1659     1.0  0.48702  0.00618  0.56029  1.0000
  Fe  Fe117     1.0  0.53436  0.01035  0.70263  1.0000
  H   H1660     1.0  0.65819  0.23273  0.96944  1.0000
  H   H1661     1.0  0.55869  0.16147  0.79021  1.0000
  H   H1662     1.0  0.72576  0.24455  0.95012  1.0000
  H   H1663     1.0  0.57764  0.32725  0.73197  1.0000
  S   S232      1.0  0.63568  0.02160  0.76287  1.0000
  C   C945      1.0  0.57020  0.17965  0.97354  1.0000
  H   H1664     1.0  0.69495  0.46615  0.68278  1.0000
  Fe  Fe118     1.0  0.53200  0.43082  0.72284  1.0000
  S   S233      1.0  0.50429  0.38135  0.75157  1.0000
  S   S234      1.0  0.58358  0.02114  0.68395  1.0000
  C   C946      1.0  0.55456  0.40922  0.94622  1.0000
  C   C947      1.0  0.55099  0.01388  0.53150  1.0000
  C   C948      1.0  0.56758  0.02836  0.56265  1.0000
  H   H1665     1.0  0.50124  0.31616  0.59486  1.0000
  H   H1666     1.0  0.49349  0.17977  0.62835  1.0000
  H   H1667     1.0  0.54195  0.12477  0.96782  1.0000
  H   H1668     1.0  0.65620  0.18458  0.76216  1.0000
  H   H1669     1.0  0.57790  0.05529  0.56800  1.0000
  C   C949      1.0  0.49977  0.33975  0.59335  1.0000
  C   C950      1.0  0.50278  0.27902  0.84481  1.0000
  C   C951      1.0  0.48899  0.21828  0.77041  1.0000
  C   C952      1.0  0.64080  0.30692  0.64969  1.0000
  C   C953      1.0  0.65091  0.29957  0.61813  1.0000
  C   C954      1.0  0.63630  0.30002  0.58646  1.0000
  C   C955      1.0  0.61073  0.30700  0.58598  1.0000
  C   C956      1.0  0.59990  0.31327  0.61762  1.0000
  C   C957      1.0  0.61505  0.31363  0.64926  1.0000
  H   H1670     1.0  0.67089  0.29451  0.61815  1.0000
  H   H1671     1.0  0.64489  0.29517  0.56239  1.0000
  H   H1672     1.0  0.57995  0.31839  0.61759  1.0000
  H   H1673     1.0  0.60706  0.31945  0.67322  1.0000
  C   C958      1.0  0.48071  0.08547  0.48059  1.0000
  H   H1674     1.0  0.60743  0.38587  0.60876  1.0000
  H   H1675     1.0  0.63882  0.00295  0.83540  1.0000
  N   N49       1.0  0.70365  0.43433  0.64681  1.0000
  C   C959      1.0  0.56973  0.18877  0.79812  1.0000
  H   H1676     1.0  0.48186  0.08605  0.50916  1.0000
  H   H1677     1.0  0.61492  0.02819  0.50091  1.0000
  C   C960      1.0  0.52985  0.27410  0.84583  1.0000
  C   C961      1.0  0.65246  0.45080  0.74752  1.0000
  H   H1678     1.0  0.68933  0.09345  0.84767  1.0000
  H   H1679     1.0  0.66215  0.39455  0.61812  1.0000
  H   H1680     1.0  0.63008  0.14719  0.48947  1.0000
  H   H1681     1.0  0.50224  0.14546  0.62746  1.0000
  C   C962      1.0  0.53438  0.09336  0.57198  1.0000
  H   H1682     1.0  0.69735  0.21534  0.87748  1.0000
  H   H1683     1.0  0.57378  0.21393  0.73488  1.0000
  H   H1684     1.0  0.59281  0.40635  0.63801  1.0000
  C   C963      1.0  0.51164  0.17236  0.63599  1.0000
  C   C964      1.0  0.70745  0.05751  0.69113  1.0000
  C   C965      1.0  0.67664  0.04234  0.70650  1.0000
  C   C966      1.0  0.67409  0.04012  0.74238  1.0000
  C   C967      1.0  0.70276  0.05292  0.76257  1.0000
  C   C968      1.0  0.71353  0.45881  0.61745  1.0000
  H   H1685     1.0  0.65485  0.03243  0.69055  1.0000
  H   H1686     1.0  0.70099  0.05109  0.79030  1.0000
  H   H1687     1.0  0.53031  0.27692  0.93850  1.0000
  C   C969      1.0  0.61449  0.15794  0.48156  1.0000
  C   C970      1.0  0.52717  0.24646  0.86396  1.0000
  H   H1688     1.0  0.68801  0.48066  0.95610  1.0000
  C   C971      1.0  0.51105  0.17799  0.96546  1.0000
  C   C972      1.0  0.48171  0.05360  0.74224  1.0000
  H   H1689     1.0  0.48157  0.03805  0.48407  1.0000
  H   H1690     1.0  0.55753  0.22739  0.67900  1.0000
  H   H1691     1.0  0.59504  0.20287  0.78866  1.0000
  H   H1692     1.0  0.53769  0.13782  0.55031  1.0000
  H   H1693     1.0  0.48600  0.17497  0.74191  1.0000
  S   S235      1.0  0.51739  0.04801  0.68775  1.0000
  H   H1694     1.0  0.53972  0.23308  0.97177  1.0000
  C   C973      1.0  0.71629  0.28682  0.94549  1.0000
  H   H1695     1.0  0.49607  0.20270  0.89414  1.0000
  H   H1696     1.0  0.50606  0.36966  0.82326  1.0000
  H   H1697     1.0  0.55031  0.08415  0.58242  1.0000
  H   H1698     1.0  0.58023  0.42536  0.49217  1.0000
  S   S236      1.0  0.53942  0.98969  0.75332  1.0000
  C   C974      1.0  0.57106  0.00809  0.58694  1.0000
  C   C975      1.0  0.66971  0.02703  0.53043  1.0000
  H   H1699     1.0  0.51808  0.38456  0.56356  1.0000
  H   H1700     1.0  0.59313  0.18011  0.97560  1.0000
  H   H1701     1.0  0.60501  0.41349  0.76417  1.0000
  H   H1702     1.0  0.55977  0.22991  0.79483  1.0000
  H   H1703     1.0  0.67063  0.21188  0.51092  1.0000
  C   C976      1.0  0.52902  0.38162  0.83872  1.0000
  H   H1704     1.0  0.54765  0.28125  0.68677  1.0000
  C   C977      1.0  0.67489  0.22540  0.95704  1.0000
  H   H1705     1.0  0.68966  0.36702  0.61854  1.0000
  H   H1706     1.0  0.71859  0.01750  0.82155  1.0000
  H   H1707     1.0  0.48173  0.31497  0.77874  1.0000
  C   C978      1.0  0.63412  0.02897  0.48392  1.0000
  S   S237      1.0  0.50760  0.46251  0.92828  1.0000
  H   H1708     1.0  0.69923  0.11311  0.78841  1.0000
  H   H1709     1.0  0.65776  0.01268  0.92955  1.0000
  C   C979      1.0  0.71472  0.11120  0.83993  1.0000
  C   C980      1.0  0.65311  0.03570  0.56022  1.0000
  C   C981      1.0  0.67784  0.05701  0.58872  1.0000
  H   H1710     1.0  0.64168  0.05033  0.55111  1.0000
  C   C982      1.0  0.54005  0.20946  0.97121  1.0000
  H   H1711     1.0  0.66528  0.06209  0.61018  1.0000
  H   H1712     1.0  0.67416  0.47473  0.75697  1.0000
  H   H1713     1.0  0.69683  0.08174  0.57865  1.0000
  N   N50       1.0  0.59856  0.16379  0.51262  1.0000
  C   C983      1.0  0.62512  0.18379  0.53921  1.0000
  C   C984      1.0  0.57504  0.12941  0.52678  1.0000
  H   H1714     1.0  0.68094  0.19600  0.80086  1.0000
  H   H1715     1.0  0.64371  0.43286  0.67101  1.0000
  H   H1716     1.0  0.61533  0.38941  0.52044  1.0000
  H   H1717     1.0  0.70867  0.47984  0.62431  1.0000
  C   C985      1.0  0.48470  0.99588  0.58652  1.0000
  Fe  Fe119     1.0  0.56363  0.46079  0.65584  1.0000
  H   H1718     1.0  0.52940  0.41012  0.51443  1.0000
  H   H1719     1.0  0.48827  0.17752  0.96144  1.0000
  C   C986      1.0  0.67422  0.24113  0.55660  1.0000
  H   H1720     1.0  0.69452  0.26506  0.54659  1.0000
  H   H1721     1.0  0.63542  0.16802  0.54866  1.0000
  H   H1722     1.0  0.61541  0.18970  0.56263  1.0000
  H   H1723     1.0  0.55666  0.11322  0.50681  1.0000
  H   H1724     1.0  0.58810  0.11551  0.53352  1.0000
  Fe  Fe120     1.0  0.60608  0.30580  0.49059  1.0000
  C   C987      1.0  0.55003  0.25671  0.73409  1.0000
  H   H1725     1.0  0.58726  0.44816  0.86445  1.0000
  H   H1726     1.0  0.49137  0.04115  0.75796  1.0000
  H   H1727     1.0  0.72808  0.12854  0.86219  1.0000
  C   C988      1.0  0.71404  0.38965  0.61583  1.0000
  C   C989      1.0  0.54246  0.42871  0.93072  1.0000
  H   H1728     1.0  0.59347  0.19891  0.47933  1.0000
  C   C990      1.0  0.52080  0.29397  0.94637  1.0000
  C   C991      1.0  0.55085  0.21345  0.51850  1.0000
  H   H1729     1.0  0.57066  0.14568  0.57977  1.0000
  C   C992      1.0  0.66763  0.40876  0.64330  1.0000
  H   H1730     1.0  0.50179  0.15202  0.85600  1.0000
  N   N51       1.0  0.68566  0.98737  0.93711  1.0000
  C   C993      1.0  0.49611  0.20269  0.73776  1.0000
  H   H1731     1.0  0.58414  0.01951  0.61082  1.0000
  S   S238      1.0  0.54562  0.03965  0.50269  1.0000
  H   H1732     1.0  0.55869  0.35010  0.50188  1.0000
  C   C994      1.0  0.61412  0.40971  0.50609  1.0000
  H   H1733     1.0  0.55453  0.22291  0.49178  1.0000
  H   H1734     1.0  0.68451  0.22875  0.57279  1.0000
  H   H1735     1.0  0.54736  0.35719  0.80529  1.0000
  H   H1736     1.0  0.70320  0.14658  0.81805  1.0000
  C   C995      1.0  0.54830  0.20242  0.74418  1.0000
  S   S239      1.0  0.71245  0.43447  0.80585  1.0000
  H   H1737     1.0  0.54109  0.32069  0.94542  1.0000
  H   H1738     1.0  0.54302  0.32795  0.71356  1.0000
  H   H1739     1.0  0.54776  0.24242  0.86553  1.0000
  C   C996      1.0  0.50513  0.34037  0.52811  1.0000
  C   C997      1.0  0.51893  0.36059  0.56265  1.0000
  H   H1740     1.0  0.65136  0.44425  0.62649  1.0000
  H   H1741     1.0  0.71697  0.32573  0.88975  1.0000
  C   C998      1.0  0.71663  0.02142  0.93674  1.0000
  C   C999      1.0  0.56178  0.47222  0.57595  1.0000
  H   H1742     1.0  0.51896  0.09365  0.59330  1.0000
  H   H1743     1.0  0.63418  0.01211  0.57218  1.0000
  H   H1744     1.0  0.50338  0.24931  0.60956  1.0000
  C   C1000     1.0  0.72139  0.41447  0.64715  1.0000
  H   H1745     1.0  0.71088  0.28037  0.91751  1.0000
  H   H1746     1.0  0.69488  0.22363  0.76431  1.0000
  H   H1747     1.0  0.63187  0.43478  0.51804  1.0000
  H   H1748     1.0  0.51007  0.31887  0.52901  1.0000
  H   H1749     1.0  0.67119  0.20160  0.96868  1.0000
  H   H1750     1.0  0.54441  0.36648  0.56667  1.0000
  H   H1751     1.0  0.51137  0.26487  0.71157  1.0000
  H   H1752     1.0  0.71271  0.99979  0.72218  1.0000
  C   C1001     1.0  0.55068  0.31321  0.72979  1.0000
  H   H1753     1.0  0.48476  0.08152  0.66102  1.0000
  S   S240      1.0  0.58058  0.44417  0.70128  1.0000
  S   S241      1.0  0.57370  0.44964  0.60238  1.0000
  H   H1754     1.0  0.72719  0.18686  0.50403  1.0000
  H   H1755     1.0  0.71211  0.04212  0.94584  1.0000
  C   C1002     1.0  0.60924  0.39563  0.63570  1.0000
  H   H1756     1.0  0.49229  0.43366  0.52255  1.0000
  H   H1757     1.0  0.57628  0.26716  0.72824  1.0000
  H   H1758     1.0  0.51834  0.07531  0.55130  1.0000
  H   H1759     1.0  0.70190  0.13191  0.67345  1.0000
  C   C1003     1.0  0.65419  0.21752  0.52647  1.0000
  H   H1760     1.0  0.64442  0.45648  0.72298  1.0000
  C   C1004     1.0  0.55662  0.38309  0.81695  1.0000
  H   H1761     1.0  0.52453  0.18749  0.79405  1.0000
  H   H1762     1.0  0.71397  0.40135  0.59105  1.0000
  H   H1763     1.0  0.57065  0.19070  0.82678  1.0000
  C   C1005     1.0  0.53196  0.21325  0.68823  1.0000
  H   H1764     1.0  0.54859  0.43676  0.90453  1.0000
  C   C1006     1.0  0.71453  0.13154  0.80914  1.0000
  H   H1765     1.0  0.58395  0.46524  0.53088  1.0000
  S   S242      1.0  0.72204  0.41044  0.96170  1.0000
  H   H1766     1.0  0.57128  0.19436  0.55474  1.0000
  C   C1007     1.0  0.53831  0.27781  0.71347  1.0000
  H   H1767     1.0  0.53493  0.18868  0.62276  1.0000
  H   H1768     1.0  0.70904  0.05921  0.66335  1.0000
  H   H1769     1.0  0.70060  0.43429  0.70248  1.0000
  H   H1770     1.0  0.60083  0.37430  0.65380  1.0000
  C   C1008     1.0  0.48541  0.34047  0.73126  1.0000
  N   N52       1.0  0.51852  0.35997  0.49556  1.0000
  H   H1771     1.0  0.69732  0.29282  0.95419  1.0000
  H   H1772     1.0  0.53346  0.16574  0.68132  1.0000
  C   C1009     1.0  0.51690  0.17567  0.67516  1.0000
  H   H1773     1.0  0.54029  0.31123  0.75582  1.0000
  N   N53       1.0  0.53117  0.21878  0.72678  1.0000
  C   C1010     1.0  0.49768  0.22386  0.88015  1.0000
  H   H1774     1.0  0.69593  0.17651  0.72959  1.0000
  C   C1011     1.0  0.54938  0.20360  0.78413  1.0000
  H   H1775     1.0  0.54993  0.26259  0.76194  1.0000
  H   H1776     1.0  0.56989  0.40220  0.93188  1.0000
  C   C1012     1.0  0.56973  0.21038  0.97571  1.0000
  C   C1013     1.0  0.70927  0.45289  0.68123  1.0000
  C   C1014     1.0  0.64417  0.42326  0.64472  1.0000
  H   H1777     1.0  0.64586  0.23140  0.50990  1.0000
  C   C1015     1.0  0.52226  0.43789  0.94885  1.0000
  N   N54       1.0  0.61542  0.42893  0.83946  1.0000
  C   C1016     1.0  0.60263  0.45338  0.84137  1.0000
  C   C1017     1.0  0.58770  0.39241  0.83877  1.0000
  C   C1018     1.0  0.63533  0.43437  0.87198  1.0000
  C   C1019     1.0  0.63756  0.43538  0.80930  1.0000
  C   C1020     1.0  0.62505  0.43859  0.77359  1.0000
  C   C1021     1.0  0.51440  0.39088  0.49428  1.0000
  C   C1022     1.0  0.64659  0.40804  0.87753  1.0000
  H   H1778     1.0  0.51865  0.22392  0.67428  1.0000
  C   C1023     1.0  0.66975  0.41812  0.90838  1.0000
  H   H1779     1.0  0.50159  0.29073  0.92769  1.0000
  H   H1780     1.0  0.58633  0.44975  0.81916  1.0000
  H   H1781     1.0  0.59659  0.37523  0.82926  1.0000
  H   H1782     1.0  0.57951  0.38368  0.86543  1.0000
  H   H1783     1.0  0.62131  0.43395  0.89512  1.0000
  H   H1784     1.0  0.65774  0.45990  0.87237  1.0000
  H   H1785     1.0  0.66158  0.45876  0.81437  1.0000
  H   H1786     1.0  0.64334  0.41462  0.80608  1.0000
  H   H1787     1.0  0.61647  0.45721  0.77409  1.0000
  H   H1788     1.0  0.69187  0.05098  0.52313  1.0000
  H   H1789     1.0  0.67929  0.01140  0.54175  1.0000
  H   H1790     1.0  0.65963  0.40590  0.85493  1.0000
  H   H1791     1.0  0.62560  0.38237  0.88234  1.0000
  H   H1792     1.0  0.56123  0.39980  0.79489  1.0000
  H   H1793     1.0  0.65936  0.43103  0.74287  1.0000
  C   C1024     1.0  0.57738  0.20557  0.52894  1.0000
  C   C1025     1.0  0.58097  0.18219  0.50141  1.0000
  H   H1794     1.0  0.66850  0.22030  0.92909  1.0000
  H   H1795     1.0  0.65759  0.41878  0.93253  1.0000
  H   H1796     1.0  0.67731  0.39873  0.91051  1.0000
  H   H1797     1.0  0.69186  0.44327  0.90473  1.0000
  H   H1798     1.0  0.68376  0.15077  0.76665  1.0000
  H   H1799     1.0  0.50443  0.22074  0.79284  1.0000
  H   H1800     1.0  0.57511  0.40860  0.53465  1.0000
  C   C1026     1.0  0.65920  0.99058  0.91873  1.0000
  H   H1801     1.0  0.67102  0.08143  0.49986  1.0000
  C   C1027     1.0  0.51135  0.14710  0.96536  1.0000
  H   H1802     1.0  0.68968  0.04314  0.59910  1.0000
  C   C1028     1.0  0.49061  0.05988  0.70764  1.0000
  H   H1803     1.0  0.52660  0.19029  0.52021  1.0000
  C   C1029     1.0  0.54119  0.14820  0.96899  1.0000
  H   H1804     1.0  0.71392  0.13353  0.73476  1.0000
  H   H1805     1.0  0.55633  0.16356  0.49077  1.0000
  C   C1030     1.0  0.69802  0.17731  0.75815  1.0000
  C   C1031     1.0  0.63519  0.99905  0.86357  1.0000
  H   H1806     1.0  0.53431  0.40745  0.84689  1.0000
  C   C1032     1.0  0.56943  0.47537  0.54108  1.0000
  H   H1807     1.0  0.71513  0.39886  0.67077  1.0000
  H   H1808     1.0  0.62756  0.45005  0.95650  1.0000
  C   C1033     1.0  0.71029  0.25364  0.96233  1.0000
  H   H1809     1.0  0.72514  0.02804  0.90987  1.0000
  H   H1810     1.0  0.49327  0.24418  0.76552  1.0000
  H   H1811     1.0  0.63463  0.02129  0.87533  1.0000
  Fe  Fe121     1.0  0.58741  0.99741  0.73257  1.0000
  C   C1034     1.0  0.72037  0.23157  0.86540  1.0000
  S   S243      1.0  0.55032  0.48296  0.74801  1.0000
  C   C1035     1.0  0.72409  0.25931  0.84618  1.0000
  C   C1036     1.0  0.55400  0.37010  0.49170  1.0000
  H   H1812     1.0  0.50410  0.01594  0.60346  1.0000
  C   C1037     1.0  0.66296  0.99552  0.87916  1.0000
  H   H1813     1.0  0.48470  0.35788  0.68029  1.0000
  H   H1814     1.0  0.72637  0.09597  0.83311  1.0000
  C   C1038     1.0  0.72847  0.14486  0.66869  1.0000
  H   H1815     1.0  0.62100  0.40918  0.47882  1.0000
  H   H1816     1.0  0.72787  0.31154  0.49161  1.0000
  H   H1817     1.0  0.48070  0.20402  0.71676  1.0000
  C   C1039     1.0  0.47926  0.38432  0.49880  1.0000
  H   H1818     1.0  0.49449  0.28803  0.48098  1.0000
  H   H1819     1.0  0.62256  0.08316  0.47690  1.0000
  H   H1820     1.0  0.57980  0.96271  0.47544  1.0000
  H   H1821     1.0  0.56989  0.86041  0.19457  1.0000
  S   S244      1.0  0.50808  0.56096  0.33718  1.0000
  S   S245      1.0  0.63421  0.78295  0.47440  1.0000
  H   H1822     1.0  0.49357  0.74708  0.14746  1.0000
  H   H1823     1.0  0.65959  0.94326  0.37767  1.0000
  Fe  Fe122     1.0  0.62906  0.71754  0.31661  1.0000
  S   S246      1.0  0.60699  0.74557  0.34440  1.0000
  S   S247      1.0  0.64445  0.68197  0.34207  1.0000
  Fe  Fe123     1.0  0.61796  0.74049  0.24758  1.0000
  S   S248      1.0  0.59652  0.77069  0.27005  1.0000
  S   S249      1.0  0.61991  0.73322  0.19017  1.0000
  Fe  Fe124     1.0  0.63728  0.78876  0.30901  1.0000
  S   S250      1.0  0.66700  0.84293  0.33150  1.0000
  Fe  Fe125     1.0  0.56750  0.72541  0.30345  1.0000
  S   S251      1.0  0.51285  0.70775  0.29997  1.0000
  S   S252      1.0  0.66122  0.76182  0.28373  1.0000
  S   S253      1.0  0.58708  0.69446  0.27839  1.0000
  S   S254      1.0  0.61168  0.85171  0.11642  1.0000
  Fe  Fe126     1.0  0.66107  0.82997  0.44225  1.0000
  H   H1824     1.0  0.51188  0.49066  0.18002  1.0000
  Fe  Fe127     1.0  0.59432  0.76284  0.43379  1.0000
  H   H1825     1.0  0.52854  0.50430  0.22309  1.0000
  S   S255      1.0  0.56143  0.70420  0.42446  1.0000
  Fe  Fe128     1.0  0.59782  0.83385  0.43003  1.0000
  S   S256      1.0  0.57536  0.86682  0.41208  1.0000
  C   C1040     1.0  0.50180  0.80034  0.46893  1.0000
  S   S257      1.0  0.62170  0.80899  0.40017  1.0000
  H   H1826     1.0  0.52565  0.58318  0.11135  1.0000
  C   C1041     1.0  0.65886  0.49741  0.98527  1.0000
  H   H1827     1.0  0.49917  0.81301  0.16983  1.0000
  C   C1042     1.0  0.65266  0.49595  0.26826  1.0000
  Fe  Fe129     1.0  0.52112  0.51011  0.45209  1.0000
  S   S258      1.0  0.53549  0.54924  0.41220  1.0000
  C   C1043     1.0  0.55258  0.92675  0.98786  1.0000
  Fe  Fe130     1.0  0.48008  0.53972  0.00238  1.0000
  Fe  Fe131     1.0  0.55638  0.51974  0.38473  1.0000
  S   S259      1.0  0.60976  0.53801  0.36745  1.0000
  C   C1044     1.0  0.57247  0.96702  0.26408  1.0000
  S   S260      1.0  0.63538  0.81517  0.03675  1.0000
  H   H1828     1.0  0.50934  0.86101  0.06878  1.0000
  S   S261      1.0  0.49023  0.90332  0.30741  1.0000
  C   C1045     1.0  0.64691  0.50658  0.46067  1.0000
  H   H1829     1.0  0.49996  0.88667  0.19278  1.0000
  C   C1046     1.0  0.67256  0.59859  0.29216  1.0000
  C   C1047     1.0  0.64431  0.58040  0.31230  1.0000
  C   C1048     1.0  0.64422  0.56067  0.33973  1.0000
  C   C1049     1.0  0.67249  0.55847  0.34542  1.0000
  C   C1050     1.0  0.70051  0.57619  0.32484  1.0000
  H   H1830     1.0  0.62310  0.58287  0.30762  1.0000
  H   H1831     1.0  0.67291  0.54329  0.36631  1.0000
  H   H1832     1.0  0.57294  0.50826  0.29021  1.0000
  C   C1051     1.0  0.61757  0.76609  0.16964  1.0000
  C   C1052     1.0  0.60478  0.76095  0.13601  1.0000
  C   C1053     1.0  0.60248  0.78703  0.11971  1.0000
  C   C1054     1.0  0.61289  0.81827  0.13706  1.0000
  C   C1055     1.0  0.62486  0.82306  0.17100  1.0000
  C   C1056     1.0  0.62753  0.79715  0.18711  1.0000
  H   H1833     1.0  0.59608  0.73662  0.12284  1.0000
  H   H1834     1.0  0.59222  0.78276  0.09391  1.0000
  H   H1835     1.0  0.63294  0.84714  0.18454  1.0000
  H   H1836     1.0  0.63800  0.80154  0.21283  1.0000
  C   C1057     1.0  0.67440  0.75766  0.00749  1.0000
  S   S262      1.0  0.50888  0.48623  0.35685  1.0000
  C   C1058     1.0  0.49227  0.76448  0.38559  1.0000
  C   C1059     1.0  0.68954  0.90671  0.30375  1.0000
  C   C1060     1.0  0.68696  0.88810  0.33304  1.0000
  C   C1061     1.0  0.70004  0.90577  0.36464  1.0000
  C   C1062     1.0  0.71482  0.94155  0.36718  1.0000
  C   C1063     1.0  0.53462  0.94413  0.98577  1.0000
  H   H1837     1.0  0.69825  0.89162  0.38745  1.0000
  H   H1838     1.0  0.63694  0.70936  0.02826  1.0000
  C   C1064     1.0  0.67703  0.67302  0.34451  1.0000
  C   C1065     1.0  0.67327  0.64611  0.36496  1.0000
  C   C1066     1.0  0.69911  0.63967  0.37054  1.0000
  H   H1839     1.0  0.52608  0.77736  0.34313  1.0000
  C   C1067     1.0  0.70630  0.69175  0.32720  1.0000
  H   H1840     1.0  0.64972  0.62927  0.37555  1.0000
  H   H1841     1.0  0.69576  0.61924  0.38692  1.0000
  H   H1842     1.0  0.62640  0.70586  0.43162  1.0000
  C   C1068     1.0  0.52327  0.60038  0.36299  1.0000
  C   C1069     1.0  0.50614  0.60462  0.39039  1.0000
  C   C1070     1.0  0.51834  0.63619  0.40848  1.0000
  C   C1071     1.0  0.54845  0.66452  0.40072  1.0000
  C   C1072     1.0  0.56638  0.66024  0.37446  1.0000
  C   C1073     1.0  0.55394  0.62871  0.35575  1.0000
  C   C1074     1.0  0.70441  0.69403  0.45875  1.0000
  H   H1843     1.0  0.50353  0.63927  0.42755  1.0000
  H   H1844     1.0  0.58987  0.68123  0.36849  1.0000
  H   H1845     1.0  0.56831  0.62636  0.33546  1.0000
  C   C1075     1.0  0.51370  0.89314  0.33690  1.0000
  C   C1076     1.0  0.53098  0.91411  0.36527  1.0000
  C   C1077     1.0  0.54864  0.90516  0.38824  1.0000
  C   C1078     1.0  0.55084  0.87560  0.38265  1.0000
  C   C1079     1.0  0.53497  0.85540  0.35313  1.0000
  C   C1080     1.0  0.51675  0.86416  0.33052  1.0000
  H   H1846     1.0  0.53047  0.93723  0.36963  1.0000
  H   H1847     1.0  0.56129  0.92185  0.41009  1.0000
  H   H1848     1.0  0.53696  0.83321  0.34750  1.0000
  H   H1849     1.0  0.50470  0.84832  0.30801  1.0000
  H   H1850     1.0  0.54215  0.63631  0.18160  1.0000
  H   H1851     1.0  0.62285  0.56482  0.22527  1.0000
  H   H1852     1.0  0.63170  0.73050  0.08433  1.0000
  C   C1081     1.0  0.67907  0.61648  0.19560  1.0000
  H   H1853     1.0  0.65819  0.95925  0.31709  1.0000
  H   H1854     1.0  0.69527  0.66646  0.46198  1.0000
  S   S263      1.0  0.56894  0.78709  0.46134  1.0000
  H   H1855     1.0  0.51710  0.81036  0.44579  1.0000
  C   C1082     1.0  0.65726  0.57891  0.18298  1.0000
  C   C1083     1.0  0.53433  0.69742  0.20221  1.0000
  H   H1856     1.0  0.49317  0.95328  0.20250  1.0000
  C   C1084     1.0  0.63864  0.55620  0.21289  1.0000
  H   H1857     1.0  0.61263  0.49399  0.31725  1.0000
  H   H1858     1.0  0.66308  0.62440  0.20879  1.0000
  H   H1859     1.0  0.69501  0.61616  0.21632  1.0000
  C   C1085     1.0  0.52486  0.64123  0.97718  1.0000
  H   H1860     1.0  0.68915  0.51657  0.20729  1.0000
  H   H1861     1.0  0.65544  0.64444  0.15583  1.0000
  H   H1862     1.0  0.64061  0.49101  0.24247  1.0000
  H   H1863     1.0  0.51419  0.71471  0.16371  1.0000
  H   H1864     1.0  0.70000  0.98118  0.42768  1.0000
  H   H1865     1.0  0.70196  0.68942  0.18578  1.0000
  H   H1866     1.0  0.68378  0.59003  0.45158  1.0000
  H   H1867     1.0  0.63871  0.57625  0.16376  1.0000
  H   H1868     1.0  0.67226  0.56887  0.17150  1.0000
  H   H1869     1.0  0.49902  0.55829  0.25226  1.0000
  H   H1870     1.0  0.62295  0.96077  0.23448  1.0000
  H   H1871     1.0  0.64767  0.64216  0.07864  1.0000
  C   C1086     1.0  0.70312  0.52858  0.23156  1.0000
  C   C1087     1.0  0.53802  0.60979  0.24164  1.0000
  C   C1088     1.0  0.63908  0.96609  0.32123  1.0000
  H   H1872     1.0  0.62310  0.52950  0.20333  1.0000
  H   H1873     1.0  0.65586  0.55676  0.23265  1.0000
  H   H1874     1.0  0.68169  0.76476  0.45437  1.0000
  H   H1875     1.0  0.60926  0.95488  0.45514  1.0000
  H   H1876     1.0  0.49929  0.84684  0.47459  1.0000
  H   H1877     1.0  0.66581  0.51770  0.44072  1.0000
  H   H1878     1.0  0.61064  0.49272  0.41968  1.0000
  N   N55       1.0  0.65209  0.69660  0.47225  1.0000
  H   H1879     1.0  0.56285  0.71749  0.04337  1.0000
  H   H1880     1.0  0.65892  0.77399  0.07313  1.0000
  C   C1089     1.0  0.59660  0.91832  0.28485  1.0000
  C   C1090     1.0  0.61535  0.89845  0.28614  1.0000
  C   C1091     1.0  0.62195  0.95095  0.35551  1.0000
  H   H1881     1.0  0.53958  0.97503  0.29639  1.0000
  H   H1882     1.0  0.64565  0.67345  0.10679  1.0000
  H   H1883     1.0  0.50106  0.75929  0.27766  1.0000
  C   C1092     1.0  0.53016  0.54398  0.19138  1.0000
  H   H1884     1.0  0.70154  0.69839  0.43125  1.0000
  H   H1885     1.0  0.51384  0.80120  0.26289  1.0000
  C   C1093     1.0  0.67711  0.74803  0.43145  1.0000
  H   H1886     1.0  0.67301  0.68691  0.07099  1.0000
  S   S264      1.0  0.57268  0.82674  0.02329  1.0000
  H   H1887     1.0  0.54362  0.87367  0.17500  1.0000
  H   H1888     1.0  0.72043  0.85162  0.36738  1.0000
  H   H1889     1.0  0.57709  0.90747  0.30430  1.0000
  H   H1890     1.0  0.58336  0.91179  0.25959  1.0000
  H   H1891     1.0  0.62718  0.90164  0.31177  1.0000
  H   H1892     1.0  0.63429  0.90730  0.26617  1.0000
  H   H1893     1.0  0.51532  0.78122  0.98012  1.0000
  H   H1894     1.0  0.60582  0.92313  0.35300  1.0000
  C   C1094     1.0  0.52674  0.63495  0.01205  1.0000
  C   C1095     1.0  0.72497  0.54910  0.01270  1.0000
  C   C1096     1.0  0.53181  0.51157  0.19564  1.0000
  H   H1895     1.0  0.52350  0.94780  0.00852  1.0000
  C   C1097     1.0  0.54101  0.66288  0.03563  1.0000
  C   C1098     1.0  0.50859  0.91612  0.13289  1.0000
  H   H1896     1.0  0.53963  0.63516  0.24195  1.0000
  Fe  Fe132     1.0  0.60595  0.87018  0.99032  1.0000
  C   C1099     1.0  0.69618  0.58269  0.47137  1.0000
  H   H1897     1.0  0.51089  0.82787  0.21369  1.0000
  H   H1898     1.0  0.48109  0.78766  0.31559  1.0000
  C   C1100     1.0  0.59220  0.63666  0.21732  1.0000
  C   C1101     1.0  0.56514  0.61768  0.14650  1.0000
  C   C1102     1.0  0.61104  0.63568  0.24984  1.0000
  C   C1103     1.0  0.54485  0.61047  0.11344  1.0000
  C   C1104     1.0  0.64544  0.66656  0.25149  1.0000
  H   H1899     1.0  0.59270  0.66148  0.21747  1.0000
  H   H1900     1.0  0.60741  0.63757  0.19528  1.0000
  H   H1901     1.0  0.58088  0.57774  0.20125  1.0000
  H   H1902     1.0  0.58555  0.64443  0.14582  1.0000
  H   H1903     1.0  0.57563  0.60063  0.14651  1.0000
  H   H1904     1.0  0.61318  0.61242  0.24933  1.0000
  H   H1905     1.0  0.70630  0.55705  0.01451  1.0000
  H   H1906     1.0  0.65605  0.96223  0.25711  1.0000
  H   H1907     1.0  0.53308  0.62634  0.11310  1.0000
  H   H1908     1.0  0.48904  0.57692  0.21700  1.0000
  H   H1909     1.0  0.64467  0.68995  0.25854  1.0000
  H   H1910     1.0  0.66001  0.66277  0.27151  1.0000
  H   H1911     1.0  0.65780  0.67053  0.22648  1.0000
  H   H1912     1.0  0.67253  0.61500  0.27250  1.0000
  H   H1913     1.0  0.55470  0.93973  0.25850  1.0000
  H   H1914     1.0  0.65415  0.51978  0.27873  1.0000
  H   H1915     1.0  0.67984  0.89342  0.27928  1.0000
  H   H1916     1.0  0.50738  0.75454  0.43427  1.0000
  H   H1917     1.0  0.72190  0.57420  0.32964  1.0000
  N   N56       1.0  0.61704  0.95648  0.28990  1.0000
  C   C1105     1.0  0.65294  0.74723  0.06846  1.0000
  C   C1106     1.0  0.54873  0.85242  0.17678  1.0000
  H   H1918     1.0  0.53943  0.88274  0.10256  1.0000
  C   C1107     1.0  0.62657  0.63749  0.44000  1.0000
  C   C1108     1.0  0.69064  0.49612  0.97985  1.0000
  S   S265      1.0  0.49259  0.49876  0.01313  1.0000
  H   H1919     1.0  0.55750  0.90214  0.46908  1.0000
  H   H1920     1.0  0.53975  0.78988  0.17343  1.0000
  H   H1921     1.0  0.64228  0.75902  0.40747  1.0000
  C   C1109     1.0  0.50815  0.94980  0.18249  1.0000
  H   H1922     1.0  0.53192  0.92007  0.14431  1.0000
  H   H1923     1.0  0.48299  0.58402  0.39754  1.0000
  C   C1110     1.0  0.52778  0.72472  0.18846  1.0000
  H   H1924     1.0  0.51523  0.93720  0.11476  1.0000
  Fe  Fe133     1.0  0.48600  0.51370  0.38695  1.0000
  S   S266      1.0  0.63847  0.85723  0.47064  1.0000
  C   C1111     1.0  0.51873  0.82065  0.18957  1.0000
  C   C1112     1.0  0.47959  0.68798  0.32885  1.0000
  C   C1113     1.0  0.52624  0.79158  0.19613  1.0000
  C   C1114     1.0  0.48112  0.67275  0.35919  1.0000
  Fe  Fe134     1.0  0.49706  0.95110  0.40112  1.0000
  C   C1115     1.0  0.48329  0.59364  0.26661  1.0000
  H   H1925     1.0  0.70080  0.75024  0.42467  1.0000
  C   C1116     1.0  0.68830  0.50476  0.26177  1.0000
  H   H1926     1.0  0.71107  0.95989  0.45902  1.0000
  Fe  Fe135     1.0  0.59429  0.79752  0.99829  1.0000
  H   H1927     1.0  0.50601  0.53878  0.19980  1.0000
  H   H1928     1.0  0.65770  0.95190  0.47335  1.0000
  H   H1929     1.0  0.72862  0.53444  0.22818  1.0000
  H   H1930     1.0  0.48427  0.60935  0.47459  1.0000
  H   H1931     1.0  0.55737  0.56616  0.23926  1.0000
  H   H1932     1.0  0.60700  0.84702  0.28090  1.0000
  H   H1933     1.0  0.50333  0.67303  0.36569  1.0000
  H   H1934     1.0  0.49389  0.78951  0.39018  1.0000
  C   C1117     1.0  0.67471  0.64160  0.14234  1.0000
  H   H1935     1.0  0.68381  0.78964  0.39910  1.0000
  H   H1936     1.0  0.68400  0.78527  0.01363  1.0000
  H   H1937     1.0  0.51937  0.59222  0.17335  1.0000
  H   H1938     1.0  0.54422  0.80003  0.21795  1.0000
  N   N57       1.0  0.69863  0.64186  0.16849  1.0000
  H   H1939     1.0  0.54534  0.79068  0.38528  1.0000
  C   C1118     1.0  0.48458  0.74422  0.41918  1.0000
  H   H1940     1.0  0.58700  0.59078  0.46051  1.0000
  H   H1941     1.0  0.70508  0.95644  0.28376  1.0000
  C   C1119     1.0  0.49259  0.77529  0.26534  1.0000
  C   C1120     1.0  0.61037  0.59963  0.44703  1.0000
  H   H1942     1.0  0.71991  0.53192  0.03477  1.0000
  C   C1121     1.0  0.66644  0.76211  0.40201  1.0000
  H   H1943     1.0  0.65074  0.64524  0.42976  1.0000
  H   H1944     1.0  0.48344  0.85993  0.12403  1.0000
  H   H1945     1.0  0.66467  0.74823  0.37752  1.0000
  H   H1946     1.0  0.63515  0.96418  0.03028  1.0000
  Fe  Fe136     1.0  0.66536  0.86010  0.00321  1.0000
  H   H1947     1.0  0.70980  0.76304  0.34412  1.0000
  H   H1948     1.0  0.65878  0.50770  0.01148  1.0000
  H   H1949     1.0  0.67391  0.74457  0.07703  1.0000
  H   H1950     1.0  0.60759  0.96291  0.36402  1.0000
  H   H1951     1.0  0.54888  0.70656  0.22655  1.0000
  N   N58       1.0  0.48749  0.91744  0.16128  1.0000
  H   H1952     1.0  0.69166  0.96902  0.98632  1.0000
  H   H1953     1.0  0.48873  0.71021  0.22562  1.0000
  H   H1954     1.0  0.54827  0.69175  0.18293  1.0000
  H   H1955     1.0  0.56068  0.61647  0.09061  1.0000
  H   H1956     1.0  0.57819  0.95824  0.31703  1.0000
  H   H1957     1.0  0.54792  0.60798  0.26705  1.0000
  H   H1958     1.0  0.60583  0.58517  0.42219  1.0000
  C   C1122     1.0  0.50153  0.58231  0.24242  1.0000
  H   H1959     1.0  0.66201  0.61685  0.12778  1.0000
  H   H1960     1.0  0.65526  0.69597  0.41597  1.0000
  H   H1961     1.0  0.51115  0.67365  0.20717  1.0000
  H   H1962     1.0  0.55546  0.51507  0.18669  1.0000
  C   C1123     1.0  0.63789  0.97087  0.25861  1.0000
  C   C1124     1.0  0.71629  0.96001  0.33816  1.0000
  S   S267      1.0  0.71754  0.85341  0.44344  1.0000
  N   N59       1.0  0.49710  0.75714  0.20273  1.0000
  H   H1963     1.0  0.52623  0.74614  0.23752  1.0000
  C   C1125     1.0  0.54451  0.61315  0.17900  1.0000
  C   C1126     1.0  0.55783  0.57434  0.21218  1.0000
  H   H1964     1.0  0.60756  0.69198  0.98076  1.0000
  N   N60       1.0  0.55768  0.60755  0.21225  1.0000
  S   S268      1.0  0.51129  0.59299  0.02771  1.0000
  H   H1965     1.0  0.59919  0.63611  0.27424  1.0000
  S   S269      1.0  0.48235  0.48668  0.28200  1.0000
  H   H1966     1.0  0.55152  0.74757  0.18312  1.0000
  H   H1967     1.0  0.54287  0.65860  0.06261  1.0000
  H   H1968     1.0  0.62389  0.74040  0.02323  1.0000
  Fe  Fe137     1.0  0.61598  0.84725  0.05918  1.0000
  H   H1969     1.0  0.48103  0.61454  0.25519  1.0000
  H   H1970     1.0  0.63243  0.54508  0.46224  1.0000
  C   C1127     1.0  0.59266  0.86027  0.27987  1.0000
  C   C1128     1.0  0.52041  0.88370  0.08655  1.0000
  H   H1971     1.0  0.53187  0.54901  0.16339  1.0000
  H   H1972     1.0  0.55536  0.91721  0.01219  1.0000
  C   C1129     1.0  0.52434  0.77012  0.37052  1.0000
  C   C1130     1.0  0.54945  0.70251  0.99010  1.0000
  C   C1131     1.0  0.70120  0.59710  0.29842  1.0000
  H   H1973     1.0  0.70913  0.71154  0.31014  1.0000
  C   C1132     1.0  0.50910  0.73403  0.21518  1.0000
  C   C1133     1.0  0.65132  0.71014  0.43720  1.0000
  S   S270      1.0  0.64817  0.89342  0.02847  1.0000
  H   H1974     1.0  0.52602  0.74657  0.37132  1.0000
  H   H1975     1.0  0.58041  0.85503  0.25424  1.0000
  H   H1976     1.0  0.57404  0.84977  0.30017  1.0000
  C   C1134     1.0  0.49414  0.88366  0.10932  1.0000
  C   C1135     1.0  0.70401  0.94241  0.30637  1.0000
  C   C1136     1.0  0.55242  0.69644  0.02478  1.0000
  C   C1137     1.0  0.68914  0.66923  0.11440  1.0000
  H   H1977     1.0  0.69306  0.75176  0.01702  1.0000
  C   C1138     1.0  0.64458  0.73678  0.03037  1.0000
  H   H1978     1.0  0.55515  0.84724  0.15072  1.0000
  C   C1139     1.0  0.52484  0.98340  0.16231  1.0000
  H   H1979     1.0  0.52767  0.94804  0.19683  1.0000
  S   S271      1.0  0.71836  0.87112  0.00057  1.0000
  H   H1980     1.0  0.61186  0.64108  0.41977  1.0000
  C   C1140     1.0  0.62912  0.65856  0.47291  1.0000
  H   H1981     1.0  0.70365  0.55296  0.23695  1.0000
  H   H1982     1.0  0.67114  0.49713  0.32960  1.0000
  H   H1983     1.0  0.72439  0.95464  0.39173  1.0000
  C   C1141     1.0  0.70648  0.98133  0.45518  1.0000
  H   H1984     1.0  0.67673  0.98089  0.04535  1.0000
  C   C1142     1.0  0.66212  0.66771  0.09138  1.0000
  C   C1143     1.0  0.71757  0.67749  0.18441  1.0000
  C   C1144     1.0  0.59471  0.97076  0.29514  1.0000
  C   C1145     1.0  0.64659  0.95720  0.38394  1.0000
  H   H1985     1.0  0.53198  0.90686  0.07076  1.0000
  H   H1986     1.0  0.71128  0.66899  0.24041  1.0000
  H   H1987     1.0  0.63375  0.94711  0.40839  1.0000
  H   H1988     1.0  0.70274  0.69531  0.12602  1.0000
  H   H1989     1.0  0.70635  0.60810  0.13463  1.0000
  H   H1990     1.0  0.49654  0.60318  0.29168  1.0000
  H   H1991     1.0  0.58663  0.97850  0.24061  1.0000
  H   H1992     1.0  0.66880  0.70389  0.97773  1.0000
  H   H1993     1.0  0.62663  0.59447  0.46295  1.0000
  H   H1994     1.0  0.70378  0.51829  0.28476  1.0000
  N   N61       1.0  0.72124  0.53037  0.97884  1.0000
  H   H1995     1.0  0.70583  0.66527  0.09749  1.0000
  H   H1996     1.0  0.70487  0.56722  0.45728  1.0000
  C   C1146     1.0  0.72088  0.63226  0.14986  1.0000
  H   H1997     1.0  0.53551  0.98019  0.25146  1.0000
  C   C1147     1.0  0.72865  0.65879  0.35384  1.0000
  H   H1998     1.0  0.54357  0.98411  0.14479  1.0000
  S   S272      1.0  0.54757  0.98375  0.42506  1.0000
  H   H1999     1.0  0.62122  0.64557  0.97934  1.0000
  C   C1148     1.0  0.50577  0.83084  0.49040  1.0000
  H   H2000     1.0  0.53343  0.76894  0.73872  1.0000
  S   S273      1.0  0.56482  0.94394  0.71000  1.0000
  C   C1149     1.0  0.58925  0.68971  0.83511  1.0000
  C   C1150     1.0  0.53846  0.97918  0.52417  1.0000
  H   H2001     1.0  0.62146  0.87486  0.70954  1.0000
  N   N62       1.0  0.66917  0.75103  0.96899  1.0000
  H   H2002     1.0  0.71015  0.95798  0.93394  1.0000
  H   H2003     1.0  0.68746  0.97866  0.50562  1.0000
  H   H2004     1.0  0.64355  0.50458  0.54140  1.0000
  H   H2005     1.0  0.49992  0.63219  0.82235  1.0000
  C   C1151     1.0  0.71974  0.55152  0.95004  1.0000
  C   C1152     1.0  0.54081  0.65740  0.70493  1.0000
  H   H2006     1.0  0.57360  0.72218  0.81269  1.0000
  C   C1153     1.0  0.69828  0.97171  0.72044  1.0000
  S   S274      1.0  0.62543  0.83987  0.96242  1.0000
  Fe  Fe138     1.0  0.67352  0.79432  0.81524  1.0000
  S   S275      1.0  0.65665  0.82491  0.84669  1.0000
  C   C1154     1.0  0.48956  0.77662  0.61362  1.0000
  Fe  Fe139     1.0  0.66901  0.82702  0.74786  1.0000
  S   S276      1.0  0.65277  0.85992  0.77545  1.0000
  S   S277      1.0  0.68346  0.83515  0.69126  1.0000
  Fe  Fe140     1.0  0.69152  0.86999  0.81544  1.0000
  C   C1155     1.0  0.68611  0.70587  0.48326  1.0000
  Fe  Fe141     1.0  0.61920  0.81187  0.80435  1.0000
  S   S278      1.0  0.56464  0.79516  0.80770  1.0000
  S   S279      1.0  0.70972  0.83956  0.78621  1.0000
  S   S280      1.0  0.63399  0.77879  0.77434  1.0000
  S   S281      1.0  0.59359  0.79936  0.55601  1.0000
  S   S282      1.0  0.52965  0.52967  0.50698  1.0000
  H   H2007     1.0  0.54514  0.64985  0.47913  1.0000
  H   H2008     1.0  0.64307  0.74041  0.90435  1.0000
  H   H2009     1.0  0.55782  0.76463  0.70538  1.0000
  H   H2010     1.0  0.50597  0.62407  0.74201  1.0000
  H   H2011     1.0  0.57994  0.66237  0.84011  1.0000
  S   S283      1.0  0.64809  0.52708  0.74909  1.0000
  C   C1156     1.0  0.56272  0.93391  0.92680  1.0000
  C   C1157     1.0  0.55841  0.97341  0.57991  1.0000
  Fe  Fe142     1.0  0.51681  0.93795  0.72581  1.0000
  H   H2012     1.0  0.53617  0.81586  0.92890  1.0000
  S   S284      1.0  0.58434  0.51473  0.67478  1.0000
  H   H2013     1.0  0.49697  0.83719  0.59431  1.0000
  S   S285      1.0  0.56272  0.94842  0.61069  1.0000
  C   C1158     1.0  0.64591  0.76228  0.95661  1.0000
  H   H2014     1.0  0.70309  0.54392  0.86100  1.0000
  C   C1159     1.0  0.70153  0.77342  0.95218  1.0000
  H   H2015     1.0  0.47996  0.52166  0.75050  1.0000
  H   H2016     1.0  0.64703  0.87564  0.89172  1.0000
  H   H2017     1.0  0.54115  0.72845  0.77369  1.0000
  C   C1160     1.0  0.51481  0.65028  0.73292  1.0000
  C   C1161     1.0  0.55169  0.67351  0.78298  1.0000
  H   H2018     1.0  0.50425  0.79957  0.66495  1.0000
  C   C1162     1.0  0.65792  0.82464  0.65404  1.0000
  C   C1163     1.0  0.67229  0.83503  0.62159  1.0000
  C   C1164     1.0  0.65300  0.82719  0.59129  1.0000
  C   C1165     1.0  0.61906  0.80868  0.59313  1.0000
  C   C1166     1.0  0.60469  0.79800  0.62555  1.0000
  C   C1167     1.0  0.62398  0.80610  0.65589  1.0000
  H   H2019     1.0  0.69853  0.84926  0.61987  1.0000
  H   H2020     1.0  0.66438  0.83556  0.56655  1.0000
  H   H2021     1.0  0.57849  0.78327  0.62719  1.0000
  H   H2022     1.0  0.61269  0.79779  0.68064  1.0000
  C   C1168     1.0  0.53051  0.95597  0.95386  1.0000
  C   C1169     1.0  0.62874  0.49174  0.84331  1.0000
  C   C1170     1.0  0.49249  0.85703  0.90084  1.0000
  H   H2023     1.0  0.51744  0.75693  0.69542  1.0000
  S   S286      1.0  0.50667  0.97580  0.94720  1.0000
  H   H2024     1.0  0.58920  0.86331  0.53770  1.0000
  C   C1171     1.0  0.53234  0.74735  0.85900  1.0000
  C   C1172     1.0  0.52979  0.76311  0.82945  1.0000
  C   C1173     1.0  0.66962  0.96001  0.74483  1.0000
  H   H2025     1.0  0.55608  0.75389  0.86894  1.0000
  H   H2026     1.0  0.72271  0.74011  0.95831  1.0000
  H   H2027     1.0  0.58614  0.90640  0.81450  1.0000
  H   H2028     1.0  0.51039  0.86776  0.92261  1.0000
  C   C1174     1.0  0.54482  0.95071  0.92465  1.0000
  C   C1175     1.0  0.49612  0.66642  0.78509  1.0000
  H   H2029     1.0  0.48255  0.56392  0.65178  1.0000
  H   H2030     1.0  0.60759  0.78059  0.91718  1.0000
  H   H2031     1.0  0.49839  0.72643  0.48078  1.0000
  C   C1176     1.0  0.66858  0.90169  0.89251  1.0000
  C   C1177     1.0  0.68693  0.53448  0.69248  1.0000
  C   C1178     1.0  0.68576  0.54170  0.72757  1.0000
  C   C1179     1.0  0.71529  0.56090  0.74620  1.0000
  H   H2032     1.0  0.49297  0.70710  0.73232  1.0000
  H   H2033     1.0  0.53221  0.93194  0.54312  1.0000
  H   H2034     1.0  0.71474  0.56651  0.77337  1.0000
  H   H2035     1.0  0.56510  0.49518  0.49279  1.0000
  C   C1180     1.0  0.50412  0.72400  0.87663  1.0000
  H   H2036     1.0  0.68812  0.96413  0.69375  1.0000
  H   H2037     1.0  0.59307  0.90106  0.85913  1.0000
  H   H2038     1.0  0.62301  0.51976  0.49898  1.0000
  H   H2039     1.0  0.53783  0.89314  0.84844  1.0000
  C   C1181     1.0  0.63974  0.71303  0.49775  1.0000
  H   H2040     1.0  0.63255  0.61829  0.54737  1.0000
  C   C1182     1.0  0.62140  0.97477  0.50919  1.0000
  C   C1183     1.0  0.49872  0.77591  0.95770  1.0000
  H   H2041     1.0  0.61124  0.69948  0.81890  1.0000
  H   H2042     1.0  0.59560  0.71027  0.54702  1.0000
  H   H2043     1.0  0.52557  0.96794  0.50004  1.0000
  H   H2044     1.0  0.56396  0.72244  0.74188  1.0000
  H   H2045     1.0  0.58455  0.86767  0.82740  1.0000
  C   C1184     1.0  0.53571  0.67471  0.96639  1.0000
  H   H2046     1.0  0.65926  0.70772  0.54750  1.0000
  H   H2047     1.0  0.59647  0.70384  0.86021  1.0000
  H   H2048     1.0  0.51163  0.78735  0.48446  1.0000
  H   H2049     1.0  0.70265  0.95645  0.81559  1.0000
  H   H2050     1.0  0.61144  0.97564  0.86741  1.0000
  H   H2051     1.0  0.58912  0.73469  0.91303  1.0000
  C   C1185     1.0  0.61003  0.75945  0.90560  1.0000
  H   H2052     1.0  0.68121  0.51364  0.91518  1.0000
  H   H2053     1.0  0.60932  0.76091  0.87712  1.0000
  C   C1186     1.0  0.51813  0.71655  0.72343  1.0000
  H   H2054     1.0  0.59518  0.50856  0.86064  1.0000
  H   H2055     1.0  0.54276  0.68684  0.83556  1.0000
  H   H2056     1.0  0.66213  0.78592  0.90657  1.0000
  C   C1187     1.0  0.54223  0.95887  0.54847  1.0000
  H   H2057     1.0  0.63567  0.74548  0.55784  1.0000
  H   H2058     1.0  0.68751  0.49159  0.55162  1.0000
  S   S287      1.0  0.51100  0.52808  0.68310  1.0000
  H   H2059     1.0  0.61664  0.90701  0.55080  1.0000
  C   C1188     1.0  0.53868  0.71148  0.75136  1.0000
  C   C1189     1.0  0.71174  0.55783  0.88624  1.0000
  H   H2060     1.0  0.61863  0.87346  0.57240  1.0000
  H   H2061     1.0  0.65445  0.91312  0.94090  1.0000
  H   H2062     1.0  0.70406  0.56250  0.95690  1.0000
  C   C1190     1.0  0.56309  0.69462  0.81736  1.0000
  H   H2063     1.0  0.51100  0.82798  0.95317  1.0000
  Fe  Fe143     1.0  0.61020  0.80889  0.49993  1.0000
  H   H2064     1.0  0.69752  0.57066  0.89207  1.0000
  H   H2065     1.0  0.49586  0.76570  0.79420  1.0000
  H   H2066     1.0  0.54179  0.95949  0.89989  1.0000
  C   C1191     1.0  0.72748  0.61558  0.48390  1.0000
  H   H2067     1.0  0.51945  0.58676  0.52380  1.0000
  H   H2068     1.0  0.56063  0.68423  0.70483  1.0000
  C   C1192     1.0  0.63538  0.70065  0.53543  1.0000
  C   C1193     1.0  0.72467  0.97410  0.82961  1.0000
  N   N63       1.0  0.52537  0.67542  0.76305  1.0000
  C   C1194     1.0  0.62680  0.59440  0.56032  1.0000
  C   C1195     1.0  0.51597  0.80234  0.63946  1.0000
  C   C1196     1.0  0.57876  0.88769  0.83540  1.0000
  C   C1197     1.0  0.62011  0.71727  0.55741  1.0000
  H   H2069     1.0  0.53155  0.84643  0.49910  1.0000
  C   C1198     1.0  0.68419  0.50890  0.56967  1.0000
  H   H2070     1.0  0.72053  0.82595  0.89747  1.0000
  C   C1199     1.0  0.72726  0.85292  0.90207  1.0000
  C   C1200     1.0  0.64201  0.76201  0.91680  1.0000
  H   H2071     1.0  0.63545  0.64756  0.49497  1.0000
  C   C1201     1.0  0.71920  0.95525  0.72910  1.0000
  H   H2072     1.0  0.61749  0.70851  0.58435  1.0000
  C   C1202     1.0  0.48352  0.58708  0.48650  1.0000
  H   H2073     1.0  0.71756  0.86102  0.88054  1.0000
  H   H2074     1.0  0.69784  0.53405  0.50623  1.0000
  H   H2075     1.0  0.65655  0.74089  0.49985  1.0000
  H   H2076     1.0  0.68820  0.70449  0.88041  1.0000
  H   H2077     1.0  0.65394  0.78870  0.96623  1.0000
  C   C1203     1.0  0.48572  0.84783  0.64615  1.0000
  H   H2078     1.0  0.66628  0.60649  0.50339  1.0000
  H   H2079     1.0  0.63116  0.95973  0.52153  1.0000
  C   C1204     1.0  0.60185  0.88075  0.56018  1.0000
  H   H2080     1.0  0.51660  0.86329  0.74514  1.0000
  C   C1205     1.0  0.61316  0.51400  0.83997  1.0000
  N   N64       1.0  0.53380  0.83913  0.62912  1.0000
  C   C1206     1.0  0.55381  0.86069  0.65978  1.0000
  H   H2081     1.0  0.56932  0.63881  0.73236  1.0000
  H   H2082     1.0  0.49873  0.86507  0.66856  1.0000
  C   C1207     1.0  0.55513  0.84267  0.59893  1.0000
  C   C1208     1.0  0.57728  0.87944  0.58630  1.0000
  C   C1209     1.0  0.58318  0.85653  0.67045  1.0000
  H   H2083     1.0  0.67828  0.97242  0.77070  1.0000
  C   C1210     1.0  0.71138  0.72095  0.86884  1.0000
  H   H2084     1.0  0.47964  0.74120  0.51206  1.0000
  H   H2085     1.0  0.68593  0.69495  0.50871  1.0000
  C   C1211     1.0  0.60027  0.87791  0.70292  1.0000
  H   H2086     1.0  0.70818  0.52876  0.58038  1.0000
  H   H2087     1.0  0.53832  0.85469  0.68295  1.0000
  H   H2088     1.0  0.56287  0.88819  0.65554  1.0000
  C   C1212     1.0  0.51081  0.80782  0.93632  1.0000
  H   H2089     1.0  0.50004  0.77705  0.58800  1.0000
  C   C1213     1.0  0.54229  0.87200  0.84169  1.0000
  H   H2090     1.0  0.53353  0.79320  0.64333  1.0000
  H   H2091     1.0  0.57063  0.83145  0.60485  1.0000
  H   H2092     1.0  0.54017  0.82765  0.57610  1.0000
  H   H2093     1.0  0.59130  0.89752  0.60775  1.0000
  H   H2094     1.0  0.56235  0.88867  0.57334  1.0000
  H   H2095     1.0  0.57520  0.82965  0.67611  1.0000
  H   H2096     1.0  0.60152  0.86492  0.64980  1.0000
  H   H2097     1.0  0.65652  0.93193  0.74735  1.0000
  H   H2098     1.0  0.48787  0.60407  0.55490  1.0000
  H   H2099     1.0  0.60916  0.69366  0.93500  1.0000
  C   C1214     1.0  0.51039  0.85072  0.61847  1.0000
  H   H2100     1.0  0.60080  0.50947  0.81436  1.0000
  H   H2101     1.0  0.49313  0.73262  0.62938  1.0000
  H   H2102     1.0  0.69894  0.76985  0.92361  1.0000
  H   H2103     1.0  0.70979  0.80082  0.95778  1.0000
  C   C1215     1.0  0.56656  0.92148  0.95811  1.0000
  H   H2104     1.0  0.61937  0.67269  0.53671  1.0000
  H   H2105     1.0  0.58344  0.86944  0.72507  1.0000
  H   H2106     1.0  0.50673  0.71278  0.89993  1.0000
  H   H2107     1.0  0.60917  0.90529  0.69855  1.0000
  H   H2108     1.0  0.53617  0.82504  0.86153  1.0000
  H   H2109     1.0  0.52393  0.87797  0.61180  1.0000
  H   H2110     1.0  0.52935  0.85996  0.81692  1.0000
  N   N65       1.0  0.67248  0.56216  0.49897  1.0000
  H   H2111     1.0  0.50830  0.80482  0.74189  1.0000
  C   C1216     1.0  0.66423  0.58557  0.51962  1.0000
  C   C1217     1.0  0.67912  0.97757  0.47863  1.0000
  C   C1218     1.0  0.68857  0.54820  0.52187  1.0000
  C   C1219     1.0  0.66738  0.52537  0.55119  1.0000
  H   H2112     1.0  0.52860  0.65207  0.67913  1.0000
  H   H2113     1.0  0.49807  0.75478  0.94202  1.0000
  C   C1220     1.0  0.62968  0.56962  0.53528  1.0000
  H   H2114     1.0  0.61116  0.56285  0.51439  1.0000
  H   H2115     1.0  0.64039  0.92528  0.90348  1.0000
  H   H2116     1.0  0.68981  0.90035  0.90279  1.0000
  H   H2117     1.0  0.61584  0.70946  0.48851  1.0000
  Fe  Fe144     1.0  0.55804  0.96744  0.66290  1.0000
  H   H2118     1.0  0.70351  0.92777  0.72215  1.0000
  C   C1221     1.0  0.57719  0.91584  0.48875  1.0000
  H   H2119     1.0  0.71073  0.56928  0.53472  1.0000
  C   C1222     1.0  0.55895  0.49248  0.51962  1.0000
  N   N66       1.0  0.49599  0.82987  0.88146  1.0000
  H   H2120     1.0  0.52766  0.64819  0.52069  1.0000
  H   H2121     1.0  0.67332  0.91098  0.86574  1.0000
  Fe  Fe145     1.0  0.53488  0.49652  0.69813  1.0000
  H   H2122     1.0  0.66341  0.54101  0.57084  1.0000
  H   H2123     1.0  0.51496  0.62031  0.95848  1.0000
  C   C1223     1.0  0.49270  0.84191  0.73897  1.0000
  H   H2124     1.0  0.60369  0.65288  0.47707  1.0000
  H   H2125     1.0  0.60639  0.97770  0.52933  1.0000
  H   H2126     1.0  0.64345  0.60038  0.58293  1.0000
  H   H2127     1.0  0.62312  0.54625  0.54950  1.0000
  H   H2128     1.0  0.70126  0.73397  0.48746  1.0000
  H   H2129     1.0  0.60143  0.58249  0.56977  1.0000
  C   C1224     1.0  0.48790  0.80865  0.73708  1.0000
  H   H2130     1.0  0.57307  0.92983  0.90365  1.0000
  H   H2131     1.0  0.54785  0.85830  0.89316  1.0000
  H   H2132     1.0  0.68240  0.59864  0.54101  1.0000
  H   H2133     1.0  0.66650  0.71187  0.93371  1.0000
  S   S288      1.0  0.50891  0.95842  0.67685  1.0000
  H   H2134     1.0  0.70238  0.96987  0.89378  1.0000
  H   H2135     1.0  0.63229  0.54128  0.84207  1.0000
  H   H2136     1.0  0.49034  0.82238  0.51360  1.0000
  C   C1225     1.0  0.49842  0.75426  0.81734  1.0000
  C   C1226     1.0  0.53278  0.75414  0.71527  1.0000
  H   H2137     1.0  0.71593  0.85517  0.92620  1.0000
  H   H2138     1.0  0.51707  0.70284  0.69898  1.0000
  C   C1227     1.0  0.53524  0.50550  0.56847  1.0000
  C   C1228     1.0  0.66149  0.92491  0.91531  1.0000
  H   H2139     1.0  0.54407  0.64656  0.78848  1.0000
  H   H2140     1.0  0.56595  0.91286  0.51438  1.0000
  H   H2141     1.0  0.63483  0.96817  0.92345  1.0000
  C   C1229     1.0  0.54196  0.50757  0.53334  1.0000
  H   H2142     1.0  0.57380  0.68273  0.76697  1.0000
  C   C1230     1.0  0.70744  0.53290  0.91441  1.0000
  H   H2143     1.0  0.71773  0.54145  0.64899  1.0000
  C   C1231     1.0  0.69162  0.96111  0.91943  1.0000
  H   H2144     1.0  0.66449  0.51970  0.67781  1.0000
  H   H2145     1.0  0.52231  0.51748  0.57926  1.0000
  C   C1232     1.0  0.55600  0.63462  0.70754  1.0000
  C   C1233     1.0  0.71501  0.74816  0.84878  1.0000
  C   C1234     1.0  0.51872  0.59873  0.49955  1.0000
  C   C1235     1.0  0.53110  0.84540  0.87066  1.0000
  S   S289      1.0  0.68144  0.75529  0.84431  1.0000
  H   H2146     1.0  0.57345  0.64023  0.68629  1.0000
  H   H2147     1.0  0.53343  0.67910  0.93945  1.0000
  C   C1236     1.0  0.53971  0.63745  0.50452  1.0000
  H   H2148     1.0  0.64184  0.49837  0.86853  1.0000
  H   H2149     1.0  0.49063  0.78050  0.88831  1.0000
  H   H2150     1.0  0.59288  0.90411  0.48858  1.0000
  H   H2151     1.0  0.50163  0.68694  0.80477  1.0000
  C   C1237     1.0  0.71719  0.54687  0.67620  1.0000
  H   H2152     1.0  0.53702  0.60738  0.70499  1.0000
  C   C1238     1.0  0.65766  0.71412  0.95966  1.0000
  H   H2153     1.0  0.72059  0.51952  0.90666  1.0000
  C   C1239     1.0  0.64261  0.53407  0.48063  1.0000
  H   H2154     1.0  0.66264  0.97349  0.86577  1.0000
  H   H2155     1.0  0.64670  0.49858  0.82243  1.0000
  H   H2156     1.0  0.72289  0.95612  0.75754  1.0000
  S   S290      1.0  0.58848  0.89909  0.95686  1.0000
  H   H2157     1.0  0.56299  0.64372  0.51745  1.0000
  H   H2158     1.0  0.65219  0.96741  0.73463  1.0000
  Fe  Fe146     1.0  0.59813  0.49716  0.72219  1.0000
  H   H2159     1.0  0.65347  0.49221  0.47872  1.0000
  H   H2160     1.0  0.62328  0.64758  0.93264  1.0000
  C   C1240     1.0  0.54479  0.48743  0.58970  1.0000
  H   H2161     1.0  0.58537  0.63507  0.95397  1.0000
  C   C1241     1.0  0.61220  0.65211  0.95588  1.0000
  C   C1242     1.0  0.62018  0.68916  0.95816  1.0000
  H   H2162     1.0  0.72205  0.63257  0.49996  1.0000
  H   H2163     1.0  0.48856  0.97367  0.58469  1.0000
  H   H2164     1.0  0.65603  0.51363  0.96619  1.0000
  H   H2165     1.0  0.62153  0.74662  0.96764  1.0000
  H   H2166     1.0  0.72532  0.93982  0.66525  1.0000
  H   H2167     1.0  0.48401  0.69327  0.53346  1.0000
  H   H2168     1.0  0.66886  0.49385  0.59131  1.0000
  C   C1243     1.0  0.48865  0.80017  0.90391  1.0000
  H   H2169     1.0  0.49292  0.64819  0.71977  1.0000
  C   C1244     1.0  0.48359  0.54093  0.69954  1.0000
  H   H2170     1.0  0.53076  0.59080  0.47985  1.0000
  H   H2171     1.0  0.49876  0.87898  0.88414  1.0000
  S   S291      1.0  0.56159  0.74391  0.97510  1.0000
  H   H2172     1.0  0.65094  0.95278  0.97308  1.0000
  C   C1245     1.0  0.67512  0.97635  0.97346  1.0000
  C   C1246     1.0  0.59703  0.95327  0.47976  1.0000
  H   H2173     1.0  0.53893  0.48544  0.61666  1.0000
  H   H2174     1.0  0.72843  0.89858  0.72757  1.0000
  C   C1247     1.0  0.48189  0.63228  0.80414  1.0000
  H   H2175     1.0  0.48535  0.80804  0.82951  1.0000
  Fe  Fe147     1.0  0.92643  0.45246  0.26357  1.0000
  S   S292      1.0  0.91011  0.40532  0.29309  1.0000
  S   S293      1.0  0.73331  0.06832  0.41356  1.0000
  Fe  Fe148     1.0  0.89272  0.43012  0.33198  1.0000
  S   S294      1.0  0.83910  0.39013  0.34476  1.0000
  H   H2176     1.0  0.81102  0.06045  0.04422  1.0000
  H   H2177     1.0  0.87349  0.00605  0.35429  1.0000
  H   H2178     1.0  0.93877  0.19037  0.30305  1.0000
  S   S295      1.0  0.80609  0.12980  0.43830  1.0000
  Fe  Fe149     1.0  0.75900  0.04844  0.37961  1.0000
  S   S296      1.0  0.79355  0.10030  0.35912  1.0000
  C   C1248     1.0  0.82264  0.43532  0.19671  1.0000
  Fe  Fe150     1.0  0.82815  0.10730  0.40268  1.0000
  S   S297      1.0  0.88383  0.13069  0.40951  1.0000
  Fe  Fe151     1.0  0.76974  0.12043  0.39577  1.0000
  S   S298      1.0  0.76210  0.16605  0.38751  1.0000
  S   S299      1.0  0.79506  0.05365  0.42041  1.0000
  Fe  Fe152     1.0  0.77147  0.07637  0.45297  1.0000
  Fe  Fe153     1.0  0.79315  0.14703  0.26617  1.0000
  S   S300      1.0  0.82257  0.19828  0.24122  1.0000
  H   H2179     1.0  0.74894  0.48279  0.44312  1.0000
  Fe  Fe154     1.0  0.85535  0.14214  0.28056  1.0000
  S   S301      1.0  0.88847  0.19388  0.25764  1.0000
  S   S302      1.0  0.86492  0.09884  0.29926  1.0000
  Fe  Fe155     1.0  0.85886  0.21364  0.28555  1.0000
  S   S303      1.0  0.87186  0.26671  0.30979  1.0000
  Fe  Fe156     1.0  0.85069  0.17694  0.21457  1.0000
  S   S304      1.0  0.87150  0.19103  0.15991  1.0000
  S   S305      1.0  0.82828  0.16351  0.31139  1.0000
  S   S306      1.0  0.81916  0.12484  0.23579  1.0000
  S   S307      1.0  0.80705  0.14988  0.00784  1.0000
  H   H2180     1.0  0.73766  0.15462  0.13730  1.0000
  C   C1249     1.0  0.88778  0.08001  0.31672  1.0000
  C   C1250     1.0  0.87084  0.04709  0.33001  1.0000
  C   C1251     1.0  0.88742  0.03152  0.34479  1.0000
  C   C1252     1.0  0.92166  0.04831  0.34737  1.0000
  C   C1253     1.0  0.93854  0.08094  0.33302  1.0000
  C   C1254     1.0  0.92191  0.09630  0.31755  1.0000
  H   H2181     1.0  0.84456  0.03369  0.32944  1.0000
  H   H2182     1.0  0.75025  0.25308  0.39641  1.0000
  H   H2183     1.0  0.93574  0.12096  0.30636  1.0000
  C   C1255     1.0  0.89806  0.30402  0.33622  1.0000
  C   C1256     1.0  0.88890  0.32872  0.34275  1.0000
  C   C1257     1.0  0.90844  0.35828  0.36351  1.0000
  C   C1258     1.0  0.93833  0.36456  0.37752  1.0000
  C   C1259     1.0  0.92753  0.30986  0.35084  1.0000
  H   H2184     1.0  0.86602  0.32463  0.33260  1.0000
  H   H2185     1.0  0.89995  0.37594  0.36919  1.0000
  C   C1260     1.0  0.85651  0.00670  0.23435  1.0000
  C   C1261     1.0  0.73544  0.16581  0.19199  1.0000
  C   C1262     1.0  0.85301  0.17925  0.11790  1.0000
  C   C1263     1.0  0.81966  0.15681  0.11274  1.0000
  C   C1264     1.0  0.80617  0.14821  0.07895  1.0000
  C   C1265     1.0  0.82572  0.16189  0.04979  1.0000
  C   C1266     1.0  0.85914  0.18409  0.05495  1.0000
  C   C1267     1.0  0.87263  0.19268  0.08876  1.0000
  H   H2186     1.0  0.80438  0.14587  0.13478  1.0000
  H   H2187     1.0  0.78034  0.13085  0.07537  1.0000
  H   H2188     1.0  0.87459  0.19479  0.03291  1.0000
  H   H2189     1.0  0.89847  0.20999  0.09235  1.0000
  C   C1268     1.0  0.91715  0.15141  0.38061  1.0000
  C   C1269     1.0  0.94808  0.15703  0.39072  1.0000
  H   H2190     1.0  0.81358  0.00991  0.05658  1.0000
  C   C1270     1.0  0.94153  0.18108  0.32753  1.0000
  C   C1271     1.0  0.91432  0.16435  0.34913  1.0000
  H   H2191     1.0  0.95130  0.14875  0.41554  1.0000
  H   H2192     1.0  0.89109  0.16130  0.34131  1.0000
  H   H2193     1.0  0.93537  0.29168  0.34612  1.0000
  C   C1272     1.0  0.81679  0.47877  0.47258  1.0000
  C   C1273     1.0  0.87629  0.02861  0.43412  1.0000
  H   H2194     1.0  0.89274  0.04571  0.20191  1.0000
  H   H2195     1.0  0.75568  0.21700  0.35265  1.0000
  C   C1274     1.0  0.80505  0.38228  0.37095  1.0000
  C   C1275     1.0  0.80690  0.40486  0.39713  1.0000
  C   C1276     1.0  0.77937  0.39710  0.41732  1.0000
  C   C1277     1.0  0.74914  0.36739  0.41108  1.0000
  C   C1278     1.0  0.74703  0.34523  0.38421  1.0000
  C   C1279     1.0  0.77492  0.35228  0.36496  1.0000
  H   H2196     1.0  0.86665  0.03743  0.00129  1.0000
  H   H2197     1.0  0.78120  0.41445  0.43760  1.0000
  C   C1280     1.0  0.76448  0.23463  0.24934  1.0000
  H   H2198     1.0  0.77314  0.33421  0.34533  1.0000
  H   H2199     1.0  0.79839  0.45420  0.35425  1.0000
  H   H2200     1.0  0.89027  0.02218  0.41551  1.0000
  C   C1281     1.0  0.85328  0.05097  0.00789  1.0000
  C   C1282     1.0  0.94106  0.01079  0.18001  1.0000
  C   C1283     1.0  0.81028  0.45437  0.32959  1.0000
  H   H2201     1.0  0.83832  0.03616  0.25825  1.0000
  H   H2202     1.0  0.95512  0.16417  0.06108  1.0000
  H   H2203     1.0  0.94625  0.29434  0.46111  1.0000
  H   H2204     1.0  0.91757  0.47618  0.46721  1.0000
  H   H2205     1.0  0.97247  0.29874  0.29922  1.0000
  C   C1284     1.0  0.73136  0.19594  0.35509  1.0000
  H   H2206     1.0  0.81364  0.41654  0.14320  1.0000
  S   S308      1.0  0.94049  0.45195  0.36065  1.0000
  H   H2207     1.0  0.83158  0.45121  0.33518  1.0000
  H   H2208     1.0  0.91186  0.99783  0.45218  1.0000
  H   H2209     1.0  0.96342  0.22374  0.21853  1.0000
  H   H2210     1.0  0.77578  0.47307  0.41898  1.0000
  H   H2211     1.0  0.88309  0.17818  0.47155  1.0000
  H   H2212     1.0  0.76610  0.43133  0.30044  1.0000
  Fe  Fe157     1.0  0.95279  0.03601  0.03738  1.0000
  C   C1285     1.0  0.91433  0.24517  0.41177  1.0000
  H   H2213     1.0  0.81124  0.45107  0.19237  1.0000
  C   C1286     1.0  0.77556  0.00840  0.23653  1.0000
  H   H2214     1.0  0.80270  0.07115  0.13673  1.0000
  H   H2215     1.0  0.89275  0.43684  0.44362  1.0000
  H   H2216     1.0  0.80115  0.43147  0.05562  1.0000
  H   H2217     1.0  0.93270  0.16272  0.21971  1.0000
  H   H2218     1.0  0.94895  0.24322  0.46974  1.0000
  H   H2219     1.0  0.89413  0.09716  0.98795  1.0000
  N   N67       1.0  0.92536  0.33572  0.21335  1.0000
  C   C1287     1.0  0.93108  0.30909  0.22965  1.0000
  C   C1288     1.0  0.91288  0.32472  0.17657  1.0000
  C   C1289     1.0  0.95743  0.36876  0.21239  1.0000
  C   C1290     1.0  0.90245  0.34228  0.23481  1.0000
  C   C1291     1.0  0.86580  0.31535  0.23218  1.0000
  C   C1292     1.0  0.95327  0.32014  0.26248  1.0000
  H   H2220     1.0  0.80491  0.99001  0.29126  1.0000
  C   C1293     1.0  0.89085  0.28570  0.16899  1.0000
  C   C1294     1.0  0.87307  0.27854  0.13418  1.0000
  C   C1295     1.0  0.84546  0.32757  0.25179  1.0000
  H   H2221     1.0  0.84568  0.10038  0.04103  1.0000
  H   H2222     1.0  0.79325  0.03617  0.10694  1.0000
  H   H2223     1.0  0.94293  0.30002  0.21084  1.0000
  H   H2224     1.0  0.90750  0.28650  0.23645  1.0000
  H   H2225     1.0  0.89961  0.33777  0.16787  1.0000
  H   H2226     1.0  0.93358  0.33292  0.15861  1.0000
  H   H2227     1.0  0.85199  0.45492  0.15120  1.0000
  C   C1296     1.0  0.91770  0.99466  0.11190  1.0000
  H   H2228     1.0  0.90974  0.34555  0.26257  1.0000
  H   H2229     1.0  0.90423  0.36683  0.22805  1.0000
  H   H2230     1.0  0.86124  0.29093  0.24303  1.0000
  H   H2231     1.0  0.85678  0.31092  0.20510  1.0000
  H   H2232     1.0  0.73048  0.31383  0.29997  1.0000
  H   H2233     1.0  0.94441  0.33088  0.28278  1.0000
  C   C1297     1.0  0.75624  0.04546  0.26590  1.0000
  H   H2234     1.0  0.84669  0.41469  0.16472  1.0000
  H   H2235     1.0  0.90595  0.27327  0.16793  1.0000
  H   H2236     1.0  0.87241  0.27280  0.18902  1.0000
  H   H2237     1.0  0.89077  0.28985  0.11304  1.0000
  H   H2238     1.0  0.85843  0.25058  0.12923  1.0000
  H   H2239     1.0  0.85638  0.28907  0.13418  1.0000
  H   H2240     1.0  0.84904  0.35179  0.24129  1.0000
  H   H2241     1.0  0.81932  0.30827  0.24934  1.0000
  H   H2242     1.0  0.85230  0.33172  0.27953  1.0000
  H   H2243     1.0  0.95501  0.21272  0.44715  1.0000
  H   H2244     1.0  0.75738  0.41184  0.17481  1.0000
  C   C1298     1.0  0.87943  0.11240  0.19103  1.0000
  C   C1299     1.0  0.77140  0.34637  0.26752  1.0000
  H   H2245     1.0  0.77012  0.36262  0.05060  1.0000
  H   H2246     1.0  0.91826  0.27143  0.41183  1.0000
  H   H2247     1.0  0.95056  0.01685  0.20626  1.0000
  N   N68       1.0  0.79616  0.99152  0.23670  1.0000
  C   C1300     1.0  0.76514  0.27555  0.41341  1.0000
  S   S309      1.0  0.86408  0.46228  0.02583  1.0000
  H   H2248     1.0  0.73710  0.45100  0.37518  1.0000
  C   C1301     1.0  0.79838  0.27699  0.41748  1.0000
  C   C1302     1.0  0.81700  0.28614  0.38379  1.0000
  H   H2249     1.0  0.79193  0.31318  0.47314  1.0000
  H   H2250     1.0  0.76866  0.29751  0.39805  1.0000
  H   H2251     1.0  0.94667  0.11277  0.23610  1.0000
  S   S310      1.0  0.94066  0.02704  0.36950  1.0000
  C   C1303     1.0  0.80220  0.42403  0.27153  1.0000
  S   S311      1.0  0.94822  0.46988  0.02828  1.0000
  C   C1304     1.0  0.89377  0.45211  0.46693  1.0000
  H   H2252     1.0  0.81449  0.29622  0.43705  1.0000
  H   H2253     1.0  0.79440  0.25172  0.42508  1.0000
  H   H2254     1.0  0.86208  0.08710  0.17934  1.0000
  C   C1305     1.0  0.76779  0.30887  0.46459  1.0000
  H   H2255     1.0  0.82337  0.31226  0.37629  1.0000
  H   H2256     1.0  0.83984  0.28533  0.38733  1.0000
  H   H2257     1.0  0.80263  0.26789  0.36259  1.0000
  S   S312      1.0  0.97520  0.98637  0.42411  1.0000
  C   C1306     1.0  0.79775  0.43360  0.02835  1.0000
  H   H2258     1.0  0.87170  0.13073  0.18335  1.0000
  C   C1307     1.0  0.92617  0.47016  0.14441  1.0000
  C   C1308     1.0  0.78035  0.23849  0.28472  1.0000
  H   H2259     1.0  0.97691  0.35394  0.44225  1.0000
  H   H2260     1.0  0.82738  0.03338  0.00000  1.0000
  H   H2261     1.0  0.84268  0.43514  0.46356  1.0000
  H   H2262     1.0  0.90803  0.23501  0.43793  1.0000
  H   H2263     1.0  0.91308  0.12337  0.14985  1.0000
  C   C1309     1.0  0.79909  0.40079  0.21327  1.0000
  H   H2264     1.0  0.75007  0.21811  0.17999  1.0000
  H   H2265     1.0  0.80698  0.25628  0.28349  1.0000
  H   H2266     1.0  0.77651  0.21357  0.29350  1.0000
  H   H2267     1.0  0.78148  0.02360  0.29201  1.0000
  H   H2268     1.0  0.93270  0.17750  0.17783  1.0000
  H   H2269     1.0  0.76153  0.06445  0.28714  1.0000
  C   C1310     1.0  0.94724  0.33965  0.37126  1.0000
  H   H2270     1.0  0.87853  0.11040  0.21960  1.0000
  H   H2271     1.0  0.73525  0.45034  0.19020  1.0000
  C   C1311     1.0  0.91375  0.12378  0.17855  1.0000
  H   H2272     1.0  0.76749  0.25973  0.24322  1.0000
  H   H2273     1.0  0.73975  0.36760  0.27471  1.0000
  H   H2274     1.0  0.82342  0.47700  0.44551  1.0000
  C   C1312     1.0  0.75586  0.36703  0.25415  1.0000
  C   C1313     1.0  0.95103  0.03666  0.15576  1.0000
  C   C1314     1.0  0.83639  0.07608  0.05467  1.0000
  N   N69       1.0  0.97466  0.26098  0.42199  1.0000
  H   H2275     1.0  0.95202  0.12729  0.08161  1.0000
  C   C1315     1.0  0.83557  0.08471  0.09369  1.0000
  H   H2276     1.0  0.78806  0.35973  0.28972  1.0000
  H   H2277     1.0  0.97672  0.36398  0.20208  1.0000
  H   H2278     1.0  0.86702  0.04253  0.41885  1.0000
  H   H2279     1.0  0.82481  0.01314  0.38824  1.0000
  H   H2280     1.0  0.82209  0.02280  0.45883  1.0000
  S   S313      1.0  0.91022  0.47838  0.30173  1.0000
  H   H2281     1.0  0.84485  0.24765  0.44790  1.0000
  H   H2282     1.0  0.89682  0.05754  0.24751  1.0000
  H   H2283     1.0  0.90089  0.45372  0.13729  1.0000
  H   H2284     1.0  0.74612  0.31777  0.05983  1.0000
  H   H2285     1.0  0.77837  0.22856  0.23042  1.0000
  C   C1316     1.0  0.94499  0.24519  0.39851  1.0000
  H   H2286     1.0  0.97008  0.34411  0.38166  1.0000
  C   C1317     1.0  0.86593  0.45981  0.46526  1.0000
  C   C1318     1.0  0.88480  0.22285  0.38835  1.0000
  C   C1319     1.0  0.85509  0.00218  0.05737  1.0000
  C   C1320     1.0  0.75872  0.32645  0.98855  1.0000
  H   H2287     1.0  0.93817  0.21849  0.39209  1.0000
  H   H2288     1.0  0.95032  0.25809  0.37346  1.0000
  H   H2289     1.0  0.77478  0.44671  0.23088  1.0000
  H   H2290     1.0  0.84437  0.45022  0.21383  1.0000
  H   H2291     1.0  0.81496  0.39081  0.22226  1.0000
  H   H2292     1.0  0.73155  0.02344  0.26970  1.0000
  C   C1321     1.0  0.78591  0.42588  0.30543  1.0000
  C   C1322     1.0  0.76521  0.47180  0.44477  1.0000
  N   N70       1.0  0.74795  0.27446  0.44649  1.0000
  H   H2293     1.0  0.87787  0.19562  0.39003  1.0000
  H   H2294     1.0  0.86370  0.22550  0.39625  1.0000
  H   H2295     1.0  0.89013  0.23044  0.36106  1.0000
  N   N71       1.0  0.85582  0.05890  0.04623  1.0000
  H   H2296     1.0  0.96828  0.06272  0.16330  1.0000
  C   C1323     1.0  0.97197  0.18494  0.33684  1.0000
  C   C1324     1.0  0.83988  0.02514  0.06413  1.0000
  C   C1325     1.0  0.89101  0.07961  0.05809  1.0000
  C   C1326     1.0  0.90705  0.11905  0.05759  1.0000
  H   H2297     1.0  0.78410  0.06903  0.09547  1.0000
  C   C1327     1.0  0.74606  0.24754  0.47006  1.0000
  H   H2298     1.0  0.89955  0.12839  0.08048  1.0000
  Fe  Fe158     1.0  0.95939  0.00348  0.31565  1.0000
  C   C1328     1.0  0.94413  0.13607  0.05896  1.0000
  H   H2299     1.0  0.88483  0.27722  0.46572  1.0000
  H   H2300     1.0  0.92014  0.10465  0.18667  1.0000
  C   C1329     1.0  0.97506  0.17297  0.36875  1.0000
  H   H2301     1.0  0.81877  0.99951  0.16567  1.0000
  C   C1330     1.0  0.83437  0.42988  0.16182  1.0000
  Fe  Fe159     1.0  0.95986  0.43064  0.31892  1.0000
  H   H2302     1.0  0.77949  0.02326  0.21294  1.0000
  H   H2303     1.0  0.84059  0.02910  0.09258  1.0000
  H   H2304     1.0  0.89421  0.07354  0.08506  1.0000
  H   H2305     1.0  0.90615  0.07203  0.04270  1.0000
  H   H2306     1.0  0.90874  0.02790  0.23212  1.0000
  H   H2307     1.0  0.85603  0.09738  0.98704  1.0000
  H   H2308     1.0  0.85336  0.08170  0.10967  1.0000
  C   C1331     1.0  0.90029  0.05527  0.46075  1.0000
  H   H2309     1.0  0.88162  0.01631  0.06303  1.0000
  C   C1332     1.0  0.96693  0.24042  0.45417  1.0000
  C   C1333     1.0  0.93860  0.16022  0.19234  1.0000
  H   H2310     1.0  0.95316  0.12970  0.03517  1.0000
  C   C1334     1.0  0.93061  0.08209  0.44275  1.0000
  C   C1335     1.0  0.82503  0.44820  0.00692  1.0000
  C   C1336     1.0  0.80177  0.06381  0.10902  1.0000
  H   H2311     1.0  0.78937  0.98678  0.41294  1.0000
  C   C1337     1.0  0.95500  0.28997  0.27703  1.0000
  H   H2312     1.0  0.90854  0.98816  0.08590  1.0000
  C   C1338     1.0  0.78175  0.03422  0.26648  1.0000
  H   H2313     1.0  0.81967  0.41524  0.27802  1.0000
  H   H2314     1.0  0.90022  0.12814  0.03451  1.0000
  H   H2315     1.0  0.73904  0.35157  0.23263  1.0000
  H   H2316     1.0  0.92381  0.08965  0.41837  1.0000
  H   H2317     1.0  0.75678  0.29712  0.28922  1.0000
  Fe  Fe160     1.0  0.96632  0.98796  0.99272  1.0000
  H   H2318     1.0  0.78084  0.99956  0.16625  1.0000
  S   S314      1.0  0.96073  0.39850  0.40904  1.0000
  H   H2319     1.0  0.82956  0.42836  0.40152  1.0000
  C   C1339     1.0  0.83140  0.01890  0.23512  1.0000
  C   C1340     1.0  0.97314  0.30757  0.46173  1.0000
  S   S315      1.0  0.97673  0.47633  0.28503  1.0000
  H   H2320     1.0  0.77297  0.32955  0.44624  1.0000
  H   H2321     1.0  0.97415  0.10997  0.20565  1.0000
  H   H2322     1.0  0.77552  0.40144  0.31899  1.0000
  H   H2323     1.0  0.75176  0.17186  0.21475  1.0000
  H   H2324     1.0  0.81778  0.45067  0.26316  1.0000
  H   H2325     1.0  0.96568  0.37916  0.23920  1.0000
  H   H2326     1.0  0.78297  0.35014  0.99117  1.0000
  H   H2327     1.0  0.96449  0.09512  0.33397  1.0000
  H   H2328     1.0  0.84279  0.11199  0.09665  1.0000
  C   C1341     1.0  0.75293  0.16129  0.16114  1.0000
  H   H2329     1.0  0.88854  0.06843  0.47343  1.0000
  N   N72       1.0  0.97435  0.17121  0.18935  1.0000
  C   C1342     1.0  0.76614  0.42194  0.01495  1.0000
  H   H2330     1.0  0.78528  0.34213  0.24702  1.0000
  H   H2331     1.0  0.93081  0.27031  0.28604  1.0000
  C   C1343     1.0  0.95746  0.39834  0.19230  1.0000
  H   H2332     1.0  0.85140  0.28443  0.47320  1.0000
  H   H2333     1.0  0.73196  0.35316  0.00109  1.0000
  H   H2334     1.0  0.76124  0.30657  0.00192  1.0000
  H   H2335     1.0  0.93314  0.39205  0.18225  1.0000
  H   H2336     1.0  0.77021  0.24916  0.30372  1.0000
  H   H2337     1.0  0.78288  0.38224  0.19293  1.0000
  H   H2338     1.0  0.96714  0.12776  0.15738  1.0000
  C   C1344     1.0  0.74518  0.31129  0.27910  1.0000
  C   C1345     1.0  0.93710  0.47026  0.17800  1.0000
  S   S316      1.0  0.90898  0.44338  0.20810  1.0000
  S   S317      1.0  0.93988  0.05696  0.99207  1.0000
  C   C1346     1.0  0.73436  0.33170  0.01045  1.0000
  H   H2339     1.0  0.74548  0.41101  0.03186  1.0000
  C   C1347     1.0  0.85828  0.26444  0.47054  1.0000
  H   H2340     1.0  0.75790  0.14029  0.16626  1.0000
  N   N73       1.0  0.77921  0.40258  0.24258  1.0000
  H   H2341     1.0  0.74085  0.41420  0.25121  1.0000
  C   C1348     1.0  0.75940  0.41858  0.23163  1.0000
  H   H2342     1.0  0.96512  0.42058  0.21037  1.0000
  C   C1349     1.0  0.93965  0.02836  0.12147  1.0000
  C   C1350     1.0  0.74553  0.33965  0.04828  1.0000
  H   H2343     1.0  0.75650  0.05738  0.24111  1.0000
  C   C1351     1.0  0.80908  0.98708  0.39745  1.0000
  H   H2344     1.0  0.83542  0.03551  0.21288  1.0000
  H   H2345     1.0  0.73235  0.25441  0.20461  1.0000
  H   H2346     1.0  0.77657  0.18490  0.15723  1.0000
  H   H2347     1.0  0.80570  0.05742  0.26359  1.0000
  H   H2348     1.0  0.81879  0.47934  0.31756  1.0000
  C   C1352     1.0  0.89074  0.03641  0.22852  1.0000
  N   N74       1.0  0.84874  0.99666  0.44851  1.0000
  H   H2349     1.0  0.86827  0.47296  0.44088  1.0000
  S   S318      1.0  0.73646  0.12168  0.26517  1.0000
  C   C1353     1.0  0.74051  0.40559  0.19668  1.0000
  C   C1354     1.0  0.76138  0.42463  0.97980  1.0000
  H   H2350     1.0  0.96315  0.27808  0.25719  1.0000
  H   H2351     1.0  0.75041  0.44470  0.45195  1.0000
  C   C1355     1.0  0.97243  0.12418  0.22830  1.0000
  H   H2352     1.0  0.94698  0.07190  0.43626  1.0000
  H   H2353     1.0  0.85115  0.99276  0.03025  1.0000
  S   S319      1.0  0.73115  0.00459  0.34017  1.0000
  S   S320      1.0  0.95429  0.05939  0.08985  1.0000
  H   H2354     1.0  0.97859  0.33971  0.25639  1.0000
  H   H2355     1.0  0.96968  0.16199  0.13428  1.0000
  H   H2356     1.0  0.73995  0.47866  0.99900  1.0000
  C   C1356     1.0  0.86750  0.08144  0.98352  1.0000
  H   H2357     1.0  0.73972  0.01754  0.98497  1.0000
  H   H2358     1.0  0.97299  0.38960  0.14205  1.0000
  Fe  Fe161     1.0  0.97436  0.48281  0.97803  1.0000
  H   H2359     1.0  0.85710  0.99607  0.25970  1.0000
  H   H2360     1.0  0.73477  0.20868  0.42865  1.0000
  H   H2361     1.0  0.85090  0.98723  0.21362  1.0000
  H   H2362     1.0  0.74921  0.98866  0.23643  1.0000
  H   H2363     1.0  0.94377  0.10507  0.45969  1.0000
  C   C1357     1.0  0.82891  0.00578  0.47200  1.0000
  H   H2364     1.0  0.97888  0.09176  0.26401  1.0000
  H   H2365     1.0  0.72925  0.00553  0.46122  1.0000
  H   H2366     1.0  0.76068  0.19464  0.47595  1.0000
  H   H2367     1.0  0.92384  0.15923  0.47916  1.0000
  H   H2368     1.0  0.80305  0.07189  0.75039  1.0000
  H   H2369     1.0  0.76416  0.15267  0.58241  1.0000
  C   C1358     1.0  0.74593  0.02431  0.95767  1.0000
  H   H2370     1.0  0.76329  0.17297  0.81860  1.0000
  H   H2371     1.0  0.79623  0.21961  0.78441  1.0000
  Fe  Fe162     1.0  0.82874  0.11174  0.69882  1.0000
  S   S321      1.0  0.85665  0.14898  0.65774  1.0000
  S   S322      1.0  0.77412  0.09126  0.68981  1.0000
  Fe  Fe163     1.0  0.89128  0.11206  0.72269  1.0000
  S   S323      1.0  0.92267  0.14971  0.68332  1.0000
  S   S324      1.0  0.90905  0.08275  0.75531  1.0000
  Fe  Fe164     1.0  0.89656  0.17839  0.69714  1.0000
  S   S325      1.0  0.91707  0.23517  0.68690  1.0000
  Fe  Fe165     1.0  0.88043  0.11814  0.64758  1.0000
  S   S326      1.0  0.88585  0.10216  0.59412  1.0000
  S   S327      1.0  0.86725  0.14279  0.73970  1.0000
  S   S328      1.0  0.85052  0.07894  0.68550  1.0000
  S   S329      1.0  0.75886  0.06421  0.50885  1.0000
  H   H2372     1.0  0.76256  0.11787  0.55706  1.0000
  S   S330      1.0  0.84727  0.13812  0.92334  1.0000
  Fe  Fe166     1.0  0.81891  0.19901  0.88584  1.0000
  S   S331      1.0  0.84079  0.17391  0.85326  1.0000
  S   S332      1.0  0.80970  0.23792  0.85775  1.0000
  Fe  Fe167     1.0  0.80888  0.12600  0.88232  1.0000
  S   S333      1.0  0.77239  0.07577  0.85436  1.0000
  Fe  Fe168     1.0  0.87768  0.18825  0.89660  1.0000
  S   S334      1.0  0.93382  0.21403  0.89608  1.0000
  S   S335      1.0  0.78504  0.15048  0.91230  1.0000
  S   S336      1.0  0.85730  0.21560  0.92818  1.0000
  H   H2373     1.0  0.75541  0.07832  0.76328  1.0000
  N   N75       1.0  0.75232  0.17550  0.76474  1.0000
  H   H2374     1.0  0.97623  0.15416  0.53572  1.0000
  C   C1359     1.0  0.92923  0.29147  0.83591  1.0000
  C   C1360     1.0  0.77580  0.01728  0.75901  1.0000
  H   H2375     1.0  0.77392  0.18126  0.69247  1.0000
  C   C1361     1.0  0.73618  0.07061  0.71127  1.0000
  C   C1362     1.0  0.78864  0.43937  0.95832  1.0000
  H   H2376     1.0  0.94348  0.22146  0.82049  1.0000
  C   C1363     1.0  0.77602  0.24511  0.85363  1.0000
  C   C1364     1.0  0.77971  0.27274  0.83426  1.0000
  H   H2377     1.0  0.90808  0.24617  0.80260  1.0000
  H   H2378     1.0  0.80272  0.28897  0.82216  1.0000
  H   H2379     1.0  0.95395  0.37357  0.92540  1.0000
  C   C1365     1.0  0.84856  0.08501  0.57165  1.0000
  C   C1366     1.0  0.84805  0.08066  0.53592  1.0000
  C   C1367     1.0  0.82043  0.07398  0.51646  1.0000
  C   C1368     1.0  0.79236  0.06906  0.53301  1.0000
  C   C1369     1.0  0.79164  0.06955  0.56913  1.0000
  C   C1370     1.0  0.82002  0.07834  0.58849  1.0000
  H   H2380     1.0  0.86963  0.08410  0.52326  1.0000
  H   H2381     1.0  0.74263  0.20305  0.88400  1.0000
  H   H2382     1.0  0.76979  0.06510  0.58214  1.0000
  H   H2383     1.0  0.81994  0.08090  0.61627  1.0000
  C   C1371     1.0  0.93923  0.07344  0.73994  1.0000
  H   H2384     1.0  0.95229  0.29123  0.83975  1.0000
  H   H2385     1.0  0.77423  0.37090  0.93955  1.0000
  H   H2386     1.0  0.76394  0.29346  0.91021  1.0000
  C   C1372     1.0  0.96726  0.06870  0.86387  1.0000
  C   C1373     1.0  0.90271  0.11793  0.85545  1.0000
  C   C1374     1.0  0.94002  0.04471  0.75178  1.0000
  H   H2387     1.0  0.94981  0.17449  0.57705  1.0000
  H   H2388     1.0  0.89390  0.15430  0.82843  1.0000
  C   C1375     1.0  0.94048  0.27554  0.70837  1.0000
  C   C1376     1.0  0.94647  0.30480  0.69063  1.0000
  H   H2389     1.0  0.87548  0.00773  0.82660  1.0000
  C   C1377     1.0  0.74040  0.15195  0.73340  1.0000
  C   C1378     1.0  0.73367  0.00874  0.83337  1.0000
  C   C1379     1.0  0.95348  0.27950  0.74176  1.0000
  H   H2390     1.0  0.93625  0.30205  0.66498  1.0000
  H   H2391     1.0  0.85875  0.00114  0.86931  1.0000
  H   H2392     1.0  0.79832  0.01564  0.71144  1.0000
  H   H2393     1.0  0.84384  0.02092  0.49483  1.0000
  H   H2394     1.0  0.87546  0.05502  0.94024  1.0000
  H   H2395     1.0  0.76335  0.39856  0.60974  1.0000
  C   C1380     1.0  0.77504  0.31113  0.93299  1.0000
  C   C1381     1.0  0.77319  0.00711  0.72018  1.0000
  H   H2396     1.0  0.93151  0.30703  0.81329  1.0000
  H   H2397     1.0  0.89202  0.43749  0.49020  1.0000
  C   C1382     1.0  0.90267  0.15064  0.49638  1.0000
  H   H2398     1.0  0.96181  0.29181  0.90263  1.0000
  N   N76       1.0  0.74990  0.31727  0.95075  1.0000
  Fe  Fe169     1.0  0.82503  0.16480  0.95234  1.0000
  H   H2399     1.0  0.73608  0.12547  0.66572  1.0000
  C   C1383     1.0  0.73628  0.47141  0.83301  1.0000
  H   H2400     1.0  0.87034  0.98966  0.49486  1.0000
  C   C1384     1.0  0.78791  0.20187  0.76144  1.0000
  H   H2401     1.0  0.74809  0.43158  0.64906  1.0000
  H   H2402     1.0  0.92505  0.25202  0.61189  1.0000
  H   H2403     1.0  0.96314  0.17913  0.96589  1.0000
  H   H2404     1.0  0.77875  0.99945  0.77567  1.0000
  C   C1385     1.0  0.75252  0.31552  0.49712  1.0000
  H   H2405     1.0  0.83043  0.28340  0.94962  1.0000
  H   H2406     1.0  0.81509  0.47642  0.53878  1.0000
  C   C1386     1.0  0.74942  0.15541  0.79645  1.0000
  H   H2407     1.0  0.75334  0.45615  0.59103  1.0000
  H   H2408     1.0  0.96515  0.03931  0.81783  1.0000
  H   H2409     1.0  0.87152  0.35995  0.94624  1.0000
  C   C1387     1.0  0.82031  0.45097  0.97173  1.0000
  H   H2410     1.0  0.88088  0.11446  0.80490  1.0000
  H   H2411     1.0  0.74393  0.47406  0.74548  1.0000
  C   C1388     1.0  0.75014  0.37800  0.88017  1.0000
  N   N77       1.0  0.95860  0.12078  0.86165  1.0000
  H   H2412     1.0  0.97114  0.02327  0.85757  1.0000
  C   C1389     1.0  0.76212  0.03219  0.85176  1.0000
  H   H2413     1.0  0.90261  0.12915  0.88115  1.0000
  C   C1390     1.0  0.74604  0.22446  0.86911  1.0000
  C   C1391     1.0  0.96693  0.23102  0.83308  1.0000
  H   H2414     1.0  0.91959  0.28360  0.58974  1.0000
  H   H2415     1.0  0.91434  0.38604  0.95562  1.0000
  H   H2416     1.0  0.75075  0.29850  0.51814  1.0000
  H   H2417     1.0  0.88165  0.32376  0.90592  1.0000
  C   C1392     1.0  0.96354  0.09517  0.71766  1.0000
  C   C1393     1.0  0.96826  0.40393  0.86331  1.0000
  H   H2418     1.0  0.79475  0.33516  0.92212  1.0000
  C   C1394     1.0  0.75101  0.47031  0.86397  1.0000
  H   H2419     1.0  0.73159  0.35838  0.59197  1.0000
  H   H2420     1.0  0.76901  0.12020  0.60310  1.0000
  H   H2421     1.0  0.90803  0.04372  0.48084  1.0000
  C   C1395     1.0  0.95113  0.15356  0.95290  1.0000
  H   H2422     1.0  0.80316  0.03788  0.88123  1.0000
  H   H2423     1.0  0.75779  0.33521  0.88051  1.0000
  H   H2424     1.0  0.79509  0.06247  0.97338  1.0000
  H   H2425     1.0  0.87351  0.20252  0.58510  1.0000
  H   H2426     1.0  0.91833  0.25555  0.53334  1.0000
  H   H2427     1.0  0.79159  0.21862  0.73934  1.0000
  H   H2428     1.0  0.91439  0.28712  0.88951  1.0000
  H   H2429     1.0  0.90977  0.14650  0.52240  1.0000
  H   H2430     1.0  0.93702  0.12684  0.81495  1.0000
  H   H2431     1.0  0.88277  0.12644  0.48507  1.0000
  H   H2432     1.0  0.96179  0.18011  0.62180  1.0000
  C   C1396     1.0  0.85445  0.99045  0.84248  1.0000
  H   H2433     1.0  0.77483  0.37028  0.49079  1.0000
  H   H2434     1.0  0.96186  0.06319  0.89157  1.0000
  H   H2435     1.0  0.74421  0.37467  0.85210  1.0000
  C   C1397     1.0  0.90220  0.34946  0.91277  1.0000
  C   C1398     1.0  0.74938  0.47511  0.60541  1.0000
  H   H2436     1.0  0.90284  0.36754  0.89360  1.0000
  H   H2437     1.0  0.86360  0.20756  0.74993  1.0000
  H   H2438     1.0  0.79475  0.00198  0.53227  1.0000
  H   H2439     1.0  0.91785  0.02430  0.53620  1.0000
  H   H2440     1.0  0.94385  0.02496  0.57092  1.0000
  H   H2441     1.0  0.93121  0.32965  0.93344  1.0000
  C   C1399     1.0  0.95430  0.12087  0.90017  1.0000
  H   H2442     1.0  0.82332  0.23282  0.50711  1.0000
  H   H2443     1.0  0.83229  0.98944  0.83152  1.0000
  C   C1400     1.0  0.96460  0.03761  0.74121  1.0000
  H   H2444     1.0  0.75341  0.01745  0.76664  1.0000
  H   H2445     1.0  0.79491  0.25937  0.92280  1.0000
  C   C1401     1.0  0.81198  0.18821  0.75778  1.0000
  H   H2446     1.0  0.77650  0.27612  0.97144  1.0000
  H   H2447     1.0  0.96871  0.11131  0.91347  1.0000
  H   H2448     1.0  0.74743  0.44621  0.87271  1.0000
  H   H2449     1.0  0.95823  0.17117  0.90135  1.0000
  H   H2450     1.0  0.77205  0.00321  0.49513  1.0000
  C   C1402     1.0  0.89489  0.35995  0.94783  1.0000
  C   C1403     1.0  0.92917  0.26577  0.58738  1.0000
  H   H2451     1.0  0.91345  0.20179  0.50424  1.0000
  H   H2452     1.0  0.78526  0.44200  0.93117  1.0000
  C   C1404     1.0  0.88265  0.12629  0.83078  1.0000
  C   C1405     1.0  0.78123  0.02030  0.86698  1.0000
  S   S337      1.0  0.95383  0.00588  0.94386  1.0000
  C   C1406     1.0  0.93462  0.34889  0.91410  1.0000
  C   C1407     1.0  0.77340  0.35225  0.51062  1.0000
  C   C1408     1.0  0.90267  0.25500  0.82730  1.0000
  H   H2453     1.0  0.82442  0.30256  0.91193  1.0000
  C   C1409     1.0  0.92039  0.30548  0.86836  1.0000
  H   H2454     1.0  0.96782  0.06006  0.50137  1.0000
  H   H2455     1.0  0.77623  0.39747  0.88385  1.0000
  H   H2456     1.0  0.92379  0.22409  0.55602  1.0000
  C   C1410     1.0  0.94776  0.08488  0.84915  1.0000
  C   C1411     1.0  0.91270  0.24056  0.55707  1.0000
  H   H2457     1.0  0.95582  0.28085  0.58327  1.0000
  H   H2458     1.0  0.96059  0.44910  0.59790  1.0000
  H   H2459     1.0  0.73165  0.35242  0.94585  1.0000
  H   H2460     1.0  0.79505  0.00127  0.65584  1.0000
  H   H2461     1.0  0.76559  0.02318  0.70605  1.0000
  C   C1412     1.0  0.96550  0.15626  0.91720  1.0000
  H   H2462     1.0  0.84609  0.22595  0.72258  1.0000
  Fe  Fe170     1.0  0.91092  0.00239  0.97289  1.0000
  H   H2463     1.0  0.77098  0.25373  0.47832  1.0000
  N   N78       1.0  0.85560  0.19562  0.53236  1.0000
  H   H2464     1.0  0.85564  0.46113  0.51836  1.0000
  C   C1413     1.0  0.86440  0.16830  0.52447  1.0000
  C   C1414     1.0  0.82018  0.17806  0.54223  1.0000
  C   C1415     1.0  0.87566  0.21821  0.56248  1.0000
  H   H2465     1.0  0.83604  0.05219  0.93954  1.0000
  H   H2466     1.0  0.75424  0.00740  0.94617  1.0000
  C   C1416     1.0  0.81131  0.15618  0.57492  1.0000
  C   C1417     1.0  0.89181  0.17707  0.49793  1.0000
  H   H2467     1.0  0.92192  0.06754  0.85576  1.0000
  H   H2468     1.0  0.80503  0.06020  0.79399  1.0000
  C   C1418     1.0  0.77447  0.13555  0.57952  1.0000
  H   H2469     1.0  0.74641  0.21943  0.75548  1.0000
  H   H2470     1.0  0.80429  0.16826  0.73714  1.0000
  H   H2471     1.0  0.87119  0.16027  0.54864  1.0000
  C   C1419     1.0  0.94175  0.02670  0.54257  1.0000
  H   H2472     1.0  0.94979  0.16100  0.84467  1.0000
  H   H2473     1.0  0.81219  0.19685  0.54771  1.0000
  H   H2474     1.0  0.86591  0.23480  0.57139  1.0000
  H   H2475     1.0  0.92473  0.14456  0.95041  1.0000
  H   H2476     1.0  0.94702  0.42083  0.82377  1.0000
  C   C1420     1.0  0.77932  0.98718  0.50964  1.0000
  H   H2477     1.0  0.86324  0.26192  0.52525  1.0000
  H   H2478     1.0  0.82170  0.17264  0.59848  1.0000
  H   H2479     1.0  0.82083  0.13842  0.57363  1.0000
  H   H2480     1.0  0.90175  0.23803  0.84794  1.0000
  C   C1421     1.0  0.77472  0.06068  0.95759  1.0000
  H   H2481     1.0  0.88430  0.22824  0.49113  1.0000
  H   H2482     1.0  0.89021  0.08987  0.85737  1.0000
  C   C1422     1.0  0.96955  0.06034  0.53002  1.0000
  H   H2483     1.0  0.76220  0.35635  0.53398  1.0000
  C   C1423     1.0  0.75029  0.34742  0.93436  1.0000
  C   C1424     1.0  0.94832  0.36554  0.85289  1.0000
  H   H2484     1.0  0.84101  0.46208  0.95491  1.0000
  C   C1425     1.0  0.80477  0.05289  0.76645  1.0000
  H   H2485     1.0  0.87854  0.25321  0.82481  1.0000
  H   H2486     1.0  0.80302  0.45217  0.48165  1.0000
  H   H2487     1.0  0.96008  0.36199  0.82957  1.0000
  C   C1426     1.0  0.77224  0.98561  0.86316  1.0000
  N   N79       1.0  0.94541  0.34106  0.88030  1.0000
  H   H2488     1.0  0.74174  0.19065  0.69869  1.0000
  H   H2489     1.0  0.87207  0.09113  0.92861  1.0000
  H   H2490     1.0  0.81047  0.46925  0.80113  1.0000
  C   C1427     1.0  0.84601  0.21690  0.74900  1.0000
  H   H2491     1.0  0.79837  0.35777  0.51742  1.0000
  H   H2492     1.0  0.75739  0.30125  0.81569  1.0000
  H   H2493     1.0  0.92385  0.36001  0.84368  1.0000
  H   H2494     1.0  0.76228  0.47206  0.68724  1.0000
  H   H2495     1.0  0.81394  0.17731  0.78243  1.0000
  H   H2496     1.0  0.95640  0.41041  0.88437  1.0000
  H   H2497     1.0  0.84290  0.14476  0.51363  1.0000
  H   H2498     1.0  0.94927  0.25730  0.75574  1.0000
  C   C1428     1.0  0.81198  0.28520  0.93346  1.0000
  C   C1429     1.0  0.86232  0.06906  0.94575  1.0000
  H   H2499     1.0  0.95499  0.13592  0.96901  1.0000
  H   H2500     1.0  0.85431  0.23864  0.76770  1.0000
  H   H2501     1.0  0.89695  0.30423  0.86183  1.0000
  H   H2502     1.0  0.96975  0.35981  0.69169  1.0000
  C   C1430     1.0  0.75399  0.27980  0.83051  1.0000
  H   H2503     1.0  0.82114  0.07326  0.48866  1.0000
  H   H2504     1.0  0.92143  0.02774  0.76908  1.0000
  H   H2505     1.0  0.96364  0.11762  0.70870  1.0000
  H   H2506     1.0  0.78327  0.06807  0.93086  1.0000
  H   H2507     1.0  0.82803  0.05345  0.76122  1.0000
  H   H2508     1.0  0.94315  0.00533  0.52985  1.0000
  C   C1431     1.0  0.97140  0.42617  0.83285  1.0000
  C   C1432     1.0  0.96555  0.33763  0.70569  1.0000
  H   H2509     1.0  0.92869  0.10277  0.90704  1.0000
  H   H2510     1.0  0.93146  0.01699  0.84682  1.0000
  C   C1433     1.0  0.85902  0.21558  0.50037  1.0000
  H   H2511     1.0  0.94871  0.09317  0.53108  1.0000
  H   H2512     1.0  0.73651  0.20365  0.79722  1.0000
  H   H2513     1.0  0.73489  0.38716  0.89290  1.0000
  H   H2514     1.0  0.85761  0.11593  0.84068  1.0000
  C   C1434     1.0  0.74313  0.34406  0.89489  1.0000
  C   C1435     1.0  0.84986  0.24389  0.50348  1.0000
  H   H2515     1.0  0.97004  0.20908  0.51456  1.0000
  H   H2516     1.0  0.76067  0.13922  0.79193  1.0000
  H   H2517     1.0  0.80456  0.16152  0.52023  1.0000
  C   C1436     1.0  0.79326  0.29767  0.95544  1.0000
  C   C1437     1.0  0.93821  0.13278  0.84307  1.0000
  C   C1438     1.0  0.97222  0.31241  0.75705  1.0000
  H   H2518     1.0  0.94802  0.08343  0.82044  1.0000
  C   C1439     1.0  0.96891  0.23026  0.86909  1.0000
  C   C1440     1.0  0.95804  0.03498  0.84528  1.0000
  H   H2519     1.0  0.75131  0.13530  0.73283  1.0000
  H   H2520     1.0  0.95799  0.12780  0.59659  1.0000
  H   H2521     1.0  0.95892  0.08523  0.57218  1.0000
  C   C1441     1.0  0.73368  0.06813  0.74721  1.0000
  H   H2522     1.0  0.96480  0.01537  0.75042  1.0000
  H   H2523     1.0  0.97558  0.25056  0.52689  1.0000
  C   C1442     1.0  0.97016  0.17993  0.59518  1.0000
  H   H2524     1.0  0.73340  0.15870  0.64418  1.0000
  C   C1443     1.0  0.74765  0.16990  0.69829  1.0000
  C   C1444     1.0  0.73841  0.37702  0.61388  1.0000
  H   H2525     1.0  0.81106  0.31859  0.97290  1.0000
  H   H2526     1.0  0.73809  0.36410  0.63805  1.0000
  C   C1445     1.0  0.73446  0.19515  0.76971  1.0000
  C   C1446     1.0  0.96816  0.09139  0.54556  1.0000
  C   C1447     1.0  0.74465  0.48112  0.69008  1.0000
  S   S338      1.0  0.85956  0.98500  0.95122  1.0000
  H   H2527     1.0  0.97733  0.35228  0.48847  1.0000
  H   H2528     1.0  0.76782  0.07891  0.96873  1.0000
  H   H2529     1.0  0.73360  0.24736  0.49429  1.0000
  H   H2530     1.0  0.75855  0.99236  0.60578  1.0000
  C   C1448     1.0  0.86571  0.48038  0.49780  1.0000
  H   H2531     1.0  0.97613  0.34042  0.62118  1.0000
  H   H2532     1.0  0.97466  0.32322  0.93727  1.0000
  H   H2533     1.0  0.89291  0.34192  0.96790  1.0000
  C   C1449     1.0  0.73445  0.18681  0.47686  1.0000
  H   H2534     1.0  0.84393  0.19781  0.47884  1.0000
  C   C1450     1.0  0.97874  0.34170  0.73895  1.0000
  C   C1451     1.0  0.97840  0.34438  0.88579  1.0000
  C   C1452     1.0  0.88228  0.87241  0.42070  1.0000
  S   S339      1.0  0.90669  0.90768  0.28322  1.0000
  C   C1453     1.0  0.91922  0.97699  0.16990  1.0000
  Fe  Fe171     1.0  0.89105  0.93488  0.32147  1.0000
  S   S340      1.0  0.83630  0.90606  0.33651  1.0000
  C   C1454     1.0  0.83946  0.97060  0.07947  1.0000
  N   N80       1.0  0.87707  0.56019  0.20041  1.0000
  Fe  Fe172     1.0  0.77907  0.56922  0.43156  1.0000
  S   S341      1.0  0.80998  0.62231  0.41413  1.0000
  Fe  Fe173     1.0  0.76538  0.53760  0.36002  1.0000
  S   S342      1.0  0.79569  0.58888  0.33713  1.0000
  C   C1455     1.0  0.95336  0.75108  0.47232  1.0000
  Fe  Fe174     1.0  0.83389  0.60143  0.37918  1.0000
  S   S343      1.0  0.88995  0.63063  0.38932  1.0000
  Fe  Fe175     1.0  0.77118  0.60851  0.37338  1.0000
  S   S344      1.0  0.76310  0.65358  0.36154  1.0000
  S   S345      1.0  0.80462  0.54812  0.39960  1.0000
  H   H2535     1.0  0.91535  0.94657  0.46120  1.0000
  Fe  Fe176     1.0  0.79316  0.64363  0.27432  1.0000
  S   S346      1.0  0.82347  0.69071  0.24268  1.0000
  C   C1456     1.0  0.76188  0.61182  0.15193  1.0000
  Fe  Fe177     1.0  0.85407  0.63564  0.28975  1.0000
  S   S347      1.0  0.88736  0.68280  0.25996  1.0000
  S   S348      1.0  0.86409  0.59288  0.30984  1.0000
  Fe  Fe178     1.0  0.86217  0.70890  0.28523  1.0000
  S   S349      1.0  0.88639  0.76608  0.30332  1.0000
  Fe  Fe179     1.0  0.84726  0.66278  0.21962  1.0000
  S   S350      1.0  0.86216  0.65686  0.16480  1.0000
  S   S351      1.0  0.83135  0.66387  0.31761  1.0000
  S   S352      1.0  0.81501  0.61506  0.24792  1.0000
  S   S353      1.0  0.82275  0.68928  0.01863  1.0000
  C   C1457     1.0  0.95557  0.67870  0.97983  1.0000
  C   C1458     1.0  0.88744  0.57429  0.32658  1.0000
  C   C1459     1.0  0.92125  0.58895  0.32311  1.0000
  C   C1460     1.0  0.93844  0.57369  0.33759  1.0000
  C   C1461     1.0  0.92242  0.54356  0.35673  1.0000
  C   C1462     1.0  0.88836  0.52851  0.35896  1.0000
  C   C1463     1.0  0.87127  0.54357  0.34426  1.0000
  H   H2536     1.0  0.93436  0.61266  0.30999  1.0000
  H   H2537     1.0  0.87502  0.50517  0.37283  1.0000
  H   H2538     1.0  0.84533  0.53192  0.34772  1.0000
  C   C1464     1.0  0.90930  0.80215  0.33249  1.0000
  C   C1465     1.0  0.91559  0.83447  0.32251  1.0000
  C   C1466     1.0  0.93110  0.86315  0.34520  1.0000
  C   C1467     1.0  0.94416  0.86152  0.37690  1.0000
  C   C1468     1.0  0.92028  0.79970  0.36547  1.0000
  H   H2539     1.0  0.90770  0.83742  0.29723  1.0000
  H   H2540     1.0  0.93391  0.88710  0.33778  1.0000
  H   H2541     1.0  0.77598  0.71999  0.38945  1.0000
  H   H2542     1.0  0.87804  0.86139  0.03860  1.0000
  C   C1469     1.0  0.85226  0.66760  0.12449  1.0000
  C   C1470     1.0  0.86254  0.65874  0.09393  1.0000
  C   C1471     1.0  0.85438  0.66579  0.06126  1.0000
  C   C1472     1.0  0.83587  0.68188  0.05888  1.0000
  C   C1473     1.0  0.82619  0.69137  0.08945  1.0000
  C   C1474     1.0  0.83438  0.68436  0.12209  1.0000
  H   H2543     1.0  0.87647  0.64586  0.09554  1.0000
  H   H2544     1.0  0.86186  0.65821  0.03799  1.0000
  H   H2545     1.0  0.81190  0.70386  0.08785  1.0000
  H   H2546     1.0  0.82651  0.69150  0.14538  1.0000
  C   C1475     1.0  0.92690  0.65481  0.36595  1.0000
  C   C1476     1.0  0.95653  0.66101  0.38083  1.0000
  C   C1477     1.0  0.73128  0.68137  0.22169  1.0000
  C   C1478     1.0  0.95800  0.68869  0.31719  1.0000
  C   C1479     1.0  0.92800  0.66924  0.33407  1.0000
  H   H2547     1.0  0.95638  0.64918  0.40469  1.0000
  H   H2548     1.0  0.90563  0.66520  0.32254  1.0000
  H   H2549     1.0  0.91602  0.77536  0.37387  1.0000
  H   H2550     1.0  0.76089  0.72028  0.25972  1.0000
  H   H2551     1.0  0.75200  0.61958  0.43558  1.0000
  H   H2552     1.0  0.84397  0.97793  0.10734  1.0000
  C   C1480     1.0  0.79229  0.49200  0.47148  1.0000
  C   C1481     1.0  0.80380  0.89106  0.36703  1.0000
  C   C1482     1.0  0.80906  0.89345  0.40288  1.0000
  C   C1483     1.0  0.78247  0.88121  0.42570  1.0000
  C   C1484     1.0  0.75014  0.86681  0.41324  1.0000
  C   C1485     1.0  0.74496  0.86359  0.37750  1.0000
  C   C1486     1.0  0.77142  0.87541  0.35470  1.0000
  H   H2553     1.0  0.83366  0.90516  0.41309  1.0000
  H   H2554     1.0  0.78704  0.88363  0.45325  1.0000
  H   H2555     1.0  0.83628  0.59324  0.46687  1.0000
  H   H2556     1.0  0.76657  0.87243  0.32725  1.0000
  C   C1487     1.0  0.90811  0.69768  0.44495  1.0000
  H   H2557     1.0  0.82392  0.71372  0.39573  1.0000
  H   H2558     1.0  0.81016  0.94876  0.42779  1.0000
  C   C1488     1.0  0.90196  0.86425  0.04596  1.0000
  C   C1489     1.0  0.74687  0.63584  0.45311  1.0000
  H   H2559     1.0  0.93895  0.49146  0.09410  1.0000
  H   H2560     1.0  0.78206  0.53472  0.22841  1.0000
  C   C1490     1.0  0.74620  0.62890  0.17232  1.0000
  H   H2561     1.0  0.79717  0.95154  0.20548  1.0000
  H   H2562     1.0  0.79003  0.94042  0.14141  1.0000
  H   H2563     1.0  0.90967  0.57947  0.41076  1.0000
  C   C1491     1.0  0.86729  0.53898  0.16737  1.0000
  C   C1492     1.0  0.89972  0.59695  0.19198  1.0000
  C   C1493     1.0  0.91505  0.62195  0.22350  1.0000
  C   C1494     1.0  0.91980  0.75424  0.00275  1.0000
  C   C1495     1.0  0.84582  0.54526  0.14159  1.0000
  H   H2564     1.0  0.75201  0.90494  0.24068  1.0000
  H   H2565     1.0  0.96586  0.78490  0.34717  1.0000
  N   N81       1.0  0.96887  0.92071  0.11544  1.0000
  S   S354      1.0  0.97468  0.97854  0.27422  1.0000
  H   H2566     1.0  0.88664  0.60699  0.17662  1.0000
  H   H2567     1.0  0.88876  0.67100  0.44994  1.0000
  H   H2568     1.0  0.81203  0.96249  0.35022  1.0000
  H   H2569     1.0  0.79644  0.49751  0.01695  1.0000
  H   H2570     1.0  0.85860  0.57201  0.13315  1.0000
  H   H2571     1.0  0.82246  0.53980  0.15324  1.0000
  H   H2572     1.0  0.90037  0.88166  0.09730  1.0000
  C   C1496     1.0  0.82834  0.97415  0.41867  1.0000
  H   H2573     1.0  0.73650  0.73122  0.23303  1.0000
  H   H2574     1.0  0.88759  0.58940  0.44207  1.0000
  C   C1497     1.0  0.74085  0.71298  0.46732  1.0000
  S   S355      1.0  0.90924  0.98242  0.28996  1.0000
  H   H2575     1.0  0.88277  0.76858  0.00875  1.0000
  H   H2576     1.0  0.88252  0.96351  0.42500  1.0000
  C   C1498     1.0  0.75827  0.58174  0.01958  1.0000
  H   H2577     1.0  0.89612  0.62478  0.23739  1.0000
  C   C1499     1.0  0.88865  0.97312  0.45212  1.0000
  H   H2578     1.0  0.73190  0.79654  0.37628  1.0000
  H   H2579     1.0  0.86723  0.67710  0.38563  1.0000
  H   H2580     1.0  0.74359  0.58494  0.14525  1.0000
  H   H2581     1.0  0.92575  0.54176  0.18653  1.0000
  C   C1500     1.0  0.75746  0.90550  0.98948  1.0000
  H   H2582     1.0  0.74702  0.67006  0.22390  1.0000
  C   C1501     1.0  0.95293  0.77265  0.21036  1.0000
  C   C1502     1.0  0.92183  0.77537  0.21455  1.0000
  H   H2583     1.0  0.87295  0.71814  0.37608  1.0000
  C   C1503     1.0  0.89145  0.71538  0.42671  1.0000
  C   C1504     1.0  0.83768  0.52221  0.10932  1.0000
  H   H2584     1.0  0.77037  0.65798  0.46201  1.0000
  C   C1505     1.0  0.89857  0.75890  0.18366  1.0000
  H   H2585     1.0  0.86026  0.52726  0.09590  1.0000
  C   C1506     1.0  0.88429  0.70477  0.38860  1.0000
  Fe  Fe180     1.0  0.91681  0.48981  0.00723  1.0000
  H   H2586     1.0  0.73535  0.65157  0.13046  1.0000
  H   H2587     1.0  0.94607  0.77752  0.28165  1.0000
  C   C1507     1.0  0.97706  0.95575  0.10433  1.0000
  H   H2588     1.0  0.92404  0.69483  0.42596  1.0000
  C   C1508     1.0  0.97003  0.49141  0.18678  1.0000
  H   H2589     1.0  0.81021  0.53957  0.00139  1.0000
  H   H2590     1.0  0.84376  0.96947  0.40038  1.0000
  H   H2591     1.0  0.92752  0.80218  0.21703  1.0000
  H   H2592     1.0  0.90866  0.76176  0.23775  1.0000
  H   H2593     1.0  0.75336  0.70410  0.44942  1.0000
  C   C1509     1.0  0.94172  0.70278  0.98717  1.0000
  H   H2594     1.0  0.94509  0.58100  0.21151  1.0000
  C   C1510     1.0  0.94788  0.49124  0.11969  1.0000
  H   H2595     1.0  0.73537  0.61346  0.19536  1.0000
  C   C1511     1.0  0.76435  0.90693  0.26562  1.0000
  H   H2596     1.0  0.78044  0.95929  0.46514  1.0000
  H   H2597     1.0  0.77838  0.57596  0.02055  1.0000
  H   H2598     1.0  0.75225  0.57990  0.07545  1.0000
  H   H2599     1.0  0.95929  0.66853  0.00416  1.0000
  H   H2600     1.0  0.89132  0.73159  0.18075  1.0000
  H   H2601     1.0  0.87621  0.76050  0.18779  1.0000
  H   H2602     1.0  0.74136  0.80404  0.33101  1.0000
  H   H2603     1.0  0.75589  0.51535  0.02748  1.0000
  H   H2604     1.0  0.75143  0.93927  0.14420  1.0000
  H   H2605     1.0  0.80126  0.53766  0.26977  1.0000
  S   S356      1.0  0.73648  0.62094  0.27192  1.0000
  C   C1512     1.0  0.90169  0.57623  0.43794  1.0000
  N   N82       1.0  0.82113  0.79814  0.35908  1.0000
  C   C1513     1.0  0.81346  0.76164  0.36001  1.0000
  C   C1514     1.0  0.83421  0.81205  0.32406  1.0000
  C   C1515     1.0  0.84808  0.81763  0.38554  1.0000
  C   C1516     1.0  0.79243  0.80266  0.36734  1.0000
  C   C1517     1.0  0.79968  0.74347  0.39465  1.0000
  C   C1518     1.0  0.86254  0.85669  0.38740  1.0000
  C   C1519     1.0  0.81015  0.79760  0.29298  1.0000
  C   C1520     1.0  0.82767  0.81223  0.25922  1.0000
  C   C1521     1.0  0.82222  0.73311  0.41217  1.0000
  C   C1522     1.0  0.91438  0.86916  0.19245  1.0000
  H   H2606     1.0  0.83542  0.75992  0.35316  1.0000
  H   H2607     1.0  0.79601  0.74585  0.33940  1.0000
  H   H2608     1.0  0.84417  0.84002  0.32378  1.0000
  H   H2609     1.0  0.85437  0.80745  0.31799  1.0000
  H   H2610     1.0  0.86872  0.81307  0.38088  1.0000
  H   H2611     1.0  0.83957  0.80834  0.41185  1.0000
  C   C1523     1.0  0.89347  0.54705  0.22405  1.0000
  H   H2612     1.0  0.77037  0.88623  0.26614  1.0000
  H   H2613     1.0  0.79437  0.75891  0.41316  1.0000
  C   C1524     1.0  0.97235  0.76654  0.33601  1.0000
  H   H2614     1.0  0.87893  0.86892  0.36549  1.0000
  H   H2615     1.0  0.79883  0.76961  0.29061  1.0000
  H   H2616     1.0  0.79099  0.80470  0.29555  1.0000
  H   H2617     1.0  0.84686  0.80538  0.25495  1.0000
  H   H2618     1.0  0.80993  0.80169  0.23729  1.0000
  H   H2619     1.0  0.83898  0.84042  0.25982  1.0000
  H   H2620     1.0  0.84692  0.75547  0.41654  1.0000
  H   H2621     1.0  0.81213  0.72156  0.43733  1.0000
  H   H2622     1.0  0.96530  0.54327  0.22904  1.0000
  H   H2623     1.0  0.85014  0.95428  0.07321  1.0000
  S   S357      1.0  0.74015  0.49436  0.31918  1.0000
  H   H2624     1.0  0.81289  0.95534  0.07387  1.0000
  H   H2625     1.0  0.78155  0.61206  0.16786  1.0000
  C   C1525     1.0  0.96451  0.77140  0.27179  1.0000
  H   H2626     1.0  0.89651  0.90051  0.41844  1.0000
  H   H2627     1.0  0.92685  0.61324  0.24219  1.0000
  S   S358      1.0  0.97419  0.94225  0.99953  1.0000
  H   H2628     1.0  0.96350  0.78237  0.18471  1.0000
  S   S359      1.0  0.73826  0.55610  0.39377  1.0000
  H   H2629     1.0  0.80560  0.94100  0.29654  1.0000
  H   H2630     1.0  0.91962  0.59933  0.17509  1.0000
  H   H2631     1.0  0.91895  0.68742  0.00176  1.0000
  H   H2632     1.0  0.94973  0.74159  0.33275  1.0000
  H   H2633     1.0  0.92715  0.91618  0.14249  1.0000
  H   H2634     1.0  0.77440  0.93848  0.37314  1.0000
  H   H2635     1.0  0.95816  0.69903  0.29241  1.0000
  H   H2636     1.0  0.86585  0.86601  0.44301  1.0000
  C   C1526     1.0  0.79185  0.51219  0.99737  1.0000
  S   S360      1.0  0.92146  0.98137  0.01975  1.0000
  H   H2637     1.0  0.95706  0.86069  0.46600  1.0000
  H   H2638     1.0  0.90197  0.73053  0.98861  1.0000
  H   H2639     1.0  0.78184  0.97543  0.34940  1.0000
  S   S361      1.0  0.93894  0.95586  0.34982  1.0000
  H   H2640     1.0  0.95105  0.74335  0.26741  1.0000
  H   H2641     1.0  0.96200  0.72518  0.08240  1.0000
  H   H2642     1.0  0.97868  0.49158  0.21264  1.0000
  H   H2643     1.0  0.94833  0.87039  0.09132  1.0000
  H   H2644     1.0  0.91012  0.77212  0.15956  1.0000
  H   H2645     1.0  0.75379  0.69807  0.31726  1.0000
  H   H2646     1.0  0.76358  0.60056  0.99918  1.0000
  C   C1527     1.0  0.78968  0.97225  0.26993  1.0000
  C   C1528     1.0  0.95127  0.67483  0.46953  1.0000
  H   H2647     1.0  0.90831  0.80202  0.45751  1.0000
  C   C1529     1.0  0.94087  0.65724  0.21215  1.0000
  H   H2648     1.0  0.89957  0.86312  0.42527  1.0000
  H   H2649     1.0  0.78277  0.62018  0.05996  1.0000
  H   H2650     1.0  0.96421  0.58611  0.33417  1.0000
  H   H2651     1.0  0.75898  0.76116  0.33078  1.0000
  C   C1530     1.0  0.92729  0.55343  0.21241  1.0000
  H   H2652     1.0  0.92375  0.58844  0.45480  1.0000
  H   H2653     1.0  0.74899  0.75281  0.37518  1.0000
  H   H2654     1.0  0.96302  0.74556  0.41712  1.0000
  H   H2655     1.0  0.88784  0.74822  0.04569  1.0000
  H   H2656     1.0  0.86018  0.52721  0.42652  1.0000
  H   H2657     1.0  0.90703  0.71119  0.37486  1.0000
  H   H2658     1.0  0.88928  0.54350  0.15300  1.0000
  H   H2659     1.0  0.94434  0.74486  0.20871  1.0000
  C   C1531     1.0  0.95127  0.89577  0.08595  1.0000
  H   H2660     1.0  0.96793  0.69133  0.44964  1.0000
  H   H2661     1.0  0.73834  0.69416  0.16774  1.0000
  H   H2662     1.0  0.78200  0.96824  0.11563  1.0000
  C   C1532     1.0  0.93412  0.87498  0.15971  1.0000
  H   H2663     1.0  0.79101  0.80676  0.39556  1.0000
  C   C1533     1.0  0.93804  0.82918  0.38716  1.0000
  H   H2664     1.0  0.90670  0.74343  0.42778  1.0000
  C   C1534     1.0  0.75844  0.77301  0.35570  1.0000
  C   C1535     1.0  0.75827  0.59821  0.05436  1.0000
  H   H2665     1.0  0.86800  0.70831  0.43930  1.0000
  C   C1536     1.0  0.91744  0.89067  0.07548  1.0000
  H   H2666     1.0  0.82243  0.52716  0.09116  1.0000
  C   C1537     1.0  0.79332  0.96433  0.36559  1.0000
  N   N83       1.0  0.96386  0.73613  0.00619  1.0000
  H   H2667     1.0  0.80457  0.51916  0.46475  1.0000
  Fe  Fe181     1.0  0.96113  0.50072  0.32723  1.0000
  H   H2668     1.0  0.91771  0.87251  0.02294  1.0000
  H   H2669     1.0  0.95881  0.77107  0.04112  1.0000
  C   C1538     1.0  0.77807  0.95613  0.14107  1.0000
  H   H2670     1.0  0.85554  0.57220  0.24316  1.0000
  S   S362      1.0  0.94232  0.52367  0.37968  1.0000
  H   H2671     1.0  0.79595  0.82652  0.35581  1.0000
  H   H2672     1.0  0.73780  0.77514  0.98942  1.0000
  H   H2673     1.0  0.89029  0.94300  0.12819  1.0000
  H   H2674     1.0  0.89607  0.55777  0.25082  1.0000
  C   C1539     1.0  0.84790  0.55785  0.21824  1.0000
  H   H2675     1.0  0.94301  0.54852  0.26397  1.0000
  H   H2676     1.0  0.78274  0.88436  0.01661  1.0000
  C   C1540     1.0  0.81687  0.92969  0.99032  1.0000
  H   H2677     1.0  0.94778  0.82710  0.41158  1.0000
  H   H2678     1.0  0.82965  0.50921  0.24451  1.0000
  H   H2679     1.0  0.77275  0.62566  0.12794  1.0000
  C   C1541     1.0  0.78545  0.90474  0.00046  1.0000
  H   H2680     1.0  0.83792  0.92831  0.99873  1.0000
  C   C1542     1.0  0.94088  0.53791  0.23733  1.0000
  H   H2681     1.0  0.84308  0.86309  0.38639  1.0000
  C   C1543     1.0  0.94307  0.74753  0.02530  1.0000
  H   H2682     1.0  0.89801  0.83911  0.05395  1.0000
  H   H2683     1.0  0.87797  0.51906  0.22686  1.0000
  H   H2684     1.0  0.81424  0.94291  0.25277  1.0000
  Fe  Fe182     1.0  0.95716  0.93335  0.30821  1.0000
  C   C1544     1.0  0.88061  0.53850  0.44561  1.0000
  C   C1545     1.0  0.82046  0.52154  0.22682  1.0000
  S   S363      1.0  0.95057  0.54338  0.02728  1.0000
  H   H2685     1.0  0.83725  0.57071  0.20326  1.0000
  H   H2686     1.0  0.74728  0.90288  0.28692  1.0000
  S   S364      1.0  0.96786  0.89889  0.40427  1.0000
  H   H2687     1.0  0.81035  0.50540  0.20310  1.0000
  H   H2688     1.0  0.96379  0.92378  0.47416  1.0000
  H   H2689     1.0  0.92475  0.50994  0.23721  1.0000
  C   C1546     1.0  0.79254  0.52282  0.24497  1.0000
  H   H2690     1.0  0.96188  0.92937  0.16905  1.0000
  H   H2691     1.0  0.95121  0.67436  0.23524  1.0000
  H   H2692     1.0  0.91966  0.91474  0.06635  1.0000
  H   H2693     1.0  0.91783  0.85595  0.13992  1.0000
  C   C1547     1.0  0.90729  0.96910  0.13600  1.0000
  H   H2694     1.0  0.76435  0.96297  0.27864  1.0000
  H   H2695     1.0  0.75881  0.94901  0.20716  1.0000
  Fe  Fe183     1.0  0.92427  0.95481  0.25298  1.0000
  C   C1548     1.0  0.79560  0.94135  0.27076  1.0000
  C   C1549     1.0  0.86126  0.97745  0.46890  1.0000
  S   S365      1.0  0.90736  0.94327  0.19777  1.0000
  H   H2696     1.0  0.92958  0.65346  0.45642  1.0000
  H   H2697     1.0  0.85440  0.51137  0.17303  1.0000
  H   H2698     1.0  0.89628  0.52710  0.44204  1.0000
  H   H2699     1.0  0.95399  0.86978  0.16590  1.0000
  H   H2700     1.0  0.76609  0.65457  0.18057  1.0000
  C   C1550     1.0  0.94794  0.91185  0.14695  1.0000
  H   H2701     1.0  0.96099  0.65601  0.19894  1.0000
  H   H2702     1.0  0.92996  0.66807  0.19466  1.0000
  C   C1551     1.0  0.78544  0.96733  0.20576  1.0000
  H   H2703     1.0  0.92948  0.88771  0.21329  1.0000
  H   H2704     1.0  0.92701  0.72792  0.04379  1.0000
  H   H2705     1.0  0.90580  0.84308  0.20174  1.0000
  H   H2706     1.0  0.89275  0.87185  0.18722  1.0000
  C   C1552     1.0  0.90098  0.76647  0.02506  1.0000
  H   H2707     1.0  0.77274  0.73254  0.21599  1.0000
  H   H2708     1.0  0.75136  0.74080  0.46410  1.0000
  H   H2709     1.0  0.95449  0.95690  0.09980  1.0000
  C   C1553     1.0  0.96868  0.71082  0.06377  1.0000
  H   H2710     1.0  0.77300  0.49671  0.25092  1.0000
  H   H2711     1.0  0.96762  0.82852  0.25672  1.0000
  C   C1554     1.0  0.75157  0.71877  0.23307  1.0000
  H   H2712     1.0  0.74059  0.60747  0.05393  1.0000
  C   C1555     1.0  0.75743  0.50647  0.00112  1.0000
  H   H2713     1.0  0.91779  0.79185  0.03705  1.0000
  H   H2714     1.0  0.96615  0.90420  0.06240  1.0000
  H   H2715     1.0  0.73294  0.64508  0.43823  1.0000
  H   H2716     1.0  0.94610  0.68714  0.05567  1.0000
  C   C1556     1.0  0.73391  0.78503  0.35160  1.0000
  H   H2717     1.0  0.82394  0.49495  0.11622  1.0000
  C   C1557     1.0  0.97639  0.75681  0.44179  1.0000
  H   H2718     1.0  0.94284  0.76786  0.46877  1.0000
  H   H2719     1.0  0.93309  0.77434  0.98379  1.0000
  H   H2720     1.0  0.97496  0.64473  0.47100  1.0000
  C   C1558     1.0  0.73174  0.68439  0.33162  1.0000
  C   C1559     1.0  0.79218  0.98363  0.16972  1.0000
  C   C1560     1.0  0.89453  0.94798  0.47221  1.0000
  H   H2721     1.0  0.97632  0.62526  0.27400  1.0000
  Fe  Fe184     1.0  0.97617  0.55171  0.97678  1.0000
  H   H2722     1.0  0.87266  0.92217  0.47048  1.0000
  N   N84       1.0  0.97841  0.78957  0.23865  1.0000
  H   H2723     1.0  0.84091  0.95138  0.47404  1.0000
  H   H2724     1.0  0.97871  0.68696  0.10647  1.0000
  H   H2725     1.0  0.77236  0.86963  0.92881  1.0000
  H   H2726     1.0  0.82662  0.86803  0.90823  1.0000
  H   H2727     1.0  0.87367  0.95734  0.85157  1.0000
  H   H2728     1.0  0.85817  0.57007  0.89102  1.0000
  H   H2729     1.0  0.85119  0.54420  0.78086  1.0000
  H   H2730     1.0  0.94385  0.63246  0.95089  1.0000
  Fe  Fe185     1.0  0.83942  0.61227  0.68170  1.0000
  S   S366      1.0  0.86912  0.65502  0.64533  1.0000
  S   S367      1.0  0.78396  0.58154  0.67212  1.0000
  Fe  Fe186     1.0  0.89969  0.60714  0.70369  1.0000
  S   S368      1.0  0.93238  0.64810  0.66830  1.0000
  S   S369      1.0  0.91439  0.57552  0.73666  1.0000
  Fe  Fe187     1.0  0.90825  0.67762  0.68677  1.0000
  S   S370      1.0  0.94842  0.73421  0.68894  1.0000
  Fe  Fe188     1.0  0.89157  0.62385  0.62968  1.0000
  S   S371      1.0  0.90032  0.61813  0.57367  1.0000
  S   S372      1.0  0.87712  0.63720  0.72531  1.0000
  S   S373      1.0  0.86059  0.58021  0.66315  1.0000
  H   H2731     1.0  0.89137  0.49855  0.50587  1.0000
  H   H2732     1.0  0.86042  0.55434  0.95369  1.0000
  S   S374      1.0  0.86029  0.65480  0.94208  1.0000
  Fe  Fe189     1.0  0.81505  0.69271  0.89036  1.0000
  S   S375      1.0  0.84175  0.66877  0.86412  1.0000
  C   C1561     1.0  0.77059  0.50053  0.88372  1.0000
  Fe  Fe190     1.0  0.81829  0.62727  0.90345  1.0000
  S   S376      1.0  0.79978  0.56938  0.90007  1.0000
  Fe  Fe191     1.0  0.88185  0.69728  0.90393  1.0000
  S   S377      1.0  0.93539  0.73686  0.89293  1.0000
  S   S378      1.0  0.78881  0.64922  0.92681  1.0000
  S   S379      1.0  0.85617  0.72277  0.92811  1.0000
  C   C1562     1.0  0.74776  0.49423  0.72729  1.0000
  C   C1563     1.0  0.96668  0.84248  0.71541  1.0000
  H   H2733     1.0  0.77161  0.95279  0.75090  1.0000
  C   C1564     1.0  0.82081  0.95547  0.96828  1.0000
  H   H2734     1.0  0.92723  0.65661  0.93220  1.0000
  H   H2735     1.0  0.82984  0.53109  0.84396  1.0000
  H   H2736     1.0  0.89210  0.73068  0.49267  1.0000
  H   H2737     1.0  0.73390  0.69306  0.88850  1.0000
  H   H2738     1.0  0.74590  0.50983  0.94842  1.0000
  H   H2739     1.0  0.85083  0.50795  0.84763  1.0000
  H   H2740     1.0  0.90389  0.56989  0.95327  1.0000
  H   H2741     1.0  0.79921  0.92759  0.84930  1.0000
  C   C1565     1.0  0.83508  0.50175  0.53080  1.0000
  H   H2742     1.0  0.90080  0.59132  0.89585  1.0000
  C   C1566     1.0  0.86442  0.60632  0.54999  1.0000
  C   C1567     1.0  0.86489  0.60642  0.51393  1.0000
  C   C1568     1.0  0.83581  0.59421  0.49476  1.0000
  C   C1569     1.0  0.80617  0.58153  0.51170  1.0000
  C   C1570     1.0  0.80594  0.58326  0.54774  1.0000
  C   C1571     1.0  0.83500  0.59552  0.56690  1.0000
  H   H2743     1.0  0.88750  0.61466  0.50067  1.0000
  H   H2744     1.0  0.77928  0.78269  0.94690  1.0000
  H   H2745     1.0  0.78322  0.57466  0.56089  1.0000
  H   H2746     1.0  0.83436  0.59570  0.59478  1.0000
  C   C1572     1.0  0.94635  0.56718  0.72673  1.0000
  H   H2747     1.0  0.79527  0.90952  0.70652  1.0000
  H   H2748     1.0  0.76666  0.87011  0.84983  1.0000
  H   H2749     1.0  0.78182  0.49911  0.90750  1.0000
  H   H2750     1.0  0.91165  0.92647  0.93762  1.0000
  H   H2751     1.0  0.74428  0.57406  0.94617  1.0000
  C   C1573     1.0  0.90265  0.71551  0.50286  1.0000
  H   H2752     1.0  0.78042  0.48919  0.49676  1.0000
  H   H2753     1.0  0.97284  0.82694  0.78366  1.0000
  C   C1574     1.0  0.95381  0.77549  0.69802  1.0000
  C   C1575     1.0  0.93001  0.78042  0.71387  1.0000
  C   C1576     1.0  0.76412  0.87575  0.90455  1.0000
  H   H2754     1.0  0.80361  0.95869  0.50166  1.0000
  N   N85       1.0  0.84666  0.49887  0.49526  1.0000
  H   H2755     1.0  0.94520  0.81041  0.50656  1.0000
  H   H2756     1.0  0.90690  0.75859  0.72026  1.0000
  H   H2757     1.0  0.96925  0.76174  0.49577  1.0000
  H   H2758     1.0  0.92390  0.55215  0.65286  1.0000
  S   S380      1.0  0.94018  0.49895  0.95503  1.0000
  H   H2759     1.0  0.87052  0.70021  0.56606  1.0000
  H   H2760     1.0  0.77625  0.84324  0.87402  1.0000
  H   H2761     1.0  0.82509  0.90429  0.92427  1.0000
  H   H2762     1.0  0.97227  0.59009  0.48463  1.0000
  C   C1577     1.0  0.94478  0.58828  0.85240  1.0000
  C   C1578     1.0  0.76623  0.97345  0.61146  1.0000
  H   H2763     1.0  0.82176  0.94264  0.88829  1.0000
  H   H2764     1.0  0.74634  0.94754  0.60372  1.0000
  C   C1579     1.0  0.74976  0.52507  0.97259  1.0000
  C   C1580     1.0  0.77249  0.89735  0.72150  1.0000
  C   C1581     1.0  0.83342  0.89471  0.90222  1.0000
  C   C1582     1.0  0.82085  0.92979  0.86315  1.0000
  H   H2765     1.0  0.96224  0.88661  0.55622  1.0000
  H   H2766     1.0  0.78286  0.51462  0.57190  1.0000
  C   C1583     1.0  0.90184  0.80593  0.48405  1.0000
  H   H2767     1.0  0.87595  0.52616  0.96249  1.0000
  C   C1584     1.0  0.75106  0.91252  0.71265  1.0000
  H   H2768     1.0  0.79495  0.50373  0.97130  1.0000
  H   H2769     1.0  0.76961  0.90253  0.90620  1.0000
  H   H2770     1.0  0.74483  0.90750  0.68475  1.0000
  H   H2771     1.0  0.75912  0.86961  0.71502  1.0000
  H   H2772     1.0  0.74535  0.70809  0.49418  1.0000
  H   H2773     1.0  0.96883  0.76525  0.96061  1.0000
  H   H2774     1.0  0.78792  0.97952  0.59579  1.0000
  C   C1585     1.0  0.91140  0.55969  0.83830  1.0000
  S   S381      1.0  0.73456  0.91917  0.83919  1.0000
  C   C1586     1.0  0.81493  0.49205  0.78670  1.0000
  H   H2775     1.0  0.97329  0.57777  0.81517  1.0000
  H   H2776     1.0  0.75169  0.50315  0.67324  1.0000
  H   H2777     1.0  0.97674  0.66206  0.73150  1.0000
  H   H2778     1.0  0.80306  0.89436  0.79976  1.0000
  H   H2779     1.0  0.77213  0.54986  0.96796  1.0000
  C   C1587     1.0  0.91635  0.73028  0.53962  1.0000
  C   C1588     1.0  0.97064  0.55310  0.60785  1.0000
  H   H2780     1.0  0.92872  0.50049  0.60434  1.0000
  H   H2781     1.0  0.85305  0.51476  0.90405  1.0000
  C   C1589     1.0  0.92116  0.52686  0.64633  1.0000
  H   H2782     1.0  0.73784  0.57738  0.88383  1.0000
  H   H2783     1.0  0.75374  0.78235  0.91232  1.0000
  H   H2784     1.0  0.87788  0.88364  0.93897  1.0000
  Fe  Fe192     1.0  0.83189  0.67844  0.96307  1.0000
  H   H2785     1.0  0.95864  0.83869  0.94341  1.0000
  C   C1590     1.0  0.93244  0.82516  0.50693  1.0000
  C   C1591     1.0  0.86111  0.51575  0.56021  1.0000
  C   C1592     1.0  0.74136  0.50324  0.82240  1.0000
  H   H2786     1.0  0.86564  0.52907  0.61480  1.0000
  H   H2787     1.0  0.97296  0.61101  0.69550  1.0000
  H   H2788     1.0  0.95250  0.64209  0.50928  1.0000
  C   C1593     1.0  0.74674  0.56662  0.69464  1.0000
  S   S382      1.0  0.97507  0.88346  0.73100  1.0000
  C   C1594     1.0  0.85065  0.95491  0.84191  1.0000
  H   H2789     1.0  0.88246  0.91051  0.88203  1.0000
  H   H2790     1.0  0.87065  0.49824  0.56448  1.0000
  C   C1595     1.0  0.93242  0.64814  0.95688  1.0000
  C   C1596     1.0  0.97227  0.58879  0.70603  1.0000
  H   H2791     1.0  0.83798  0.53773  0.59172  1.0000
  H   H2792     1.0  0.88989  0.54864  0.49977  1.0000
  C   C1597     1.0  0.85195  0.53048  0.83547  1.0000
  C   C1598     1.0  0.78064  0.86978  0.87287  1.0000
  H   H2793     1.0  0.79558  0.49822  0.79276  1.0000
  C   C1599     1.0  0.84841  0.52244  0.79596  1.0000
  C   C1600     1.0  0.88253  0.59203  0.82818  1.0000
  H   H2794     1.0  0.92628  0.52177  0.75670  1.0000
  H   H2795     1.0  0.85718  0.58616  0.82200  1.0000
  H   H2796     1.0  0.94427  0.53508  0.54309  1.0000
  C   C1601     1.0  0.89841  0.62745  0.84681  1.0000
  C   C1602     1.0  0.90214  0.65494  0.82205  1.0000
  H   H2797     1.0  0.75693  0.96483  0.51909  1.0000
  H   H2798     1.0  0.81235  0.86378  0.75107  1.0000
  C   C1603     1.0  0.97021  0.55551  0.54494  1.0000
  H   H2799     1.0  0.89437  0.59522  0.80270  1.0000
  H   H2800     1.0  0.92228  0.67469  0.51110  1.0000
  H   H2801     1.0  0.89987  0.73818  0.58928  1.0000
  H   H2802     1.0  0.92426  0.82598  0.53355  1.0000
  H   H2803     1.0  0.91381  0.55894  0.80980  1.0000
  H   H2804     1.0  0.95111  0.61269  0.84042  1.0000
  H   H2805     1.0  0.74342  0.60917  0.49918  1.0000
  C   C1604     1.0  0.95430  0.86182  0.49447  1.0000
  H   H2806     1.0  0.88278  0.62704  0.86829  1.0000
  H   H2807     1.0  0.92268  0.63502  0.85774  1.0000
  H   H2808     1.0  0.91211  0.67977  0.83621  1.0000
  H   H2809     1.0  0.91902  0.65771  0.80102  1.0000
  C   C1605     1.0  0.75978  0.78846  0.94021  1.0000
  H   H2810     1.0  0.93953  0.87431  0.49859  1.0000
  H   H2811     1.0  0.91815  0.81702  0.73570  1.0000
  H   H2812     1.0  0.88162  0.68915  0.50569  1.0000
  H   H2813     1.0  0.85448  0.90013  0.83439  1.0000
  C   C1606     1.0  0.74500  0.76879  0.83340  1.0000
  N   N86       1.0  0.75132  0.96980  0.71103  1.0000
  C   C1607     1.0  0.87102  0.91663  0.90375  1.0000
  H   H2814     1.0  0.79550  0.97626  0.94047  1.0000
  H   H2815     1.0  0.82798  0.85802  0.84696  1.0000
  H   H2816     1.0  0.87859  0.94404  0.90373  1.0000
  C   C1608     1.0  0.82858  0.88201  0.83974  1.0000
  S   S383      1.0  0.80044  0.72690  0.86103  1.0000
  C   C1609     1.0  0.93646  0.81368  0.72253  1.0000
  C   C1610     1.0  0.76842  0.95103  0.72234  1.0000
  N   N87       1.0  0.81654  0.89489  0.86913  1.0000
  H   H2817     1.0  0.76804  0.58835  0.74449  1.0000
  C   C1611     1.0  0.84665  0.51922  0.59414  1.0000
  H   H2818     1.0  0.78729  0.97676  0.87489  1.0000
  C   C1612     1.0  0.80897  0.87418  0.80531  1.0000
  C   C1613     1.0  0.82761  0.87069  0.77496  1.0000
  H   H2819     1.0  0.88166  0.54131  0.55439  1.0000
  H   H2820     1.0  0.97398  0.66537  0.79591  1.0000
  C   C1614     1.0  0.72991  0.76731  0.96217  1.0000
  C   C1615     1.0  0.87975  0.56733  0.88567  1.0000
  H   H2821     1.0  0.90805  0.53490  0.84689  1.0000
  H   H2822     1.0  0.75654  0.52528  0.59549  1.0000
  C   C1616     1.0  0.97072  0.73902  0.87419  1.0000
  H   H2823     1.0  0.86702  0.51602  0.78732  1.0000
  C   C1617     1.0  0.87698  0.53824  0.90839  1.0000
  C   C1618     1.0  0.74409  0.96235  0.84416  1.0000
  H   H2824     1.0  0.96997  0.50842  0.74263  1.0000
  C   C1619     1.0  0.97398  0.94593  0.52626  1.0000
  H   H2825     1.0  0.82617  0.49426  0.60185  1.0000
  H   H2826     1.0  0.77852  0.90083  0.74950  1.0000
  H   H2827     1.0  0.79366  0.77774  0.82514  1.0000
  C   C1620     1.0  0.74561  0.57338  0.72987  1.0000
  C   C1621     1.0  0.75776  0.50440  0.58133  1.0000
  H   H2828     1.0  0.85045  0.89510  0.77093  1.0000
  C   C1622     1.0  0.88944  0.72738  0.56323  1.0000
  C   C1623     1.0  0.88466  0.91080  0.93714  1.0000
  C   C1624     1.0  0.87944  0.54789  0.94677  1.0000
  H   H2829     1.0  0.90025  0.95618  0.49975  1.0000
  C   C1625     1.0  0.97184  0.58058  0.84357  1.0000
  H   H2830     1.0  0.81347  0.48597  0.75861  1.0000
  H   H2831     1.0  0.79360  0.96327  0.71219  1.0000
  H   H2832     1.0  0.92737  0.71646  0.55193  1.0000
  C   C1626     1.0  0.73726  0.71432  0.87340  1.0000
  C   C1627     1.0  0.97663  0.71174  0.87425  1.0000
  H   H2833     1.0  0.90920  0.63209  0.97029  1.0000
  C   C1628     1.0  0.79757  0.97516  0.48622  1.0000
  H   H2834     1.0  0.96750  0.55688  0.85604  1.0000
  C   C1629     1.0  0.76149  0.93206  0.96851  1.0000
  H   H2835     1.0  0.96157  0.71111  0.51156  1.0000
  C   C1630     1.0  0.94608  0.53853  0.74044  1.0000
  H   H2836     1.0  0.97321  0.57889  0.61028  1.0000
  C   C1631     1.0  0.77079  0.76200  0.83772  1.0000
  H   H2837     1.0  0.74102  0.49576  0.55853  1.0000
  C   C1632     1.0  0.76713  0.73464  0.85759  1.0000
  H   H2838     1.0  0.89664  0.53244  0.90289  1.0000
  C   C1633     1.0  0.77566  0.53236  0.87309  1.0000
  C   C1634     1.0  0.93391  0.52674  0.61030  1.0000
  H   H2839     1.0  0.92008  0.53342  0.59217  1.0000
  H   H2840     1.0  0.93517  0.75760  0.53860  1.0000
  N   N88       1.0  0.88215  0.56296  0.84724  1.0000
  H   H2841     1.0  0.87538  0.91832  0.95995  1.0000
  H   H2842     1.0  0.95412  0.86105  0.61335  1.0000
  H   H2843     1.0  0.76919  0.81605  0.94506  1.0000
  H   H2844     1.0  0.76450  0.55755  0.83335  1.0000
  H   H2845     1.0  0.82462  0.51897  0.53049  1.0000
  H   H2846     1.0  0.87798  0.74157  0.55279  1.0000
  C   C1635     1.0  0.94052  0.69452  0.49413  1.0000
  H   H2847     1.0  0.97085  0.81349  0.91785  1.0000
  H   H2848     1.0  0.77249  0.51645  0.73207  1.0000
  C   C1636     1.0  0.76095  0.53345  0.84213  1.0000
  H   H2849     1.0  0.87818  0.64847  0.81050  1.0000
  H   H2850     1.0  0.96675  0.83235  0.56460  1.0000
  S   S384      1.0  0.76925  0.56148  0.48826  1.0000
  H   H2851     1.0  0.83356  0.85030  0.77964  1.0000
  H   H2852     1.0  0.78567  0.84972  0.80691  1.0000
  H   H2853     1.0  0.94499  0.59128  0.88088  1.0000
  H   H2854     1.0  0.76719  0.48525  0.62711  1.0000
  C   C1637     1.0  0.97085  0.53090  0.73254  1.0000
  H   H2855     1.0  0.95058  0.92445  0.53477  1.0000
  C   C1638     1.0  0.86798  0.53447  0.48281  1.0000
  C   C1639     1.0  0.74496  0.96610  0.67255  1.0000
  H   H2856     1.0  0.74809  0.78953  0.81765  1.0000
  H   H2857     1.0  0.84753  0.94613  0.81450  1.0000
  H   H2858     1.0  0.93439  0.52050  0.66578  1.0000
  C   C1640     1.0  0.77487  0.97510  0.64977  1.0000
  H   H2859     1.0  0.93349  0.70771  0.96208  1.0000
  H   H2860     1.0  0.95916  0.49639  0.56397  1.0000
  H   H2861     1.0  0.88533  0.78064  0.49489  1.0000
  C   C1641     1.0  0.96851  0.56411  0.48033  1.0000
  H   H2862     1.0  0.94213  0.54539  0.47872  1.0000
  C   C1642     1.0  0.79292  0.95666  0.95773  1.0000
  H   H2863     1.0  0.88851  0.82023  0.48269  1.0000
  C   C1643     1.0  0.96859  0.65950  0.48930  1.0000
  H   H2864     1.0  0.97004  0.57994  0.54810  1.0000
  H   H2865     1.0  0.78382  0.95701  0.65369  1.0000
  H   H2866     1.0  0.97490  0.62809  0.78047  1.0000
  H   H2867     1.0  0.73540  0.98292  0.66443  1.0000
  H   H2868     1.0  0.96987  0.96763  0.52188  1.0000
  H   H2869     1.0  0.95874  0.68779  0.88458  1.0000
  N   N89       1.0  0.92671  0.71487  0.47793  1.0000
  H   H2870     1.0  0.89496  0.50738  0.64744  1.0000
  H   H2871     1.0  0.85490  0.54881  0.48472  1.0000
  H   H2872     1.0  0.74029  0.93274  0.95933  1.0000
  C   C1644     1.0  0.97843  0.86329  0.61087  1.0000
  H   H2873     1.0  0.97915  0.69190  0.96689  1.0000
  H   H2874     1.0  0.97880  0.84332  0.62661  1.0000
  H   H2875     1.0  0.72972  0.50249  0.73237  1.0000
  H   H2876     1.0  0.73011  0.50466  0.79862  1.0000
