data_image0
_chemical_formula_structural       FeS2FeS2FeSFeS3FeS2FeS2FeHFeHS2FeSHFeS2FeHFeHS2H2C3H2C3H5C2H3CHC6H4C2HC2HCSCHC6H4C6HNH3NC6HC4H12CH12CH4CHSHC2H13C2H5NCH4SH3CH4NC9H10CH9CH6NC9H2CH8CH14CHC2H2CHC2H3C2H6C2H2NSC3H2CH3C2H6C2H2CH2CH2CHCSHCH4C2HCHC2HCH4CH2C2H2CH2C3SH2CHNC2H2CH3CH3C2SHCHCH2SH2CHSCH6FeCFeS2FeHFeHS2HFeS2CHFeSFeCH2FeSH3FeHFeNS2C2H4CH2C3SCH2CHCHC3H4C2HC2H4C7H3CNCHNCSC4H3CHCHC2HCH6CH4CSH2CH2NC2HC2H2CH3SH6CH2CSCHCHCH5C2H2CHCHSHSH3CH3C2HC2H2CH2CSC2H2CH4CHCH2SHC2H4CH2C2HCH3CHCH3CH8CH3SHCHNHC2H10C3H3CHCH3FeS2FeS2FeSFeS3FeS2FeS2FeHFeS3FeCHFeS2FeCFeCS2CH3C2HCNH6C3SH3C6H4CH3C2H3C7H4C6HC2H3C3HCHCHSH5CHCHCHCH5CH3C5HCHSCHC5H6CH9CHCNCH4CH2C2H2CHCHC5H3SH3CH3C2H3CNCH2C3HCHC2H5C2H6CH4CH8CHC2HNC4H2C2H3CH16C2HC2HCNH3CH7C2H5CH8CH2CH3CH3CHCSCHSH2NH7C4HCH2SCHCSHCH8C2FeH2CHC2H2CH7CHSFeHFeSFeHSC2H2S2HFeS2H2FeSFeCH2FeSCH2FeSFeHSC2HC2H4CHCHC2H2SH3CHSCH3CH5CHCHC6H3CH2CHSH3C2HCH3CSHSCH4CH2CH7CH3CH5S2HCH2C4H2NHCH4SC2HC2HCHNH3CSCH2CH2SHCH6CH2C2HC3HC4H4CHSH3CHC4H2C2HCH2NHC3FeCH7C2FeS2CH3S3HFeS2FeS2FeHFeS3C6H4C6H6CH2C2HC2HCHCH4CH2CHC2H3CHCH9CHCH3C3H4CHCH3C2H5NH4NH6CH3C4H3CHC2H2CH5FeH3C2H3NCNHCH4C3HCHC2H6CH3CH9CH2CH2CHNC8SCHCH5SH2CH12CH3SHCHC3FeC4HCH5FeHSHCH3C3HC2H2C2SCFeS2FeS2FeHFeS3FeCFeS2FeHCHS3H4CH8CH3CHCH2C6H4C2H2C2H3C6H2NC5FeHCH3CH4CH10C2H5C3SH4CH3CH2CSHCH2C2HC2H7CSHFeC2HSH2CH4CH3C3H4NH5C2H2CH2CNC4HC4H9CH2SH5SHSH5CH2NC4H2CH4C2H6CSH6CH7CH4CHCH7C3HCHCH2CNH2CHCH2CH3C3FeHC2HC2HCH2CSH3FeCFeS2CHFeCS3CFeSHFeS2FeCFeS3C6H4C6H5NHCHCH6FeH4CHC4H5CH5NC5HC2HCS4H14C2H7CH2NC3H2C3H8C2H7C2HCH6C4H6SH4CH2CHC2NC4HC3H2CH8C2H8CH9NC11H12C4HSH2CH9CHCHC2H3C2HCH4C3HCSHFeSCFeS2FeHFeSCSFeHFeS2FeHFeCS2H3C2FeH4CHCH2CH2CH2CHC6H4CHCH6C6H10CH7CHC2H6CHCH7C2H6NH3C3HSH3CHCH2CH2C2HFeCHCH4NHC2SHCSH5SH4CH2CH3C2NCHCH2CH2CSCH9C2H7SH2CH5CHNC6NC3HC2HCHC2H6C2H9CHCSCHSH4C3HC3NH4CH10CHCHCHCH4CH2NH3NHCSC2HC2HC3HCH3CH3CHCHC2HCH5SHC3HCHSH2SCFeHFeCFeS2H2FeSFeS3CSFeSHFeSFeS3H2C2H2CH2FeC6H4C6H4CHC2HCHNS2HCHCH3CH4SH4CH20C2HCH2CHFeHCH2NC12H26C2H2CH2CHCNC3SH2C2H3C2HC4HFeC2H4C2H7CHCH2FeH4CH4CH5C2HSH4FeS2FeS2FeSFeS3FeS2FeSHFeSFeS3FeSHFeS2H2FeS2HC2H5FeHC7H4C6H4C6H7NCH2C4HCHCHCH3NC2HNC8HC3H22SHCH3C2HCNC11H18C2H3CH3CH2C2HC3H2C2H3CH2C2H2C2H10C2H2C4HC2H6C2H5C3H7CH4CHCHCH2C2HCH5CH3CH5CH11CH2C2H3CH2NH2CH5NHSH3CHC2HCH6CH2C2HCH6CHNHCSHCHCH2C2HC2HC3HSCFeSHFeCFeHFeS2CHFeSFeS3HSFeSCFeSFeS3CHC2H4SHC6H4C6H9CH2CHCHFeCNC12H28CH2SHCH2SH3FeCHCHCH2C4SHC3NHNCH2C2H5CHFeHC2H2CH2CH2CH5CHNCSH2CHCH4CHC2H3CH3CH10CH4CH6FeS2FeS2FeSFeS3FeS2FeSHFeSFeS3FeSH2SHFeHFeS2HC2HCH3CH2C6H4C6H4C6H4CH2CH2SCH6CH2CH2CH3NC8HC2H3CH13C2H8C2HCH3C2H3CH5SH2CH3SHNHCH7NHNC12H25CHC2H3NC4HC2H6CHCH2CHC2HCH2C2HCHCH2CHC2HSH4C2H5CH2C3H7CHC3HCHCH4NCH3CHC3H2CH7C2HCH2CH4C
_chemical_formula_sum              "Fe128 S256 H2048 C1152 N64"
_cell_length_a       82.97
_cell_length_b       47.7541
_cell_length_c       34.6499
_cell_angle_alpha    90.0965
_cell_angle_beta     89.8621
_cell_angle_gamma    90.1221

_space_group_name_H-M_alt    "P 1"
_space_group_IT_number       1

loop_
  _space_group_symop_operation_xyz
  'x, y, z'

loop_
  _atom_site_type_symbol
  _atom_site_label
  _atom_site_symmetry_multiplicity
  _atom_site_fract_x
  _atom_site_fract_y
  _atom_site_fract_z
  _atom_site_occupancy
  Fe  Fe1       1.0  0.17218  0.12364  0.31212  1.0000
  S   S1        1.0  0.16995  0.12485  0.24803  1.0000
  S   S2        1.0  0.15052  0.12388  0.35379  1.0000
  Fe  Fe2       1.0  0.20918  0.12986  0.30877  1.0000
  S   S3        1.0  0.20883  0.13204  0.24306  1.0000
  S   S4        1.0  0.23410  0.13619  0.33853  1.0000
  Fe  Fe3       1.0  0.18747  0.16098  0.24882  1.0000
  S   S5        1.0  0.17842  0.19601  0.20804  1.0000
  Fe  Fe4       1.0  0.19134  0.09582  0.24554  1.0000
  S   S6        1.0  0.18956  0.06421  0.19503  1.0000
  S   S7        1.0  0.18884  0.16116  0.31382  1.0000
  S   S8        1.0  0.19260  0.09200  0.31071  1.0000
  Fe  Fe5       1.0  0.19901  0.41213  0.08455  1.0000
  S   S9        1.0  0.19401  0.41178  0.02052  1.0000
  S   S10       1.0  0.20809  0.44910  0.12210  1.0000
  Fe  Fe6       1.0  0.19498  0.34763  0.09123  1.0000
  S   S11       1.0  0.18942  0.34319  0.02749  1.0000
  S   S12       1.0  0.20048  0.31574  0.13998  1.0000
  Fe  Fe7       1.0  0.20994  0.37366  0.01595  1.0000
  H   H1        1.0  0.30574  0.36045  0.01202  1.0000
  Fe  Fe8       1.0  0.17374  0.38156  0.03506  1.0000
  H   H2        1.0  0.16240  0.43373  0.14411  1.0000
  S   S13       1.0  0.21633  0.37577  0.07899  1.0000
  S   S14       1.0  0.17795  0.38420  0.09949  1.0000
  Fe  Fe9       1.0  0.02867  0.07528  0.41875  1.0000
  S   S15       1.0  0.00698  0.10109  0.40459  1.0000
  H   H3        1.0  0.13455  0.44299  0.07094  1.0000
  Fe  Fe10      1.0  0.05056  0.11327  0.36766  1.0000
  S   S16       1.0  0.02969  0.14170  0.35188  1.0000
  S   S17       1.0  0.07376  0.11900  0.33145  1.0000
  Fe  Fe11      1.0  0.02222  0.13957  0.41468  1.0000
  H   H4        1.0  0.27331  0.02631  0.38003  1.0000
  Fe  Fe12      1.0  0.01586  0.10193  0.34322  1.0000
  H   H5        1.0  0.04782  0.18813  0.08195  1.0000
  S   S18       1.0  0.04405  0.11373  0.43128  1.0000
  S   S19       1.0  0.03665  0.07332  0.35637  1.0000
  H   H6        1.0  0.22866  0.16226  0.18251  1.0000
  H   H7        1.0  0.08461  0.17941  0.35083  1.0000
  C   C1        1.0  0.10892  0.34579  0.01775  1.0000
  C   C2        1.0  0.08551  0.20176  0.34215  1.0000
  C   C3        1.0  0.03219  0.27755  0.05768  1.0000
  H   H8        1.0  0.00947  0.20072  0.01637  1.0000
  H   H9        1.0  0.21977  0.12053  0.00324  1.0000
  C   C4        1.0  0.99738  0.10881  0.24815  1.0000
  C   C5        1.0  0.08580  0.44684  0.98327  1.0000
  C   C6        1.0  0.27317  0.34915  0.01681  1.0000
  H   H10       1.0  0.04666  0.18981  0.15341  1.0000
  H   H11       1.0  0.07040  0.40158  0.00643  1.0000
  H   H12       1.0  0.03648  0.07868  0.17571  1.0000
  H   H13       1.0  0.02276  0.20233  0.11254  1.0000
  H   H14       1.0  0.03996  0.00078  0.15262  1.0000
  C   C7        1.0  0.00807  0.13005  0.23717  1.0000
  C   C8        1.0  0.07643  0.46825  0.04493  1.0000
  H   H15       1.0  0.20840  0.02141  0.23700  1.0000
  H   H16       1.0  0.01711  0.13731  0.25732  1.0000
  H   H17       1.0  0.24156  0.39198  0.14955  1.0000
  C   C9        1.0  0.11088  0.44397  0.04430  1.0000
  H   H18       1.0  0.04439  0.11203  0.10664  1.0000
  C   C10       1.0  0.18501  0.22908  0.18918  1.0000
  C   C11       1.0  0.17602  0.24179  0.15951  1.0000
  C   C12       1.0  0.18062  0.26796  0.14368  1.0000
  C   C13       1.0  0.19428  0.28202  0.15749  1.0000
  C   C14       1.0  0.20322  0.26934  0.18731  1.0000
  C   C15       1.0  0.19867  0.24311  0.20298  1.0000
  H   H19       1.0  0.16539  0.23132  0.14859  1.0000
  H   H20       1.0  0.17354  0.27734  0.12096  1.0000
  H   H21       1.0  0.21376  0.27994  0.19845  1.0000
  H   H22       1.0  0.20569  0.23387  0.22591  1.0000
  C   C16       1.0  0.19919  0.47848  0.14597  1.0000
  C   C17       1.0  0.22314  0.18070  0.16836  1.0000
  H   H23       1.0  0.05519  0.22391  0.08083  1.0000
  C   C18       1.0  0.19660  0.02983  0.18308  1.0000
  C   C19       1.0  0.03297  0.11350  0.09010  1.0000
  H   H24       1.0  0.02490  0.25211  0.00933  1.0000
  C   C20       1.0  0.15064  0.02084  0.17785  1.0000
  S   S20       1.0  0.15019  0.39230  0.00318  1.0000
  C   C21       1.0  0.20545  0.01329  0.20872  1.0000
  H   H25       1.0  0.17650  0.47696  0.11620  1.0000
  C   C22       1.0  0.12923  0.12003  0.34737  1.0000
  C   C23       1.0  0.12229  0.11389  0.31152  1.0000
  C   C24       1.0  0.10533  0.11305  0.30750  1.0000
  C   C25       1.0  0.09503  0.11759  0.33933  1.0000
  C   C26       1.0  0.10198  0.12293  0.37537  1.0000
  C   C27       1.0  0.11894  0.12427  0.37925  1.0000
  H   H26       1.0  0.12996  0.11018  0.28677  1.0000
  H   H27       1.0  0.10013  0.10891  0.27946  1.0000
  H   H28       1.0  0.09430  0.12663  0.40012  1.0000
  H   H29       1.0  0.12411  0.12887  0.40719  1.0000
  C   C28       1.0  0.24403  0.13222  0.38437  1.0000
  C   C29       1.0  0.23659  0.11995  0.41655  1.0000
  C   C30       1.0  0.24513  0.11679  0.45169  1.0000
  C   C31       1.0  0.26128  0.12574  0.45550  1.0000
  C   C32       1.0  0.26867  0.13830  0.42348  1.0000
  C   C33       1.0  0.26013  0.14143  0.38834  1.0000
  H   H30       1.0  0.22425  0.11275  0.41433  1.0000
  N   N1        1.0  0.02188  0.22591  0.05944  1.0000
  H   H31       1.0  0.28099  0.14554  0.42566  1.0000
  H   H32       1.0  0.26609  0.15101  0.36387  1.0000
  H   H33       1.0  0.29895  0.99815  0.38068  1.0000
  N   N2        1.0  0.12835  0.20191  0.29391  1.0000
  C   C34       1.0  0.13520  0.17968  0.26753  1.0000
  C   C35       1.0  0.13869  0.20389  0.32961  1.0000
  C   C36       1.0  0.11181  0.19216  0.30670  1.0000
  C   C37       1.0  0.12684  0.23008  0.27432  1.0000
  C   C38       1.0  0.13958  0.23728  0.24271  1.0000
  C   C39       1.0  0.12413  0.17105  0.23339  1.0000
  H   H34       1.0  0.10358  0.23291  0.32980  1.0000
  C   C40       1.0  0.15629  0.21368  0.32383  1.0000
  C   C41       1.0  0.16573  0.21155  0.36158  1.0000
  C   C42       1.0  0.13832  0.26783  0.23012  1.0000
  C   C43       1.0  0.13344  0.15603  0.20154  1.0000
  H   H35       1.0  0.13793  0.16036  0.28416  1.0000
  H   H36       1.0  0.14710  0.18595  0.25569  1.0000
  H   H37       1.0  0.13354  0.21907  0.35055  1.0000
  H   H38       1.0  0.13888  0.18323  0.34467  1.0000
  H   H39       1.0  0.11250  0.17056  0.31858  1.0000
  H   H40       1.0  0.10347  0.19091  0.28166  1.0000
  H   H41       1.0  0.11490  0.23203  0.25992  1.0000
  H   H42       1.0  0.12704  0.24713  0.29631  1.0000
  H   H43       1.0  0.13771  0.22415  0.21664  1.0000
  H   H44       1.0  0.15208  0.23367  0.25246  1.0000
  H   H45       1.0  0.11460  0.15649  0.24384  1.0000
  H   H46       1.0  0.11812  0.18952  0.22053  1.0000
  C   C44       1.0  0.02028  0.09375  0.10693  1.0000
  H   H47       1.0  0.16264  0.20095  0.30185  1.0000
  H   H48       1.0  0.15656  0.23601  0.31505  1.0000
  H   H49       1.0  0.25742  0.04846  0.32602  1.0000
  H   H50       1.0  0.17836  0.21846  0.35677  1.0000
  H   H51       1.0  0.16025  0.22506  0.38417  1.0000
  H   H52       1.0  0.14056  0.28204  0.25495  1.0000
  H   H53       1.0  0.14751  0.27220  0.20749  1.0000
  H   H54       1.0  0.12620  0.27216  0.21797  1.0000
  H   H55       1.0  0.12518  0.15071  0.17745  1.0000
  H   H56       1.0  0.14319  0.16975  0.19018  1.0000
  H   H57       1.0  0.13869  0.13630  0.21271  1.0000
  H   H58       1.0  0.23540  0.20970  0.20663  1.0000
  C   C45       1.0  0.23424  0.20582  0.17514  1.0000
  H   H59       1.0  0.16053  0.45676  0.18549  1.0000
  H   H60       1.0  0.16348  0.00245  0.05979  1.0000
  H   H61       1.0  0.13505  0.04396  0.21743  1.0000
  H   H62       1.0  0.03776  0.27571  0.08660  1.0000
  C   C46       1.0  0.31119  0.07795  0.41036  1.0000
  H   H63       1.0  0.12468  0.40947  0.06886  1.0000
  S   S21       1.0  0.99768  0.12829  0.02348  1.0000
  H   H64       1.0  0.01815  0.09961  0.13743  1.0000
  C   C47       1.0  0.26503  0.06747  0.32936  1.0000
  C   C48       1.0  0.28057  0.04568  0.38484  1.0000
  H   H65       1.0  0.22916  0.22494  0.16156  1.0000
  H   H66       1.0  0.19171  0.46741  0.32688  1.0000
  H   H67       1.0  0.18641  0.03144  0.12596  1.0000
  H   H68       1.0  0.16149  0.41625  0.22944  1.0000
  H   H69       1.0  0.99672  0.21003  0.11527  1.0000
  H   H70       1.0  0.10891  0.20753  0.36623  1.0000
  H   H71       1.0  0.01511  0.15881  0.19211  1.0000
  H   H72       1.0  0.05073  0.46408  0.06045  1.0000
  H   H73       1.0  0.23592  0.42544  0.16926  1.0000
  H   H74       1.0  0.02556  0.06918  0.24150  1.0000
  H   H75       1.0  0.09718  0.40659  0.03218  1.0000
  H   H76       1.0  0.03807  0.19673  0.31962  1.0000
  H   H77       1.0  0.07882  0.20479  0.31474  1.0000
  C   C49       1.0  0.02011  0.01285  0.11473  1.0000
  C   C50       1.0  0.30097  0.34990  0.98567  1.0000
  H   H78       1.0  0.03379  0.03415  0.23937  1.0000
  H   H79       1.0  0.07935  0.37778  0.07271  1.0000
  H   H80       1.0  0.04656  0.01871  0.10935  1.0000
  H   H81       1.0  0.01837  0.47468  0.43701  1.0000
  H   H82       1.0  0.30883  0.07613  0.37900  1.0000
  N   N3        1.0  0.28635  0.04659  0.42616  1.0000
  C   C51       1.0  0.00875  0.48041  0.45659  1.0000
  H   H83       1.0  0.04400  0.21666  0.36141  1.0000
  H   H84       1.0  0.02515  0.27045  0.45902  1.0000
  H   H85       1.0  0.04756  0.41069  0.06458  1.0000
  H   H86       1.0  0.29988  0.07301  0.46505  1.0000
  S   S22       1.0  0.00757  0.17075  0.45250  1.0000
  H   H87       1.0  0.15637  0.02507  0.14951  1.0000
  H   H88       1.0  0.03681  0.23452  0.31900  1.0000
  H   H89       1.0  0.09662  0.46057  0.98238  1.0000
  C   C52       1.0  0.22530  0.15194  0.04711  1.0000
  H   H90       1.0  0.25778  0.08594  0.32058  1.0000
  H   H91       1.0  0.02463  0.05720  0.07193  1.0000
  H   H92       1.0  0.13134  0.05079  0.16673  1.0000
  H   H93       1.0  0.02894  0.23758  0.11740  1.0000
  N   N4        1.0  0.21129  0.14919  0.11392  1.0000
  C   C53       1.0  0.20943  0.14895  0.07059  1.0000
  C   C54       1.0  0.19481  0.15163  0.13224  1.0000
  C   C55       1.0  0.22059  0.17538  0.12459  1.0000
  C   C56       1.0  0.22023  0.12390  0.12907  1.0000
  C   C57       1.0  0.21795  0.09574  0.10719  1.0000
  C   C58       1.0  0.06097  0.41026  0.06445  1.0000
  C   C59       1.0  0.18250  0.12810  0.12319  1.0000
  C   C60       1.0  0.16567  0.13605  0.13730  1.0000
  C   C61       1.0  0.22652  0.07184  0.12806  1.0000
  H   H94       1.0  0.20134  0.16633  0.06137  1.0000
  H   H95       1.0  0.20332  0.12959  0.06066  1.0000
  H   H96       1.0  0.19577  0.15175  0.16421  1.0000
  H   H97       1.0  0.18924  0.17210  0.12437  1.0000
  H   H98       1.0  0.21458  0.19430  0.11240  1.0000
  H   H99       1.0  0.23347  0.12788  0.12928  1.0000
  H   H100      1.0  0.21695  0.12016  0.15984  1.0000
  H   H101      1.0  0.22317  0.09692  0.07775  1.0000
  H   H102      1.0  0.20512  0.08991  0.10428  1.0000
  H   H103      1.0  0.26041  0.35569  0.01313  1.0000
  C   C62       1.0  0.06607  0.38027  0.07396  1.0000
  H   H104      1.0  0.21158  0.18547  0.18291  1.0000
  H   H105      1.0  0.18146  0.12356  0.09200  1.0000
  H   H106      1.0  0.18596  0.10877  0.13869  1.0000
  H   H107      1.0  0.16598  0.14110  0.16850  1.0000
  H   H108      1.0  0.16110  0.15453  0.12129  1.0000
  H   H109      1.0  0.15725  0.11823  0.13284  1.0000
  H   H110      1.0  0.22419  0.05175  0.11282  1.0000
  H   H111      1.0  0.23973  0.07557  0.12878  1.0000
  H   H112      1.0  0.22200  0.06979  0.15812  1.0000
  C   C63       1.0  0.00407  0.01875  0.99877  1.0000
  H   H113      1.0  0.26305  0.02980  0.44281  1.0000
  H   H114      1.0  0.04642  0.19544  0.01955  1.0000
  H   H115      1.0  0.26488  0.06661  0.44901  1.0000
  H   H116      1.0  0.03386  0.14815  0.01169  1.0000
  H   H117      1.0  0.09166  0.42371  0.07560  1.0000
  H   H118      1.0  0.12973  0.99929  0.15650  1.0000
  N   N5        1.0  0.19426  0.39931  0.22679  1.0000
  C   C64       1.0  0.19050  0.40781  0.26782  1.0000
  C   C65       1.0  0.19135  0.36824  0.22113  1.0000
  C   C66       1.0  0.21197  0.40520  0.21968  1.0000
  C   C67       1.0  0.18477  0.41635  0.19815  1.0000
  C   C68       1.0  0.16622  0.41345  0.19978  1.0000
  C   C69       1.0  0.19342  0.43910  0.27800  1.0000
  C   C70       1.0  0.21957  0.39109  0.18348  1.0000
  C   C71       1.0  0.17712  0.35464  0.24358  1.0000
  C   C72       1.0  0.17405  0.32471  0.22969  1.0000
  H   H119      1.0  0.07971  0.21468  0.36493  1.0000
  H   H120      1.0  0.17672  0.44008  0.32676  1.0000
  C   C73       1.0  0.23644  0.40262  0.17533  1.0000
  H   H121      1.0  0.19778  0.39488  0.28809  1.0000
  H   H122      1.0  0.17776  0.40336  0.27535  1.0000
  H   H123      1.0  0.18988  0.36345  0.18979  1.0000
  H   H124      1.0  0.20206  0.35603  0.23062  1.0000
  H   H125      1.0  0.21933  0.39839  0.24485  1.0000
  H   H126      1.0  0.21408  0.42816  0.21659  1.0000
  H   H127      1.0  0.27792  0.35915  0.04344  1.0000
  H   H128      1.0  0.18827  0.41075  0.16830  1.0000
  C   C74       1.0  0.02962  0.21923  0.09764  1.0000
  H   H129      1.0  0.16262  0.39256  0.18856  1.0000
  H   H130      1.0  0.20617  0.44521  0.27313  1.0000
  H   H131      1.0  0.18557  0.45293  0.26051  1.0000
  H   H132      1.0  0.21213  0.39448  0.15756  1.0000
  H   H133      1.0  0.22077  0.36813  0.18750  1.0000
  H   H134      1.0  0.18009  0.35359  0.27481  1.0000
  H   H135      1.0  0.16576  0.36644  0.24065  1.0000
  H   H136      1.0  0.18504  0.31171  0.23326  1.0000
  H   H137      1.0  0.16417  0.31516  0.24683  1.0000
  H   H138      1.0  0.17051  0.32458  0.19876  1.0000
  H   H139      1.0  0.04332  0.24204  0.03056  1.0000
  H   H140      1.0  0.01861  0.18093  0.05330  1.0000
  H   H141      1.0  0.04315  0.31834  0.04823  1.0000
  H   H142      1.0  0.29079  0.04427  0.36428  1.0000
  C   C75       1.0  0.30675  0.00822  0.40279  1.0000
  H   H143      1.0  0.10447  0.32984  0.03720  1.0000
  C   C76       1.0  0.10318  0.21039  0.33757  1.0000
  C   C77       1.0  0.02044  0.19974  0.03477  1.0000
  H   H144      1.0  0.23290  0.17483  0.11184  1.0000
  H   H145      1.0  0.01620  0.23399  0.36961  1.0000
  C   C78       1.0  0.05857  0.47796  0.04287  1.0000
  H   H146      1.0  0.23481  0.21273  0.45386  1.0000
  C   C79       1.0  0.00691  0.14219  0.20020  1.0000
  C   C80       1.0  0.03433  0.05668  0.18454  1.0000
  H   H147      1.0  0.06187  0.37472  0.10341  1.0000
  H   H148      1.0  0.05641  0.42855  0.00899  1.0000
  H   H149      1.0  0.24453  0.39885  0.20028  1.0000
  C   C81       1.0  0.15804  0.43534  0.17438  1.0000
  C   C82       1.0  0.18361  0.48782  0.13769  1.0000
  H   H150      1.0  0.18795  0.43891  0.20040  1.0000
  H   H151      1.0  0.13246  0.34794  0.04475  1.0000
  H   H152      1.0  0.05380  0.47768  0.01315  1.0000
  H   H153      1.0  0.16590  0.18953  0.37200  1.0000
  H   H154      1.0  0.99645  0.04660  0.08484  1.0000
  H   H155      1.0  0.19740  0.43220  0.33951  1.0000
  C   C83       1.0  0.27035  0.07099  0.37129  1.0000
  C   C84       1.0  0.27158  0.04662  0.45190  1.0000
  H   H156      1.0  0.16018  0.01882  0.19999  1.0000
  H   H157      1.0  0.05504  0.28953  0.03052  1.0000
  N   N6        1.0  0.08066  0.44125  0.02441  1.0000
  S   S23       1.0  0.02859  0.03868  0.46290  1.0000
  C   C85       1.0  0.23681  0.19098  0.46402  1.0000
  C   C86       1.0  0.04725  0.20892  0.09621  1.0000
  C   C87       1.0  0.09469  0.42761  0.04481  1.0000
  H   H158      1.0  0.02801  0.22074  0.43847  1.0000
  H   H159      1.0  0.05409  0.22554  0.15258  1.0000
  C   C88       1.0  0.09871  0.35614  0.98865  1.0000
  H   H160      1.0  0.10907  0.46650  0.05078  1.0000
  H   H161      1.0  0.99972  0.24492  0.04062  1.0000
  H   H162      1.0  0.30930  0.12354  0.40818  1.0000
  C   C89       1.0  0.03085  0.24855  0.03768  1.0000
  C   C90       1.0  0.03517  0.05592  0.22862  1.0000
  H   H163      1.0  0.22926  0.17420  0.04704  1.0000
  H   H164      1.0  0.07933  0.46687  0.07625  1.0000
  H   H165      1.0  0.11671  0.44200  0.01549  1.0000
  H   H166      1.0  0.03528  0.10828  0.05933  1.0000
  H   H167      1.0  0.04701  0.06413  0.23846  1.0000
  H   H168      1.0  0.03841  0.06145  0.11031  1.0000
  C   C91       1.0  0.01772  0.22704  0.45557  1.0000
  C   C92       1.0  0.18956  0.44490  0.32042  1.0000
  H   H169      1.0  0.28799  0.00315  0.44404  1.0000
  H   H170      1.0  0.00877  0.06179  0.18120  1.0000
  C   C93       1.0  0.00512  0.23677  0.06760  1.0000
  H   H171      1.0  0.27748  0.09061  0.37297  1.0000
  H   H172      1.0  0.32058  0.11029  0.44887  1.0000
  C   C94       1.0  0.01765  0.04627  0.16996  1.0000
  H   H173      1.0  0.24643  0.20177  0.16309  1.0000
  H   H174      1.0  0.28798  0.09156  0.43227  1.0000
  C   C95       1.0  0.03442  0.19361  0.00596  1.0000
  H   H175      1.0  0.25924  0.07337  0.38879  1.0000
  C   C96       1.0  0.06706  0.42021  0.02415  1.0000
  S   S24       1.0  0.99779  0.09358  0.29485  1.0000
  H   H176      1.0  0.14480  0.43192  0.17455  1.0000
  C   C97       1.0  0.31797  0.10727  0.41771  1.0000
  H   H177      1.0  0.06656  0.19735  0.13516  1.0000
  H   H178      1.0  0.27565  0.06598  0.30989  1.0000
  H   H179      1.0  0.06051  0.36537  0.05327  1.0000
  H   H180      1.0  0.08413  0.48563  0.03389  1.0000
  C   C98       1.0  0.00623  0.20699  0.46642  1.0000
  C   C99       1.0  0.03527  0.21557  0.33719  1.0000
  H   H181      1.0  0.11816  0.43544  0.10366  1.0000
  C   C100      1.0  0.04256  0.29760  0.03374  1.0000
  H   H182      1.0  0.23512  0.13916  0.05973  1.0000
  C   C101      1.0  0.05399  0.20522  0.13691  1.0000
  C   C102      1.0  0.12273  0.43220  0.07385  1.0000
  H   H183      1.0  0.27342  0.32602  0.02005  1.0000
  C   C103      1.0  0.19304  0.01879  0.14631  1.0000
  H   H184      1.0  0.22501  0.17998  0.46513  1.0000
  H   H185      1.0  0.01737  0.00997  0.08352  1.0000
  H   H186      1.0  0.01275  0.99710  0.13046  1.0000
  H   H187      1.0  0.01726  0.19645  0.37389  1.0000
  C   C104      1.0  0.20827  0.49324  0.17373  1.0000
  H   H188      1.0  0.22034  0.48629  0.18044  1.0000
  H   H189      1.0  0.23915  0.10717  0.47608  1.0000
  C   C105      1.0  0.01811  0.21419  0.35339  1.0000
  C   C106      1.0  0.12483  0.35598  0.02209  1.0000
  H   H190      1.0  0.30395  0.02477  0.46105  1.0000
  H   H191      1.0  0.06484  0.42442  0.08807  1.0000
  C   C107      1.0  0.01205  0.49471  0.00670  1.0000
  H   H192      1.0  0.02015  0.28745  0.06058  1.0000
  H   H193      1.0  0.02853  0.13540  0.09185  1.0000
  C   C108      1.0  0.02542  0.06270  0.10323  1.0000
  C   C109      1.0  0.14078  0.04672  0.18867  1.0000
  C   C110      1.0  0.29582  0.07287  0.43466  1.0000
  S   S25       1.0  0.03481  0.36847  0.98927  1.0000
  H   H194      1.0  0.28759  0.23349  0.47628  1.0000
  H   H195      1.0  0.14888  0.06527  0.19011  1.0000
  C   C111      1.0  0.13071  0.37689  0.99749  1.0000
  H   H196      1.0  0.00550  0.25479  0.08795  1.0000
  N   N7        1.0  0.01566  0.04223  0.12688  1.0000
  C   C112      1.0  0.99809  0.04655  0.11678  1.0000
  C   C113      1.0  0.22300  0.14308  0.00506  1.0000
  H   H197      1.0  0.03723  0.30062  0.00462  1.0000
  H   H198      1.0  0.01473  0.02645  0.18540  1.0000
  C   C114      1.0  0.00069  0.00499  0.46255  1.0000
  H   H199      1.0  0.00892  0.09720  0.09084  1.0000
  H   H200      1.0  0.00987  0.19420  0.30126  1.0000
  H   H201      1.0  0.32830  0.32556  0.01505  1.0000
  C   C115      1.0  0.29612  0.02073  0.43549  1.0000
  H   H202      1.0  0.30103  0.32724  0.99248  1.0000
  H   H203      1.0  0.04438  0.04400  0.17305  1.0000
  H   H204      1.0  0.01850  0.49134  0.03336  1.0000
  C   C116      1.0  0.03775  0.00358  0.12128  1.0000
  C   C117      1.0  0.00036  0.45913  0.47686  1.0000
  S   S26       1.0  0.00029  0.05428  0.98671  1.0000
  H   H205      1.0  0.21338  0.15574  0.99132  1.0000
  C   C118      1.0  0.00547  0.21116  0.32072  1.0000
  H   H206      1.0  0.31418  0.02423  0.38808  1.0000
  C   C119      1.0  0.03311  0.16425  0.98872  1.0000
  H   H207      1.0  0.00603  0.23085  0.30348  1.0000
  H   H208      1.0  0.24463  0.18001  0.44289  1.0000
  S   S27       1.0  0.07855  0.34326  0.98554  1.0000
  H   H209      1.0  0.00352  0.43739  0.47257  1.0000
  H   H210      1.0  0.23440  0.14643  0.98880  1.0000
  C   C120      1.0  0.01601  0.00998  0.47806  1.0000
  H   H211      1.0  0.99930  0.07369  0.48051  1.0000
  S   S28       1.0  0.02593  0.44525  0.98389  1.0000
  C   C121      1.0  0.01609  0.25532  0.46747  1.0000
  H   H212      1.0  0.32068  0.06286  0.41892  1.0000
  H   H213      1.0  0.32941  0.11007  0.40145  1.0000
  H   H214      1.0  0.13818  0.99707  0.09699  1.0000
  H   H215      1.0  0.99629  0.01831  0.43977  1.0000
  H   H216      1.0  0.26311  0.21760  0.47910  1.0000
  H   H217      1.0  0.31405  0.25587  0.48004  1.0000
  Fe  Fe13      1.0  0.05638  0.35891  0.95221  1.0000
  C   C122      1.0  0.99796  0.27711  0.96220  1.0000
  Fe  Fe14      1.0  0.03625  0.36850  0.87856  1.0000
  S   S29       1.0  0.01365  0.37944  0.91131  1.0000
  S   S30       1.0  0.03830  0.36405  0.81297  1.0000
  Fe  Fe15      1.0  0.03005  0.40482  0.94970  1.0000
  H   H218      1.0  0.24836  0.46578  0.86082  1.0000
  Fe  Fe16      1.0  0.02024  0.34235  0.94830  1.0000
  H   H219      1.0  0.24802  0.40145  0.69337  1.0000
  S   S31       1.0  0.05252  0.39660  0.91439  1.0000
  S   S32       1.0  0.04196  0.33008  0.91385  1.0000
  H   H220      1.0  0.02001  0.48692  0.67295  1.0000
  Fe  Fe17      1.0  0.30327  0.38748  0.80968  1.0000
  S   S33       1.0  0.29509  0.37422  0.75046  1.0000
  S   S34       1.0  0.28668  0.40335  0.85901  1.0000
  C   C123      1.0  0.00210  0.46452  0.61410  1.0000
  H   H221      1.0  0.27969  0.42663  0.72454  1.0000
  Fe  Fe18      1.0  0.31333  0.40550  0.72752  1.0000
  S   S35       1.0  0.30790  0.43451  0.67603  1.0000
  Fe  Fe19      1.0  0.31559  0.34302  0.75134  1.0000
  C   C124      1.0  0.00462  0.47922  0.94274  1.0000
  H   H222      1.0  0.28880  0.46570  0.76217  1.0000
  H   H223      1.0  0.02532  0.30558  0.79271  1.0000
  Fe  Fe20      1.0  0.29658  0.12403  0.53026  1.0000
  S   S36       1.0  0.29716  0.13376  0.59440  1.0000
  H   H224      1.0  0.28641  0.19600  0.61076  1.0000
  H   H225      1.0  0.25802  0.43869  0.83467  1.0000
  H   H226      1.0  0.26087  0.38475  0.72854  1.0000
  Fe  Fe21      1.0  0.31596  0.09953  0.59946  1.0000
  H   H227      1.0  0.32051  0.39201  0.88616  1.0000
  Fe  Fe22      1.0  0.31774  0.16317  0.58093  1.0000
  N   N8        1.0  0.31173  0.35646  0.95158  1.0000
  S   S37       1.0  0.31401  0.08790  0.53685  1.0000
  S   S38       1.0  0.31625  0.15495  0.51650  1.0000
  C   C125      1.0  0.31521  0.27223  0.69964  1.0000
  C   C126      1.0  0.05066  0.28462  0.82989  1.0000
  H   H228      1.0  0.29100  0.22825  0.56442  1.0000
  H   H229      1.0  0.27747  0.34804  0.95602  1.0000
  H   H230      1.0  0.31557  0.30086  0.91516  1.0000
  H   H231      1.0  0.28052  0.02262  0.50230  1.0000
  C   C127      1.0  0.23204  0.43870  0.83084  1.0000
  H   H232      1.0  0.26122  0.04104  0.54973  1.0000
  H   H233      1.0  0.32309  0.30317  0.65866  1.0000
  C   C128      1.0  0.32037  0.28126  0.66321  1.0000
  C   C129      1.0  0.30692  0.47166  0.67015  1.0000
  C   C130      1.0  0.27317  0.19933  0.61148  1.0000
  S   S39       1.0  0.31839  0.06892  0.65072  1.0000
  C   C131      1.0  0.31661  0.03193  0.65876  1.0000
  H   H234      1.0  0.03901  0.45627  0.70830  1.0000
  H   H235      1.0  0.31398  0.34784  0.89069  1.0000
  C   C132      1.0  0.26580  0.19241  0.57136  1.0000
  H   H236      1.0  0.30811  0.00710  0.78767  1.0000
  C   C133      1.0  0.30231  0.47968  0.82933  1.0000
  H   H237      1.0  0.07037  0.47291  0.89664  1.0000
  C   C134      1.0  0.02261  0.36513  0.77817  1.0000
  C   C135      1.0  0.02624  0.35885  0.73940  1.0000
  C   C136      1.0  0.01417  0.35921  0.71079  1.0000
  H   H238      1.0  0.30531  0.45819  0.83900  1.0000
  H   H239      1.0  0.03850  0.35366  0.73145  1.0000
  H   H240      1.0  0.01714  0.35423  0.68114  1.0000
  H   H241      1.0  0.99790  0.25060  0.74103  1.0000
  C   C137      1.0  0.00883  0.26162  0.93983  1.0000
  C   C138      1.0  0.00633  0.23269  0.93419  1.0000
  H   H242      1.0  0.01926  0.27186  0.92747  1.0000
  C   C139      1.0  0.30357  0.31105  0.91478  1.0000
  C   C140      1.0  0.03199  0.48286  0.65998  1.0000
  H   H243      1.0  0.29422  0.27792  0.87800  1.0000
  H   H244      1.0  0.27780  0.47488  0.84660  1.0000
  H   H245      1.0  0.05200  0.30742  0.82440  1.0000
  H   H246      1.0  0.26581  0.44235  0.69109  1.0000
  C   C141      1.0  0.03673  0.11876  0.53201  1.0000
  C   C142      1.0  0.24351  0.37463  0.93562  1.0000
  C   C143      1.0  0.24941  0.35724  0.90580  1.0000
  C   C144      1.0  0.26226  0.36582  0.88155  1.0000
  C   C145      1.0  0.26962  0.39194  0.88692  1.0000
  C   C146      1.0  0.26361  0.40952  0.91636  1.0000
  C   C147      1.0  0.25067  0.40101  0.94045  1.0000
  H   H247      1.0  0.05519  0.27281  0.80446  1.0000
  H   H248      1.0  0.26653  0.35209  0.85891  1.0000
  H   H249      1.0  0.26910  0.42982  0.92090  1.0000
  C   C148      1.0  0.99980  0.30191  0.84231  1.0000
  N   N9        1.0  0.26287  0.46722  0.76898  1.0000
  C   C149      1.0  0.00663  0.11043  0.53818  1.0000
  H   H250      1.0  0.26990  0.18444  0.49357  1.0000
  N   N10       1.0  0.01897  0.46200  0.59802  1.0000
  C   C150      1.0  0.00672  0.37173  0.78810  1.0000
  S   S40       1.0  0.32282  0.35462  0.81248  1.0000
  C   C151      1.0  0.25065  0.47554  0.79924  1.0000
  C   C152      1.0  0.03141  0.45921  0.62947  1.0000
  C   C153      1.0  0.03305  0.27724  0.83811  1.0000
  C   C154      1.0  0.28436  0.48167  0.82029  1.0000
  H   H251      1.0  0.27090  0.17191  0.56181  1.0000
  H   H252      1.0  0.26378  0.02007  0.72008  1.0000
  H   H253      1.0  0.03791  0.12283  0.56344  1.0000
  C   C155      1.0  0.31149  0.01319  0.63013  1.0000
  H   H254      1.0  0.25256  0.06396  0.51422  1.0000
  C   C156      1.0  0.31177  0.24352  0.70466  1.0000
  H   H255      1.0  0.00645  0.24678  0.84863  1.0000
  C   C157      1.0  0.04337  0.47528  0.69299  1.0000
  C   C158      1.0  0.02217  0.28412  0.80302  1.0000
  H   H256      1.0  0.02991  0.43890  0.64485  1.0000
  C   C159      1.0  0.32201  0.26188  0.63246  1.0000
  H   H257      1.0  0.00473  0.06852  0.58094  1.0000
  H   H258      1.0  0.29405  0.35283  0.90606  1.0000
  H   H259      1.0  0.05576  0.47145  0.68192  1.0000
  H   H260      1.0  0.02612  0.26949  0.77993  1.0000
  H   H261      1.0  0.03343  0.38566  0.54654  1.0000
  H   H262      1.0  0.24247  0.24988  0.50569  1.0000
  C   C160      1.0  0.07341  0.46145  0.95675  1.0000
  H   H263      1.0  0.31693  0.49433  0.49908  1.0000
  H   H264      1.0  0.23110  0.42393  0.85553  1.0000
  H   H265      1.0  0.28758  0.26142  0.51186  1.0000
  H   H266      1.0  0.30970  0.48521  0.80366  1.0000
  C   C161      1.0  0.01319  0.47473  0.97693  1.0000
  S   S41       1.0  0.00189  0.30039  0.50505  1.0000
  H   H267      1.0  0.31276  0.48248  0.72875  1.0000
  H   H268      1.0  0.27255  0.18477  0.67071  1.0000
  C   C162      1.0  0.24755  0.28818  0.53547  1.0000
  H   H269      1.0  0.00828  0.11771  0.56852  1.0000
  H   H270      1.0  0.01481  0.22080  0.91699  1.0000
  N   N11       1.0  0.26825  0.21434  0.54043  1.0000
  C   C163      1.0  0.25305  0.25986  0.51965  1.0000
  C   C164      1.0  0.99625  0.06423  0.55669  1.0000
  H   H271      1.0  0.30849  0.02103  0.60179  1.0000
  C   C165      1.0  0.26057  0.39982  0.70417  1.0000
  C   C166      1.0  0.02274  0.48661  0.57193  1.0000
  H   H272      1.0  0.24398  0.33684  0.90153  1.0000
  H   H273      1.0  0.31063  0.20224  0.67842  1.0000
  C   C167      1.0  0.03488  0.43130  0.54870  1.0000
  H   H274      1.0  0.28125  0.44092  0.79495  1.0000
  H   H275      1.0  0.30779  0.23617  0.73262  1.0000
  H   H276      1.0  0.02922  0.28888  0.86412  1.0000
  S   S42       1.0  0.31297  0.29556  0.73994  1.0000
  H   H277      1.0  0.25789  0.29972  0.54826  1.0000
  H   H278      1.0  0.23113  0.00367  0.68485  1.0000
  H   H279      1.0  0.02448  0.01650  0.96031  1.0000
  H   H280      1.0  0.23430  0.02955  0.72242  1.0000
  H   H281      1.0  0.01859  0.41672  0.59260  1.0000
  H   H282      1.0  0.28265  0.30974  0.87675  1.0000
  C   C168      1.0  0.25874  0.04357  0.51843  1.0000
  H   H283      1.0  0.03397  0.20874  0.98163  1.0000
  H   H284      1.0  0.26808  0.15800  0.63557  1.0000
  C   C169      1.0  0.24816  0.45424  0.83290  1.0000
  S   S43       1.0  0.32060  0.42012  0.78633  1.0000
  C   C170      1.0  0.01956  0.43558  0.57392  1.0000
  H   H285      1.0  0.29254  0.19917  0.53255  1.0000
  C   C171      1.0  0.31164  0.38789  0.94612  1.0000
  H   H286      1.0  0.08119  0.44069  0.90372  1.0000
  C   C172      1.0  0.30325  0.48263  0.63350  1.0000
  H   H287      1.0  0.26757  0.25392  0.57107  1.0000
  H   H288      1.0  0.00061  0.48390  0.63132  1.0000
  H   H289      1.0  0.00541  0.46409  0.91956  1.0000
  H   H290      1.0  0.04311  0.16077  0.96793  1.0000
  H   H291      1.0  0.02596  0.07823  0.53860  1.0000
  C   C173      1.0  0.30564  0.34323  0.91484  1.0000
  C   C174      1.0  0.26628  0.18041  0.64303  1.0000
  H   H292      1.0  0.04387  0.49280  0.71409  1.0000
  H   H293      1.0  0.22186  0.45370  0.83274  1.0000
  C   C175      1.0  0.01709  0.00513  0.98079  1.0000
  H   H294      1.0  0.00902  0.43469  0.55414  1.0000
  C   C176      1.0  0.29184  0.23996  0.50524  1.0000
  H   H295      1.0  0.99898  0.31282  0.76633  1.0000
  S   S44       1.0  0.22766  0.36180  0.96635  1.0000
  H   H296      1.0  0.25321  0.18444  0.64707  1.0000
  S   S45       1.0  0.27155  0.12014  0.50057  1.0000
  H   H297      1.0  0.05817  0.27921  0.85529  1.0000
  H   H298      1.0  0.26831  0.39156  0.68055  1.0000
  H   H299      1.0  0.03259  0.25452  0.84475  1.0000
  C   C177      1.0  0.26311  0.48893  0.73726  1.0000
  H   H300      1.0  0.27161  0.48271  0.71393  1.0000
  H   H301      1.0  0.12493  0.40311  0.94888  1.0000
  H   H302      1.0  0.25689  0.42312  0.77332  1.0000
  C   C178      1.0  0.25696  0.44009  0.75134  1.0000
  C   C179      1.0  0.26681  0.42858  0.71671  1.0000
  H   H303      1.0  0.23879  0.47998  0.78546  1.0000
  C   C180      1.0  0.28297  0.35822  0.98156  1.0000
  C   C181      1.0  0.32043  0.02109  0.69546  1.0000
  H   H304      1.0  0.06162  0.45061  0.95657  1.0000
  H   H305      1.0  0.30184  0.30775  0.85194  1.0000
  C   C182      1.0  0.12051  0.38708  0.96825  1.0000
  H   H306      1.0  0.24424  0.44233  0.74146  1.0000
  H   H307      1.0  0.09099  0.47396  0.91299  1.0000
  C   C183      1.0  0.26212  0.20225  0.50294  1.0000
  S   S46       1.0  0.00081  0.31319  0.97199  1.0000
  C   C184      1.0  0.29506  0.30113  0.87809  1.0000
  C   C185      1.0  0.00303  0.26419  0.49063  1.0000
  H   H308      1.0  0.27088  0.22135  0.62003  1.0000
  H   H309      1.0  0.29949  0.39522  0.93727  1.0000
  C   C186      1.0  0.27959  0.46295  0.78529  1.0000
  H   H310      1.0  0.24898  0.23592  0.57099  1.0000
  H   H311      1.0  0.23099  0.42642  0.80377  1.0000
  H   H312      1.0  0.29785  0.00037  0.83297  1.0000
  H   H313      1.0  0.30538  0.49436  0.85310  1.0000
  C   C187      1.0  0.28617  0.21944  0.53705  1.0000
  H   H314      1.0  0.25272  0.18847  0.57609  1.0000
  C   C188      1.0  0.00041  0.25213  0.82098  1.0000
  H   H315      1.0  0.00811  0.32036  0.84268  1.0000
  H   H316      1.0  0.04823  0.10968  0.52139  1.0000
  S   S47       1.0  0.32081  0.20988  0.59718  1.0000
  H   H317      1.0  0.09721  0.38410  0.94031  1.0000
  C   C189      1.0  0.25960  0.24086  0.55241  1.0000
  C   C190      1.0  0.23990  0.01878  0.69732  1.0000
  H   H318      1.0  0.03463  0.13887  0.51671  1.0000
  H   H319      1.0  0.02255  0.09456  0.49266  1.0000
  H   H320      1.0  0.04481  0.40137  0.50784  1.0000
  H   H321      1.0  0.00434  0.43666  0.66474  1.0000
  C   C191      1.0  0.02294  0.09825  0.52417  1.0000
  H   H322      1.0  0.04590  0.43062  0.56669  1.0000
  H   H323      1.0  0.02156  0.16176  0.97299  1.0000
  C   C192      1.0  0.31852  0.23318  0.63746  1.0000
  C   C193      1.0  0.30974  0.49044  0.70050  1.0000
  H   H324      1.0  0.24451  0.16919  0.51508  1.0000
  C   C194      1.0  0.03395  0.40371  0.52636  1.0000
  H   H325      1.0  0.01268  0.27661  0.72723  1.0000
  H   H326      1.0  0.30092  0.46841  0.60980  1.0000
  H   H327      1.0  0.00475  0.12960  0.52052  1.0000
  C   C195      1.0  0.31336  0.22415  0.67388  1.0000
  H   H328      1.0  0.04372  0.45828  0.61681  1.0000
  C   C196      1.0  0.07943  0.46227  0.91502  1.0000
  H   H329      1.0  0.24251  0.30102  0.51169  1.0000
  H   H330      1.0  0.31520  0.24935  0.53113  1.0000
  H   H331      1.0  0.00286  0.04960  0.53713  1.0000
  C   C197      1.0  0.10471  0.37653  0.96350  1.0000
  H   H332      1.0  0.00155  0.29164  0.87082  1.0000
  H   H333      1.0  0.00375  0.37666  0.81776  1.0000
  H   H334      1.0  0.01812  0.48257  0.54224  1.0000
  H   H335      1.0  0.03628  0.44830  0.52713  1.0000
  H   H336      1.0  0.31037  0.43880  0.90748  1.0000
  H   H337      1.0  0.23678  0.20373  0.52350  1.0000
  H   H338      1.0  0.32603  0.26921  0.60452  1.0000
  H   H339      1.0  0.24278  0.03473  0.67503  1.0000
  C   C198      1.0  0.27460  0.04289  0.49591  1.0000
  H   H340      1.0  0.26211  0.26384  0.49687  1.0000
  H   H341      1.0  0.02312  0.40328  0.50755  1.0000
  H   H342      1.0  0.29629  0.30370  0.93962  1.0000
  S   S48       1.0  0.99727  0.36855  0.56963  1.0000
  H   H343      1.0  0.27292  0.99696  0.79276  1.0000
  C   C199      1.0  0.24452  0.19107  0.50405  1.0000
  H   H344      1.0  0.00551  0.23724  0.79948  1.0000
  N   N12       1.0  0.00421  0.28196  0.80984  1.0000
  H   H345      1.0  0.23805  0.28532  0.55779  1.0000
  C   C200      1.0  0.99998  0.27326  0.73621  1.0000
  C   C201      1.0  0.99830  0.36595  0.72070  1.0000
  H   H346      1.0  0.03603  0.48918  0.56866  1.0000
  H   H347      1.0  0.24635  0.41471  0.96310  1.0000
  H   H348      1.0  0.32770  0.48279  0.56334  1.0000
  H   H349      1.0  0.99772  0.02053  0.60941  1.0000
  H   H350      1.0  0.32448  0.03524  0.71786  1.0000
  H   H351      1.0  0.32401  0.30317  0.97485  1.0000
  H   H352      1.0  0.31428  0.39861  0.97403  1.0000
  H   H353      1.0  0.07167  0.48348  0.96612  1.0000
  H   H354      1.0  0.08941  0.42688  0.96921  1.0000
  H   H355      1.0  0.28227  0.05992  0.50751  1.0000
  C   C202      1.0  0.32280  0.43171  0.91407  1.0000
  C   C203      1.0  0.31024  0.24140  0.50342  1.0000
  C   C204      1.0  0.32355  0.39975  0.91542  1.0000
  H   H356      1.0  0.31542  0.22040  0.49739  1.0000
  H   H357      1.0  0.25097  0.49038  0.72367  1.0000
  H   H358      1.0  0.28160  0.38122  0.97901  1.0000
  C   C205      1.0  0.32893  0.34764  0.95960  1.0000
  H   H359      1.0  0.32667  0.44083  0.94207  1.0000
  C   C206      1.0  0.25533  0.00378  0.70944  1.0000
  H   H360      1.0  0.25065  0.02633  0.50897  1.0000
  H   H361      1.0  0.99930  0.02419  0.90729  1.0000
  H   H362      1.0  0.28337  0.99751  0.74766  1.0000
  Fe  Fe23      1.0  0.16786  0.63660  0.29881  1.0000
  S   S49       1.0  0.17182  0.63365  0.23467  1.0000
  S   S50       1.0  0.14404  0.65503  0.32194  1.0000
  Fe  Fe24      1.0  0.20324  0.61958  0.31654  1.0000
  S   S51       1.0  0.20914  0.61536  0.25293  1.0000
  S   S52       1.0  0.21979  0.60637  0.36775  1.0000
  Fe  Fe25      1.0  0.19532  0.65593  0.24454  1.0000
  S   S53       1.0  0.20619  0.68808  0.20183  1.0000
  Fe  Fe26      1.0  0.18519  0.59338  0.24660  1.0000
  S   S54       1.0  0.17790  0.55726  0.20562  1.0000
  S   S55       1.0  0.19086  0.66137  0.30844  1.0000
  S   S56       1.0  0.17977  0.59514  0.31056  1.0000
  Fe  Fe27      1.0  0.20347  0.90851  0.10424  1.0000
  S   S57       1.0  0.19774  0.91715  0.04183  1.0000
  S   S58       1.0  0.21299  0.94007  0.14930  1.0000
  Fe  Fe28      1.0  0.19310  0.84517  0.09805  1.0000
  S   S59       1.0  0.18672  0.85057  0.03528  1.0000
  S   S60       1.0  0.18377  0.80742  0.13358  1.0000
  Fe  Fe29      1.0  0.21003  0.87562  0.02943  1.0000
  H   H363      1.0  0.17053  0.97775  0.19338  1.0000
  Fe  Fe30      1.0  0.17509  0.89143  0.05208  1.0000
  S   S61       1.0  0.14896  0.90694  0.04866  1.0000
  S   S62       1.0  0.21683  0.86802  0.09202  1.0000
  S   S63       1.0  0.18051  0.88503  0.11486  1.0000
  Fe  Fe31      1.0  0.02075  0.58215  0.42375  1.0000
  C   C207      1.0  0.29377  0.87238  0.01828  1.0000
  H   H364      1.0  0.16145  0.63284  0.43561  1.0000
  Fe  Fe32      1.0  0.05086  0.61603  0.39621  1.0000
  S   S64       1.0  0.03690  0.65633  0.39042  1.0000
  S   S65       1.0  0.07665  0.60297  0.37930  1.0000
  Fe  Fe33      1.0  0.02471  0.64511  0.44667  1.0000
  C   C208      1.0  0.17595  0.64393  0.13344  1.0000
  Fe  Fe34      1.0  0.01742  0.62975  0.36344  1.0000
  C   C209      1.0  0.22776  0.63651  0.03229  1.0000
  S   S66       1.0  0.04025  0.60629  0.45478  1.0000
  S   S67       1.0  0.03202  0.59048  0.36532  1.0000
  C   C210      1.0  0.31809  0.98576  0.41838  1.0000
  H   H365      1.0  0.11519  0.61124  0.21719  1.0000
  H   H366      1.0  0.11996  0.83543  0.02670  1.0000
  H   H367      1.0  0.23562  0.93287  0.07298  1.0000
  C   C211      1.0  0.24814  0.80847  0.04850  1.0000
  C   C212      1.0  0.00810  0.84648  0.43498  1.0000
  H   H368      1.0  0.21624  0.71943  0.33786  1.0000
  C   C213      1.0  0.17014  0.93325  0.18902  1.0000
  N   N13       1.0  0.06616  0.62499  0.24419  1.0000
  H   H369      1.0  0.01179  0.49911  0.33041  1.0000
  H   H370      1.0  0.28744  0.89000  0.16060  1.0000
  H   H371      1.0  0.16531  0.51883  0.14951  1.0000
  H   H372      1.0  0.04231  0.61139  0.22648  1.0000
  H   H373      1.0  0.20127  0.64703  0.12271  1.0000
  H   H374      1.0  0.09104  0.90128  0.01931  1.0000
  C   C214      1.0  0.21634  0.61539  0.05117  1.0000
  C   C215      1.0  0.13234  0.89708  0.01913  1.0000
  C   C216      1.0  0.11661  0.90330  0.03180  1.0000
  S   S68       1.0  0.01675  0.92762  0.03032  1.0000
  H   H375      1.0  0.03642  0.65507  0.25702  1.0000
  H   H376      1.0  0.11490  0.91393  0.05902  1.0000
  H   H377      1.0  0.24348  0.93414  0.02456  1.0000
  C   C217      1.0  0.19974  0.72142  0.18364  1.0000
  C   C218      1.0  0.20993  0.73631  0.15822  1.0000
  C   C219      1.0  0.20541  0.76264  0.14292  1.0000
  C   C220      1.0  0.19052  0.77455  0.15267  1.0000
  C   C221      1.0  0.18033  0.75963  0.17803  1.0000
  C   C222      1.0  0.18486  0.73334  0.19340  1.0000
  H   H378      1.0  0.22147  0.72744  0.15039  1.0000
  H   H379      1.0  0.21342  0.77366  0.12348  1.0000
  H   H380      1.0  0.16884  0.76857  0.18610  1.0000
  H   H381      1.0  0.17686  0.72235  0.21289  1.0000
  C   C223      1.0  0.20657  0.97479  0.16135  1.0000
  H   H382      1.0  0.18238  0.68576  0.43453  1.0000
  H   H383      1.0  0.09021  0.84485  0.03445  1.0000
  H   H384      1.0  0.05347  0.96845  0.10804  1.0000
  C   C224      1.0  0.21272  0.64966  0.47931  1.0000
  C   C225      1.0  0.18856  0.66709  0.44672  1.0000
  H   H385      1.0  0.04291  0.64232  0.30318  1.0000
  H   H386      1.0  0.20903  0.52793  0.21422  1.0000
  H   H387      1.0  0.01536  0.69191  0.01851  1.0000
  C   C226      1.0  0.19796  0.99152  0.13553  1.0000
  C   C227      1.0  0.12539  0.64001  0.33761  1.0000
  C   C228      1.0  0.11241  0.65787  0.34682  1.0000
  C   C229      1.0  0.09742  0.64706  0.35945  1.0000
  C   C230      1.0  0.09523  0.61814  0.36346  1.0000
  C   C231      1.0  0.10818  0.60029  0.35409  1.0000
  C   C232      1.0  0.12312  0.61108  0.34112  1.0000
  H   H388      1.0  0.11401  0.68028  0.34425  1.0000
  H   H389      1.0  0.08764  0.66111  0.36654  1.0000
  H   H390      1.0  0.10667  0.57789  0.35704  1.0000
  H   H391      1.0  0.13292  0.59702  0.33421  1.0000
  C   C233      1.0  0.23809  0.61372  0.39398  1.0000
  C   C234      1.0  0.24819  0.63648  0.38540  1.0000
  C   C235      1.0  0.26203  0.64205  0.40817  1.0000
  C   C236      1.0  0.26619  0.62499  0.43987  1.0000
  C   C237      1.0  0.25622  0.60201  0.44809  1.0000
  C   C238      1.0  0.24230  0.59657  0.42552  1.0000
  H   H392      1.0  0.24532  0.64990  0.36129  1.0000
  C   C239      1.0  0.13436  0.88408  0.98327  1.0000
  C   C240      1.0  0.07094  0.55297  0.29625  1.0000
  H   H393      1.0  0.23470  0.57888  0.43265  1.0000
  H   H394      1.0  0.18925  0.94467  0.22930  1.0000
  H   H395      1.0  0.06942  0.80005  0.45002  1.0000
  C   C241      1.0  0.02414  0.73449  0.01347  1.0000
  C   C242      1.0  0.01060  0.80651  0.09573  1.0000
  C   C243      1.0  0.20976  0.70126  0.39322  1.0000
  H   H396      1.0  0.19594  0.63144  0.16827  1.0000
  C   C244      1.0  0.04368  0.75956  0.45403  1.0000
  H   H397      1.0  0.03083  0.85728  0.46049  1.0000
  C   C245      1.0  0.18641  0.52656  0.18416  1.0000
  H   H398      1.0  0.01821  0.71612  0.24118  1.0000
  S   S69       1.0  0.04972  0.86652  0.01243  1.0000
  H   H399      1.0  0.27712  0.91669  0.03919  1.0000
  H   H400      1.0  0.16691  0.62052  0.38822  1.0000
  H   H401      1.0  0.06686  0.61465  0.15955  1.0000
  H   H402      1.0  0.11337  0.64883  0.21106  1.0000
  H   H403      1.0  0.06033  0.55435  0.31573  1.0000
  C   C246      1.0  0.19974  0.52572  0.05030  1.0000
  H   H404      1.0  0.29172  0.85013  0.08895  1.0000
  C   C247      1.0  0.04570  0.65741  0.27979  1.0000
  H   H405      1.0  0.16318  0.65720  0.39579  1.0000
  C   C248      1.0  0.00595  0.72406  0.24791  1.0000
  H   H406      1.0  0.08188  0.55891  0.31288  1.0000
  C   C249      1.0  0.02086  0.84232  0.46618  1.0000
  H   H407      1.0  0.00461  0.80551  0.06714  1.0000
  H   H408      1.0  0.28804  0.91455  0.09750  1.0000
  H   H409      1.0  0.18951  0.52059  0.03093  1.0000
  H   H410      1.0  0.03492  0.58250  0.16742  1.0000
  H   H411      1.0  0.16190  0.91515  0.18527  1.0000
  C   C250      1.0  0.29468  0.89452  0.10029  1.0000
  H   H412      1.0  0.30559  0.87111  0.14757  1.0000
  H   H413      1.0  0.21642  0.59632  0.03288  1.0000
  H   H414      1.0  0.25536  0.94743  0.06450  1.0000
  C   C251      1.0  0.16098  0.96137  0.19385  1.0000
  C   C252      1.0  0.16834  0.63805  0.40905  1.0000
  C   C253      1.0  0.26923  0.84565  0.03270  1.0000
  C   C254      1.0  0.06358  0.82084  0.45289  1.0000
  C   C255      1.0  0.05806  0.60290  0.17759  1.0000
  H   H415      1.0  0.21757  0.65905  0.40565  1.0000
  C   C256      1.0  0.00045  0.54075  0.32901  1.0000
  H   H416      1.0  0.26959  0.65983  0.40119  1.0000
  S   S70       1.0  0.03576  0.78819  0.00720  1.0000
  C   C257      1.0  0.04341  0.59671  0.15227  1.0000
  H   H417      1.0  0.14069  0.92612  0.14468  1.0000
  C   C258      1.0  0.21596  0.67886  0.42188  1.0000
  C   C259      1.0  0.06303  0.65277  0.26382  1.0000
  C   C260      1.0  0.09709  0.63093  0.25416  1.0000
  C   C261      1.0  0.11313  0.63145  0.23231  1.0000
  C   C262      1.0  0.04397  0.68685  0.29667  1.0000
  H   H418      1.0  0.08309  0.64396  0.20459  1.0000
  H   H419      1.0  0.06574  0.67033  0.24361  1.0000
  H   H420      1.0  0.07121  0.65564  0.28899  1.0000
  H   H421      1.0  0.09611  0.65108  0.26990  1.0000
  H   H422      1.0  0.09774  0.61362  0.27537  1.0000
  H   H423      1.0  0.30085  0.89178  0.02362  1.0000
  C   C263      1.0  0.24675  0.93089  0.05527  1.0000
  H   H424      1.0  0.12317  0.63473  0.25298  1.0000
  H   H425      1.0  0.05264  0.69006  0.32068  1.0000
  H   H426      1.0  0.04609  0.70294  0.27412  1.0000
  H   H427      1.0  0.03157  0.68962  0.30826  1.0000
  H   H428      1.0  0.27734  0.82873  0.02197  1.0000
  H   H429      1.0  0.20088  0.50869  0.07189  1.0000
  H   H430      1.0  0.05015  0.71995  0.42730  1.0000
  H   H431      1.0  0.18785  0.90788  0.21863  1.0000
  H   H432      1.0  0.00650  0.54606  0.35673  1.0000
  C   C264      1.0  0.04099  0.97540  0.10171  1.0000
  H   H433      1.0  0.02286  0.81542  0.09143  1.0000
  C   C265      1.0  0.19298  0.63210  0.13710  1.0000
  N   N14       1.0  0.20576  0.67402  0.45730  1.0000
  C   C266      1.0  0.10881  0.92215  0.14996  1.0000
  H   H434      1.0  0.01396  0.57494  0.21303  1.0000
  H   H435      1.0  0.01793  0.77966  0.14184  1.0000
  H   H436      1.0  0.07729  0.81605  0.04734  1.0000
  H   H437      1.0  0.03969  0.97725  0.06988  1.0000
  C   C267      1.0  0.01215  0.71353  0.01347  1.0000
  H   H438      1.0  0.26513  0.89827  0.00597  1.0000
  H   H439      1.0  0.23889  0.65514  0.47283  1.0000
  C   C268      1.0  0.06515  0.60250  0.27456  1.0000
  C   C269      1.0  0.10304  0.89624  0.00926  1.0000
  H   H440      1.0  0.30609  0.90863  0.15321  1.0000
  H   H441      1.0  0.01694  0.72147  0.11494  1.0000
  C   C270      1.0  0.26936  0.89779  0.03630  1.0000
  H   H442      1.0  0.21376  0.63097  0.46019  1.0000
  C   C271      1.0  0.01336  0.66519  0.10521  1.0000
  H   H443      1.0  0.03382  0.53335  0.32479  1.0000
  C   C272      1.0  0.20191  0.51697  0.19290  1.0000
  C   C273      1.0  0.18619  0.64236  0.41816  1.0000
  C   C274      1.0  0.15621  0.96989  0.12530  1.0000
  C   C275      1.0  0.00777  0.59421  0.21993  1.0000
  C   C276      1.0  0.20576  0.70047  0.48118  1.0000
  H   H444      1.0  0.10859  0.91078  0.17791  1.0000
  H   H445      1.0  0.09621  0.92708  0.14164  1.0000
  H   H446      1.0  0.24021  0.62800  0.03077  1.0000
  S   S71       1.0  0.00452  0.62013  0.41944  1.0000
  H   H447      1.0  0.22788  0.65647  0.04884  1.0000
  H   H448      1.0  0.03384  0.50905  0.28500  1.0000
  H   H449      1.0  0.06362  0.52277  0.04067  1.0000
  C   C277      1.0  0.29866  0.89072  0.14303  1.0000
  H   H450      1.0  0.08559  0.60743  0.20941  1.0000
  H   H451      1.0  0.00368  0.82075  0.11496  1.0000
  H   H452      1.0  0.05284  0.60159  0.28728  1.0000
  C   C278      1.0  0.01022  0.51673  0.30990  1.0000
  C   C279      1.0  0.28450  0.86958  0.08499  1.0000
  H   H453      1.0  0.03700  0.61631  0.14455  1.0000
  H   H454      1.0  0.16703  0.62961  0.14703  1.0000
  H   H455      1.0  0.02613  0.67183  0.10200  1.0000
  C   C280      1.0  0.14702  0.79639  0.02639  1.0000
  N   N15       1.0  0.13445  0.80428  0.05617  1.0000
  C   C281      1.0  0.13136  0.77862  0.08060  1.0000
  H   H456      1.0  0.17816  0.93445  0.16348  1.0000
  H   H457      1.0  0.04989  0.77201  0.43163  1.0000
  C   C282      1.0  0.14109  0.82826  0.07970  1.0000
  C   C283      1.0  0.13053  0.83850  0.11374  1.0000
  C   C284      1.0  0.14588  0.76760  0.10431  1.0000
  H   H458      1.0  0.21095  0.52660  0.03276  1.0000
  C   C285      1.0  0.10285  0.80800  0.05572  1.0000
  H   H459      1.0  0.01319  0.84216  0.40591  1.0000
  C   C286      1.0  0.13982  0.85893  0.13940  1.0000
  C   C287      1.0  0.14121  0.74149  0.12727  1.0000
  H   H460      1.0  0.18153  0.66158  0.47300  1.0000
  H   H461      1.0  0.12696  0.76118  0.06193  1.0000
  H   H462      1.0  0.12155  0.78224  0.10178  1.0000
  H   H463      1.0  0.13424  0.99147  0.20512  1.0000
  H   H464      1.0  0.01489  0.73853  0.17762  1.0000
  C   C288      1.0  0.17731  0.51168  0.15658  1.0000
  C   C289      1.0  0.00968  0.60626  0.25679  1.0000
  H   H465      1.0  0.15331  0.82310  0.09085  1.0000
  H   H466      1.0  0.14305  0.84692  0.06122  1.0000
  H   H467      1.0  0.12650  0.82102  0.13238  1.0000
  H   H468      1.0  0.11988  0.84983  0.10242  1.0000
  H   H469      1.0  0.15615  0.76174  0.08546  1.0000
  H   H470      1.0  0.15004  0.78363  0.12528  1.0000
  C   C290      1.0  0.02024  0.76264  0.00617  1.0000
  H   H471      1.0  0.32520  0.97663  0.39426  1.0000
  H   H472      1.0  0.10023  0.78518  0.05707  1.0000
  H   H473      1.0  0.10275  0.81632  0.08551  1.0000
  H   H474      1.0  0.01643  0.79780  0.47035  1.0000
  C   C291      1.0  0.07696  0.84285  0.45054  1.0000
  H   H475      1.0  0.15059  0.84858  0.15199  1.0000
  H   H476      1.0  0.14376  0.87740  0.12243  1.0000
  H   H477      1.0  0.13197  0.86624  0.16335  1.0000
  H   H478      1.0  0.13696  0.72461  0.10767  1.0000
  H   H479      1.0  0.15188  0.73361  0.14320  1.0000
  H   H480      1.0  0.13161  0.74647  0.14859  1.0000
  H   H481      1.0  0.03247  0.95912  0.11229  1.0000
  H   H482      1.0  0.23326  0.71083  0.36792  1.0000
  C   C292      1.0  0.25899  0.83149  0.06488  1.0000
  H   H483      1.0  0.15893  0.79286  0.04032  1.0000
  C   C293      1.0  0.00484  0.50896  0.46135  1.0000
  C   C294      1.0  0.11925  0.81292  0.03506  1.0000
  H   H484      1.0  0.32541  0.70024  0.46526  1.0000
  N   N16       1.0  0.21081  0.59003  0.11625  1.0000
  C   C295      1.0  0.19409  0.60234  0.11926  1.0000
  C   C296      1.0  0.21005  0.56051  0.10021  1.0000
  C   C297      1.0  0.21759  0.58859  0.15668  1.0000
  C   C298      1.0  0.22198  0.60810  0.09246  1.0000
  H   H485      1.0  0.24483  0.88642  0.05177  1.0000
  H   H486      1.0  0.26705  0.82150  0.08640  1.0000
  C   C299      1.0  0.23377  0.57255  0.16129  1.0000
  C   C300      1.0  0.19671  0.55385  0.07017  1.0000
  H   H487      1.0  0.01307  0.64348  0.11660  1.0000
  H   H488      1.0  0.20908  0.72214  0.40717  1.0000
  H   H489      1.0  0.04954  0.64124  0.20134  1.0000
  C   C301      1.0  0.23952  0.57326  0.20316  1.0000
  H   H490      1.0  0.18627  0.58832  0.13695  1.0000
  H   H491      1.0  0.18811  0.60327  0.09077  1.0000
  H   H492      1.0  0.22193  0.55439  0.08775  1.0000
  H   H493      1.0  0.20777  0.54522  0.12382  1.0000
  H   H494      1.0  0.20869  0.57857  0.17649  1.0000
  H   H495      1.0  0.21969  0.61002  0.16839  1.0000
  H   H496      1.0  0.22473  0.62802  0.10790  1.0000
  H   H497      1.0  0.19889  0.71721  0.46615  1.0000
  H   H498      1.0  0.19764  0.69574  0.38208  1.0000
  H   H499      1.0  0.04611  0.71763  0.47822  1.0000
  H   H500      1.0  0.25639  0.89940  0.09230  1.0000
  H   H501      1.0  0.20416  0.62484  0.05106  1.0000
  H   H502      1.0  0.24341  0.58207  0.14341  1.0000
  H   H503      1.0  0.23247  0.55022  0.15293  1.0000
  H   H504      1.0  0.18483  0.55253  0.08504  1.0000
  H   H505      1.0  0.19579  0.56999  0.04747  1.0000
  C   C302      1.0  0.00315  0.72280  0.47163  1.0000
  C   C303      1.0  0.13634  0.94304  0.16430  1.0000
  H   H506      1.0  0.15567  0.96189  0.22344  1.0000
  C   C304      1.0  0.05169  0.73080  0.45543  1.0000
  C   C305      1.0  0.18071  0.92716  0.22404  1.0000
  H   H507      1.0  0.06356  0.58267  0.18563  1.0000
  C   C306      1.0  0.15552  0.98404  0.05495  1.0000
  N   N17       1.0  0.27890  0.87149  0.04361  1.0000
  H   H508      1.0  0.23039  0.56367  0.22260  1.0000
  H   H509      1.0  0.25091  0.56127  0.20589  1.0000
  H   H510      1.0  0.24181  0.59517  0.21258  1.0000
  C   C307      1.0  0.06896  0.57228  0.26143  1.0000
  H   H511      1.0  0.17534  0.66455  0.14833  1.0000
  H   H512      1.0  0.23387  0.59773  0.08893  1.0000
  H   H513      1.0  0.25124  0.84664  0.08028  1.0000
  H   H514      1.0  0.11409  0.90831  0.12747  1.0000
  H   H515      1.0  0.07181  0.86429  0.45218  1.0000
  H   H516      1.0  0.16198  0.94973  0.11695  1.0000
  H   H517      1.0  0.01980  0.76475  0.09430  1.0000
  C   C308      1.0  0.01167  0.96229  0.01644  1.0000
  C   C309      1.0  0.25402  0.90183  0.06105  1.0000
  H   H518      1.0  0.30632  0.89624  0.08464  1.0000
  H   H519      1.0  0.05881  0.56404  0.24389  1.0000
  H   H520      1.0  0.22364  0.64104  0.00247  1.0000
  H   H521      1.0  0.08026  0.57102  0.24451  1.0000
  H   H522      1.0  0.00188  0.53416  0.02560  1.0000
  C   C310      1.0  0.22110  0.70385  0.35855  1.0000
  H   H523      1.0  0.16624  0.98515  0.12681  1.0000
  H   H524      1.0  0.04731  0.58621  0.12521  1.0000
  H   H525      1.0  0.30188  0.85452  0.02540  1.0000
  H   H526      1.0  0.27417  0.86746  0.10514  1.0000
  H   H527      1.0  0.21732  0.97357  0.21790  1.0000
  H   H528      1.0  0.19246  0.64626  0.39048  1.0000
  H   H529      1.0  0.19516  0.98346  0.10711  1.0000
  H   H530      1.0  0.19081  0.62250  0.43041  1.0000
  C   C311      1.0  0.02707  0.81171  0.46635  1.0000
  H   H531      1.0  0.01752  0.59663  0.27778  1.0000
  H   H532      1.0  0.08348  0.84073  0.42265  1.0000
  C   C312      1.0  0.08899  0.82171  0.03374  1.0000
  H   H533      1.0  0.16307  0.96560  0.04742  1.0000
  H   H534      1.0  0.03136  0.80725  0.43669  1.0000
  H   H535      1.0  0.05542  0.82438  0.42814  1.0000
  C   C313      1.0  0.05339  0.62070  0.21349  1.0000
  H   H536      1.0  0.00097  0.79130  0.99399  1.0000
  H   H537      1.0  0.11752  0.96075  0.12601  1.0000
  H   H538      1.0  0.13568  0.93336  0.19355  1.0000
  C   C314      1.0  0.00411  0.71483  0.11676  1.0000
  H   H539      1.0  0.07310  0.60782  0.29923  1.0000
  C   C315      1.0  0.08274  0.62661  0.22608  1.0000
  S   S72       1.0  0.01579  0.53478  0.43419  1.0000
  C   C316      1.0  0.11854  0.94926  0.15357  1.0000
  H   H540      1.0  0.02654  0.54418  0.27780  1.0000
  S   S73       1.0  0.99688  0.59179  0.14518  1.0000
  H   H541      1.0  0.17317  0.92390  0.25018  1.0000
  H   H542      1.0  0.03101  0.75647  0.44448  1.0000
  N   N18       1.0  0.14811  0.96736  0.16414  1.0000
  H   H543      1.0  0.03656  0.72883  0.01884  1.0000
  H   H544      1.0  0.23934  0.81738  0.02784  1.0000
  H   H545      1.0  0.15461  0.83806  0.00604  1.0000
  H   H546      1.0  0.22838  0.68531  0.43022  1.0000
  H   H547      1.0  0.22221  0.68344  0.34335  1.0000
  H   H548      1.0  0.07229  0.53095  0.28642  1.0000
  H   H549      1.0  0.17278  0.64701  0.10262  1.0000
  C   C317      1.0  0.00157  0.63096  0.26618  1.0000
  C   C318      1.0  0.00259  0.51899  0.00242  1.0000
  C   C319      1.0  0.02713  0.52657  0.29865  1.0000
  C   C320      1.0  0.21049  0.98610  0.19777  1.0000
  H   H550      1.0  0.01083  0.68396  0.16065  1.0000
  C   C321      1.0  0.01189  0.77732  0.11351  1.0000
  H   H551      1.0  0.26106  0.85037  0.00810  1.0000
  H   H552      1.0  0.00083  0.71096  0.27148  1.0000
  S   S74       1.0  0.00395  0.64747  0.31159  1.0000
  C   C322      1.0  0.02078  0.97701  0.98922  1.0000
  H   H553      1.0  0.11279  0.96211  0.17654  1.0000
  C   C323      1.0  0.00153  0.74071  0.17881  1.0000
  S   S75       1.0  0.28365  0.63380  0.46836  1.0000
  H   H554      1.0  0.00677  0.74604  0.25828  1.0000
  C   C324      1.0  0.00435  0.68466  0.13272  1.0000
  H   H555      1.0  0.00282  0.71275  0.44364  1.0000
  H   H556      1.0  0.24128  0.79839  0.07232  1.0000
  H   H557      1.0  0.99992  0.71393  0.08640  1.0000
  H   H558      1.0  0.25542  0.79222  0.03359  1.0000
  H   H559      1.0  0.00751  0.66529  0.07647  1.0000
  H   H560      1.0  0.13717  0.96045  0.08367  1.0000
  H   H561      1.0  0.08574  0.84002  0.47437  1.0000
  H   H562      1.0  0.99929  0.76263  0.18865  1.0000
  C   C325      1.0  0.14536  0.97805  0.09091  1.0000
  C   C326      1.0  0.00417  0.76969  0.99919  1.0000
  Fe  Fe35      1.0  0.03035  0.89641  0.99209  1.0000
  H   H563      1.0  0.04373  0.51384  0.05748  1.0000
  H   H564      1.0  0.06478  0.73294  0.46141  1.0000
  C   C327      1.0  0.05664  0.50771  0.05854  1.0000
  H   H565      1.0  0.11810  0.80113  0.00738  1.0000
  C   C328      1.0  0.99799  0.60698  0.19187  1.0000
  C   C329      1.0  0.13985  0.99421  0.17608  1.0000
  H   H566      1.0  0.14748  0.98851  0.03015  1.0000
  H   H567      1.0  0.14369  0.77626  0.01211  1.0000
  C   C330      1.0  0.99858  0.97585  0.03440  1.0000
  H   H568      1.0  0.06075  0.50894  0.08897  1.0000
  H   H569      1.0  0.31113  0.96867  0.43247  1.0000
  H   H570      1.0  0.25915  0.58853  0.47210  1.0000
  H   H571      1.0  0.08876  0.81464  0.00316  1.0000
  H   H572      1.0  0.00415  0.50887  0.28351  1.0000
  H   H573      1.0  0.00207  0.55938  0.31018  1.0000
  H   H574      1.0  0.00375  0.86847  0.43575  1.0000
  C   C331      1.0  0.15015  0.81809  0.99385  1.0000
  H   H575      1.0  0.99762  0.83242  0.44024  1.0000
  S   S76       1.0  0.99658  0.61570  0.03730  1.0000
  Fe  Fe36      1.0  0.03559  0.83255  0.98222  1.0000
  H   H576      1.0  0.32661  0.99499  0.43958  1.0000
  Fe  Fe37      1.0  0.06124  0.87408  0.95462  1.0000
  S   S77       1.0  0.08848  0.87430  0.94316  1.0000
  Fe  Fe38      1.0  0.02864  0.87035  0.91161  1.0000
  H   H577      1.0  0.23076  0.67385  0.51330  1.0000
  S   S78       1.0  0.01089  0.87343  0.86128  1.0000
  C   C332      1.0  0.27846  0.98328  0.77025  1.0000
  C   C333      1.0  0.01506  0.86485  0.72899  1.0000
  H   H578      1.0  0.17439  0.80308  0.98043  1.0000
  H   H579      1.0  0.03891  0.86733  0.80975  1.0000
  S   S79       1.0  0.04286  0.90649  0.93621  1.0000
  S   S80       1.0  0.04787  0.83879  0.92504  1.0000
  H   H580      1.0  0.01543  0.71486  0.87692  1.0000
  Fe  Fe39      1.0  0.30108  0.88583  0.81359  1.0000
  S   S81       1.0  0.29242  0.87924  0.75252  1.0000
  S   S82       1.0  0.28349  0.90314  0.86032  1.0000
  H   H581      1.0  0.26189  0.95337  0.81404  1.0000
  H   H582      1.0  0.00407  0.75956  0.57196  1.0000
  Fe  Fe40      1.0  0.31402  0.90531  0.73435  1.0000
  S   S83       1.0  0.31194  0.93647  0.68334  1.0000
  Fe  Fe41      1.0  0.30882  0.84141  0.75026  1.0000
  C   C334      1.0  0.03364  0.80867  0.60860  1.0000
  H   H583      1.0  0.12252  0.86740  0.93271  1.0000
  H   H584      1.0  0.04812  0.94300  0.86095  1.0000
  Fe  Fe42      1.0  0.29986  0.62416  0.52160  1.0000
  S   S84       1.0  0.29340  0.63537  0.58345  1.0000
  C   C335      1.0  0.29075  0.87180  0.97402  1.0000
  H   H585      1.0  0.15860  0.78815  0.95071  1.0000
  H   H586      1.0  0.04015  0.79980  0.63372  1.0000
  Fe  Fe43      1.0  0.30824  0.59704  0.59984  1.0000
  S   S85       1.0  0.30350  0.56768  0.65164  1.0000
  Fe  Fe44      1.0  0.31678  0.65982  0.58535  1.0000
  H   H587      1.0  0.02662  0.79141  0.88498  1.0000
  S   S86       1.0  0.31347  0.58463  0.53823  1.0000
  C   C336      1.0  0.10506  0.88313  0.97343  1.0000
  C   C337      1.0  0.30765  0.77186  0.69418  1.0000
  H   H588      1.0  0.27269  0.53127  0.68829  1.0000
  C   C338      1.0  0.31051  0.76056  0.81995  1.0000
  C   C339      1.0  0.31689  0.73017  0.63903  1.0000
  H   H589      1.0  0.03923  0.73127  0.89577  1.0000
  H   H590      1.0  0.05438  0.80735  0.57171  1.0000
  H   H591      1.0  0.30364  0.77586  0.83765  1.0000
  H   H592      1.0  0.03490  0.76151  0.51138  1.0000
  C   C340      1.0  0.30247  0.51184  0.62714  1.0000
  H   H593      1.0  0.24177  0.96849  0.73004  1.0000
  C   C341      1.0  0.31398  0.97338  0.67498  1.0000
  H   H594      1.0  0.27526  0.93472  0.64208  1.0000
  C   C342      1.0  0.30883  0.51965  0.69419  1.0000
  C   C343      1.0  0.30532  0.53062  0.65742  1.0000
  H   H595      1.0  0.02144  0.79846  0.82490  1.0000
  H   H596      1.0  0.01706  0.74379  0.82292  1.0000
  S   S87       1.0  0.32947  0.86679  0.72762  1.0000
  H   H597      1.0  0.29010  0.95314  0.81020  1.0000
  H   H598      1.0  0.28481  0.89141  0.96467  1.0000
  H   H599      1.0  0.20442  0.64305  0.50290  1.0000
  C   C344      1.0  0.01300  0.86887  0.81063  1.0000
  H   H600      1.0  0.01467  0.98310  0.90569  1.0000
  S   S88       1.0  0.32363  0.70496  0.60409  1.0000
  C   C345      1.0  0.02804  0.86686  0.79257  1.0000
  H   H601      1.0  0.04074  0.86366  0.73822  1.0000
  H   H602      1.0  0.02165  0.53482  0.52761  1.0000
  H   H603      1.0  0.30109  0.70272  0.67061  1.0000
  C   C346      1.0  0.00664  0.72868  0.89199  1.0000
  H   H604      1.0  0.03141  0.83387  0.54002  1.0000
  H   H605      1.0  0.99979  0.80090  0.81979  1.0000
  H   H606      1.0  0.04254  0.96549  0.90064  1.0000
  H   H607      1.0  0.31296  0.84988  0.95880  1.0000
  H   H608      1.0  0.26253  0.90404  0.64398  1.0000
  C   C347      1.0  0.04023  0.96069  0.86975  1.0000
  H   H609      1.0  0.24069  0.91945  0.95738  1.0000
  C   C348      1.0  0.01203  0.96912  0.52064  1.0000
  H   H610      1.0  0.02094  0.80124  0.60964  1.0000
  C   C349      1.0  0.24286  0.87540  0.94572  1.0000
  C   C350      1.0  0.25112  0.85540  0.92310  1.0000
  C   C351      1.0  0.26332  0.86335  0.89647  1.0000
  C   C352      1.0  0.26764  0.89156  0.89218  1.0000
  C   C353      1.0  0.25931  0.91158  0.91461  1.0000
  C   C354      1.0  0.24696  0.90366  0.94080  1.0000
  H   H611      1.0  0.24810  0.83347  0.92629  1.0000
  H   H612      1.0  0.26949  0.84757  0.87960  1.0000
  H   H613      1.0  0.26241  0.93348  0.91165  1.0000
  C   C355      1.0  0.05494  0.76670  0.89671  1.0000
  H   H614      1.0  0.31177  0.74083  0.83658  1.0000
  H   H615      1.0  0.00328  0.92651  0.77524  1.0000
  C   C356      1.0  0.26637  0.53904  0.71450  1.0000
  H   H616      1.0  0.18545  0.69171  0.52059  1.0000
  S   S89       1.0  0.31614  0.84647  0.81283  1.0000
  H   H617      1.0  0.28310  0.85382  0.96533  1.0000
  H   H618      1.0  0.28150  0.50398  0.81556  1.0000
  H   H619      1.0  0.02005  0.80243  0.53742  1.0000
  C   C357      1.0  0.02904  0.86487  0.75197  1.0000
  C   C358      1.0  0.99770  0.80703  0.90261  1.0000
  H   H620      1.0  0.03379  0.83187  0.61128  1.0000
  C   C359      1.0  0.04181  0.79950  0.57105  1.0000
  H   H621      1.0  0.03595  0.54133  0.56588  1.0000
  H   H622      1.0  0.25336  0.54161  0.70786  1.0000
  H   H623      1.0  0.24935  0.89105  0.80788  1.0000
  C   C360      1.0  0.02259  0.95258  0.86359  1.0000
  S   S90       1.0  0.01537  0.86154  0.96718  1.0000
  H   H624      1.0  0.30351  0.75627  0.79330  1.0000
  S   S91       1.0  0.22810  0.86371  0.98045  1.0000
  C   C361      1.0  0.30146  0.74435  0.69595  1.0000
  H   H625      1.0  0.27148  0.55988  0.72195  1.0000
  H   H626      1.0  0.00281  0.97522  0.79839  1.0000
  H   H627      1.0  0.30614  0.97003  0.61588  1.0000
  H   H628      1.0  0.02296  0.77139  0.76378  1.0000
  C   C362      1.0  0.24080  0.90856  0.81317  1.0000
  H   H629      1.0  0.21820  0.70904  0.48400  1.0000
  H   H630      1.0  0.04209  0.77626  0.57107  1.0000
  C   C363      1.0  0.02153  0.99187  0.50732  1.0000
  H   H631      1.0  0.99825  0.67192  0.88006  1.0000
  H   H632      1.0  0.28135  0.90441  0.66967  1.0000
  H   H633      1.0  0.31523  0.97999  0.81945  1.0000
  H   H634      1.0  0.22677  0.63041  0.54953  1.0000
  H   H635      1.0  0.05570  0.77000  0.50822  1.0000
  H   H636      1.0  0.31092  0.53390  0.71797  1.0000
  H   H637      1.0  0.01682  0.55916  0.56562  1.0000
  C   C364      1.0  0.02295  0.53905  0.55899  1.0000
  H   H638      1.0  0.26054  0.99395  0.68322  1.0000
  H   H639      1.0  0.31451  0.88778  0.95797  1.0000
  H   H640      1.0  0.06360  0.81706  0.51424  1.0000
  C   C365      1.0  0.24329  0.93193  0.78365  1.0000
  H   H641      1.0  0.26182  0.52746  0.77307  1.0000
  H   H642      1.0  0.23309  0.60971  0.50846  1.0000
  H   H643      1.0  0.24263  0.91671  0.84285  1.0000
  H   H644      1.0  0.00555  0.93139  0.93326  1.0000
  H   H645      1.0  0.05673  0.78698  0.88165  1.0000
  S   S92       1.0  0.32237  0.91319  0.79527  1.0000
  S   S93       1.0  0.30148  0.79697  0.72986  1.0000
  H   H646      1.0  0.22832  0.90026  0.81110  1.0000
  C   C366      1.0  0.01124  0.72319  0.53842  1.0000
  H   H647      1.0  0.02121  0.94763  0.83249  1.0000
  H   H648      1.0  0.01699  0.52073  0.61364  1.0000
  C   C367      1.0  0.25179  0.98160  0.74111  1.0000
  C   C368      1.0  0.31015  0.98421  0.63827  1.0000
  C   C369      1.0  0.01539  0.51547  0.58281  1.0000
  C   C370      1.0  0.30602  0.72367  0.66868  1.0000
  H   H649      1.0  0.29931  0.51982  0.59898  1.0000
  H   H650      1.0  0.01656  0.95551  0.54304  1.0000
  N   N19       1.0  0.26588  0.96381  0.75355  1.0000
  H   H651      1.0  0.01726  0.71325  0.56243  1.0000
  C   C371      1.0  0.23445  0.63023  0.52325  1.0000
  H   H652      1.0  0.01507  0.84774  0.49400  1.0000
  H   H653      1.0  0.24007  0.92353  0.75494  1.0000
  H   H654      1.0  0.04345  0.97924  0.85201  1.0000
  H   H655      1.0  0.28172  0.51877  0.75514  1.0000
  S   S94       1.0  0.02114  0.67651  0.49696  1.0000
  C   C372      1.0  0.27342  0.94848  0.72002  1.0000
  C   C373      1.0  0.26222  0.92904  0.69641  1.0000
  H   H656      1.0  0.00949  0.72720  0.92341  1.0000
  C   C374      1.0  0.29346  0.96903  0.78834  1.0000
  C   C375      1.0  0.19830  0.69801  0.52217  1.0000
  H   H657      1.0  0.05433  0.77041  0.92838  1.0000
  C   C376      1.0  0.27090  0.91743  0.66088  1.0000
  H   H658      1.0  0.02011  0.93322  0.87996  1.0000
  N   N20       1.0  0.00849  0.75864  0.87845  1.0000
  H   H659      1.0  0.00595  0.80950  0.92756  1.0000
  H   H660      1.0  0.04063  0.75012  0.85070  1.0000
  H   H661      1.0  0.26916  0.92523  0.78572  1.0000
  C   C377      1.0  0.26081  0.94347  0.78495  1.0000
  S   S95       1.0  0.00376  0.86493  0.57036  1.0000
  C   C378      1.0  0.31852  0.77833  0.66450  1.0000
  H   H662      1.0  0.06551  0.75321  0.89051  1.0000
  H   H663      1.0  0.28335  0.93495  0.73034  1.0000
  C   C379      1.0  0.30658  0.86960  0.95156  1.0000
  H   H664      1.0  0.25860  0.91077  0.71414  1.0000
  H   H665      1.0  0.30401  0.86954  0.92009  1.0000
  S   S96       1.0  0.01705  0.86301  0.67791  1.0000
  H   H666      1.0  0.30074  0.95865  0.76562  1.0000
  C   C380      1.0  0.12080  0.87717  0.96061  1.0000
  H   H667      1.0  0.03672  0.50234  0.64668  1.0000
  H   H668      1.0  0.01345  0.80490  0.75741  1.0000
  H   H669      1.0  0.32325  0.79938  0.66224  1.0000
  H   H670      1.0  0.25136  0.94019  0.68609  1.0000
  H   H671      1.0  0.02395  0.77010  0.92591  1.0000
  H   H672      1.0  0.16516  0.82374  0.94312  1.0000
  C   C381      1.0  0.01048  0.78743  0.81476  1.0000
  H   H673      1.0  0.00224  0.51533  0.57674  1.0000
  H   H674      1.0  0.31122  0.52047  0.53396  1.0000
  C   C382      1.0  0.03957  0.75238  0.88244  1.0000
  C   C383      1.0  0.03252  0.81090  0.53549  1.0000
  H   H675      1.0  0.00334  0.81750  0.87772  1.0000
  C   C384      1.0  0.30428  0.99055  0.80827  1.0000
  C   C385      1.0  0.01212  0.78397  0.77106  1.0000
  C   C386      1.0  0.16286  0.80749  0.96538  1.0000
  H   H676      1.0  0.20481  0.68245  0.53999  1.0000
  C   C387      1.0  0.01105  0.70955  0.50225  1.0000
  C   C388      1.0  0.02437  0.76944  0.89379  1.0000
  C   C389      1.0  0.32309  0.75765  0.63733  1.0000
  C   C390      1.0  0.99901  0.86826  0.78774  1.0000
  H   H677      1.0  0.21183  0.73291  0.54690  1.0000
  H   H678      1.0  0.13909  0.82247  0.97702  1.0000
  H   H679      1.0  0.27939  0.96344  0.69993  1.0000
  H   H680      1.0  0.24725  0.63262  0.53211  1.0000
  C   C391      1.0  0.19911  0.72604  0.54348  1.0000
  H   H681      1.0  0.19368  0.72378  0.57265  1.0000
  S   S97       1.0  0.32273  0.65027  0.52299  1.0000
  H   H682      1.0  0.32256  0.98421  0.73154  1.0000
  H   H683      1.0  0.14637  0.88001  0.97249  1.0000
  H   H684      1.0  0.00124  0.77372  0.75882  1.0000
  C   C392      1.0  0.26865  0.51886  0.74829  1.0000
  H   H685      1.0  0.29298  0.73899  0.71855  1.0000
  C   C393      1.0  0.00808  0.75873  0.83486  1.0000
  C   C394      1.0  0.32157  0.51126  0.51807  1.0000
  C   C395      1.0  0.00001  0.86631  0.74717  1.0000
  C   C396      1.0  0.22982  0.65424  0.49638  1.0000
  H   H686      1.0  0.32721  0.52762  0.49964  1.0000
  H   H687      1.0  0.03095  0.96694  0.97540  1.0000
  C   C397      1.0  0.31922  0.99210  0.70347  1.0000
  C   C398      1.0  0.01120  0.97674  0.87596  1.0000
  H   H688      1.0  0.19231  0.74236  0.52755  1.0000
  C   C399      1.0  0.00375  0.74955  0.54395  1.0000
  H   H689      1.0  0.23463  0.94890  0.79083  1.0000
  H   H690      1.0  0.32534  0.79292  0.79531  1.0000
  N   N21       1.0  0.03969  0.80474  0.49619  1.0000
  H   H691      1.0  0.05168  0.84503  0.49768  1.0000
  C   C400      1.0  0.32709  0.77273  0.81016  1.0000
  C   C401      1.0  0.04381  0.77389  0.49435  1.0000
  C   C402      1.0  0.05458  0.82265  0.49192  1.0000
  Fe  Fe45      1.0  0.99667  0.86441  0.63357  1.0000
  C   C403      1.0  0.99667  0.96421  0.50525  1.0000
  H   H692      1.0  0.24672  0.99282  0.76664  1.0000
  H   H693      1.0  0.03333  0.99537  0.51968  1.0000
  H   H694      1.0  0.01457  0.99491  0.85746  1.0000
  H   H695      1.0  0.32857  0.74781  0.75918  1.0000
  H   H696      1.0  0.99628  0.75081  0.82435  1.0000
  H   H697      1.0  0.25390  0.49573  0.81295  1.0000
  H   H698      1.0  0.55391  0.10985  0.43761  1.0000
  C   C404      1.0  0.63133  0.40006  0.37522  1.0000
  C   C405      1.0  0.64305  0.46606  0.24922  1.0000
  Fe  Fe46      1.0  0.47137  0.11059  0.39280  1.0000
  S   S98       1.0  0.49542  0.10880  0.42224  1.0000
  S   S99       1.0  0.46783  0.10757  0.32730  1.0000
  C   C406      1.0  0.60483  0.41239  0.40837  1.0000
  H   H699      1.0  0.47938  0.26937  0.47872  1.0000
  H   H700      1.0  0.55235  0.26014  0.38906  1.0000
  H   H701      1.0  0.60821  0.39523  0.42855  1.0000
  S   S100      1.0  0.45933  0.08066  0.43504  1.0000
  S   S101      1.0  0.46329  0.14966  0.42430  1.0000
  S   S102      1.0  0.64076  0.13747  0.16377  1.0000
  H   H702      1.0  0.54470  0.38195  0.03565  1.0000
  Fe  Fe47      1.0  0.51892  0.07903  0.06313  1.0000
  S   S103      1.0  0.53305  0.10909  0.02594  1.0000
  S   S104      1.0  0.50343  0.04110  0.04319  1.0000
  Fe  Fe48      1.0  0.52440  0.11641  0.13569  1.0000
  S   S105      1.0  0.53876  0.14862  0.10231  1.0000
  S   S106      1.0  0.52337  0.12313  0.20113  1.0000
  Fe  Fe49      1.0  0.51976  0.14443  0.05580  1.0000
  H   H703      1.0  0.61076  0.08811  0.26175  1.0000
  Fe  Fe50      1.0  0.55094  0.11110  0.07553  1.0000
  S   S107      1.0  0.57802  0.10349  0.06548  1.0000
  S   S108      1.0  0.50484  0.11419  0.09115  1.0000
  S   S109      1.0  0.53743  0.07914  0.11086  1.0000
  C   C407      1.0  0.62351  0.12716  0.13627  1.0000
  C   C408      1.0  0.60833  0.13830  0.14619  1.0000
  C   C409      1.0  0.59429  0.13101  0.12536  1.0000
  C   C410      1.0  0.59524  0.11269  0.09386  1.0000
  C   C411      1.0  0.61042  0.10148  0.08401  1.0000
  C   C412      1.0  0.62444  0.10851  0.10514  1.0000
  H   H704      1.0  0.60742  0.15279  0.17011  1.0000
  H   H705      1.0  0.58277  0.13991  0.13332  1.0000
  H   H706      1.0  0.61136  0.08741  0.05962  1.0000
  H   H707      1.0  0.63599  0.09992  0.09686  1.0000
  C   C413      1.0  0.48350  0.10998  0.29237  1.0000
  C   C414      1.0  0.49949  0.11456  0.30316  1.0000
  C   C415      1.0  0.51152  0.11822  0.27481  1.0000
  C   C416      1.0  0.50780  0.11662  0.23529  1.0000
  C   C417      1.0  0.49187  0.11114  0.22436  1.0000
  C   C418      1.0  0.47979  0.10794  0.25282  1.0000
  H   H708      1.0  0.50252  0.11515  0.33344  1.0000
  H   H709      1.0  0.52384  0.12200  0.28353  1.0000
  H   H710      1.0  0.48885  0.10956  0.19410  1.0000
  H   H711      1.0  0.46748  0.10387  0.24419  1.0000
  H   H712      1.0  0.48831  0.24315  0.19276  1.0000
  H   H713      1.0  0.48212  0.20658  0.33730  1.0000
  C   C419      1.0  0.62989  0.34347  0.45457  1.0000
  H   H714      1.0  0.65104  0.05083  0.10851  1.0000
  H   H715      1.0  0.62616  0.12057  0.30147  1.0000
  C   C420      1.0  0.50540  0.21428  0.47825  1.0000
  C   C421      1.0  0.52635  0.20301  0.17199  1.0000
  H   H716      1.0  0.57524  0.04965  0.17571  1.0000
  C   C422      1.0  0.52962  0.42189  0.00552  1.0000
  C   C423      1.0  0.65095  0.44374  0.27441  1.0000
  H   H717      1.0  0.64603  0.01388  0.10967  1.0000
  C   C424      1.0  0.40281  0.10789  0.46683  1.0000
  H   H718      1.0  0.62620  0.06956  0.28760  1.0000
  C   C425      1.0  0.46375  0.14272  0.07900  1.0000
  H   H719      1.0  0.47174  0.39305  0.02629  1.0000
  H   H720      1.0  0.54122  0.47919  0.06251  1.0000
  H   H721      1.0  0.48062  0.45416  0.99863  1.0000
  H   H722      1.0  0.38141  0.09170  0.43911  1.0000
  C   C426      1.0  0.45804  0.17416  0.26321  1.0000
  H   H723      1.0  0.53845  0.47761  0.01108  1.0000
  H   H724      1.0  0.53334  0.22340  0.36878  1.0000
  C   C427      1.0  0.51701  0.00381  0.98942  1.0000
  H   H725      1.0  0.48598  0.49220  0.04612  1.0000
  C   C428      1.0  0.53875  0.12574  0.39113  1.0000
  C   C429      1.0  0.53143  0.34355  0.03041  1.0000
  H   H726      1.0  0.52522  0.22652  0.03193  1.0000
  H   H727      1.0  0.41098  0.09950  0.44535  1.0000
  H   H728      1.0  0.53986  0.08473  0.41794  1.0000
  C   C430      1.0  0.49278  0.49152  0.01946  1.0000
  H   H729      1.0  0.54224  0.41957  0.99516  1.0000
  C   C431      1.0  0.50502  0.39812  0.02601  1.0000
  H   H730      1.0  0.64910  0.49422  0.15837  1.0000
  H   H731      1.0  0.47844  0.00208  0.02186  1.0000
  H   H732      1.0  0.56351  0.21280  0.37532  1.0000
  H   H733      1.0  0.45362  0.15821  0.13174  1.0000
  H   H734      1.0  0.46765  0.15391  0.19194  1.0000
  H   H735      1.0  0.47846  0.39124  0.07583  1.0000
  H   H736      1.0  0.50699  0.22145  0.14039  1.0000
  H   H737      1.0  0.46165  0.21702  0.14221  1.0000
  H   H738      1.0  0.55947  0.20255  0.42460  1.0000
  C   C432      1.0  0.55596  0.24598  0.41291  1.0000
  H   H739      1.0  0.52820  0.01507  0.99335  1.0000
  C   C433      1.0  0.47216  0.18281  0.23734  1.0000
  H   H740      1.0  0.53521  0.16118  0.42992  1.0000
  H   H741      1.0  0.46718  0.23844  0.20430  1.0000
  H   H742      1.0  0.45180  0.14051  0.06491  1.0000
  C   C434      1.0  0.53029  0.44051  0.04227  1.0000
  C   C435      1.0  0.38602  0.10349  0.46340  1.0000
  C   C436      1.0  0.54488  0.17377  0.33553  1.0000
  H   H743      1.0  0.50318  0.08738  0.98452  1.0000
  H   H744      1.0  0.52846  0.19108  0.29229  1.0000
  H   H745      1.0  0.58192  0.37839  0.44131  1.0000
  H   H746      1.0  0.59829  0.46331  0.37216  1.0000
  C   C437      1.0  0.55513  0.21534  0.40003  1.0000
  H   H747      1.0  0.61294  0.42553  0.35052  1.0000
  C   C438      1.0  0.49696  0.99987  0.45947  1.0000
  H   H748      1.0  0.64947  0.44868  0.30557  1.0000
  H   H749      1.0  0.51183  0.16247  0.39072  1.0000
  H   H750      1.0  0.45869  0.18468  0.09667  1.0000
  C   C439      1.0  0.58380  0.46756  0.32096  1.0000
  C   C440      1.0  0.48998  0.18817  0.34232  1.0000
  H   H751      1.0  0.47275  0.14867  0.05663  1.0000
  H   H752      1.0  0.63008  0.12800  0.25131  1.0000
  H   H753      1.0  0.50045  0.16753  0.18793  1.0000
  H   H754      1.0  0.45582  0.18464  0.18853  1.0000
  H   H755      1.0  0.48791  0.00940  0.44133  1.0000
  N   N22       1.0  0.52176  0.39348  0.00998  1.0000
  H   H756      1.0  0.61066  0.43150  0.42052  1.0000
  H   H757      1.0  0.49105  0.17609  0.31504  1.0000
  H   H758      1.0  0.48281  0.17026  0.24609  1.0000
  H   H759      1.0  0.57776  0.47353  0.38058  1.0000
  N   N23       1.0  0.53531  0.17807  0.37211  1.0000
  H   H760      1.0  0.46135  0.17682  0.29402  1.0000
  H   H761      1.0  0.48431  0.14859  0.13818  1.0000
  H   H762      1.0  0.53265  0.11200  0.44940  1.0000
  H   H763      1.0  0.55804  0.17458  0.34150  1.0000
  H   H764      1.0  0.53012  0.20930  0.41526  1.0000
  H   H765      1.0  0.46033  0.09842  0.01915  1.0000
  C   C441      1.0  0.53924  0.32800  0.06400  1.0000
  H   H766      1.0  0.60097  0.02677  0.19706  1.0000
  H   H767      1.0  0.52647  0.12129  0.38021  1.0000
  H   H768      1.0  0.50481  0.21073  0.38239  1.0000
  C   C442      1.0  0.47455  0.21751  0.15089  1.0000
  C   C443      1.0  0.54118  0.15717  0.40159  1.0000
  C   C444      1.0  0.51009  0.20043  0.15160  1.0000
  C   C445      1.0  0.53175  0.37580  0.03707  1.0000
  H   H769      1.0  0.49806  0.41180  0.00605  1.0000
  H   H770      1.0  0.58714  0.45574  0.43706  1.0000
  H   H771      1.0  0.47299  0.28668  0.18395  1.0000
  C   C446      1.0  0.49691  0.18915  0.17947  1.0000
  H   H772      1.0  0.52813  0.37998  0.06752  1.0000
  C   C447      1.0  0.47956  0.16952  0.12972  1.0000
  C   C448      1.0  0.51756  0.17246  0.36505  1.0000
  H   H773      1.0  0.64483  0.10944  0.27991  1.0000
  H   H774      1.0  0.54749  0.11934  0.36847  1.0000
  C   C449      1.0  0.55183  0.18773  0.26697  1.0000
  H   H775      1.0  0.45489  0.15178  0.25863  1.0000
  H   H776      1.0  0.64532  0.46037  0.21873  1.0000
  H   H777      1.0  0.65568  0.05010  0.17957  1.0000
  H   H778      1.0  0.48093  0.27447  0.13849  1.0000
  H   H779      1.0  0.49345  0.35838  0.00831  1.0000
  Fe  Fe51      1.0  0.48313  0.08182  0.46666  1.0000
  H   H780      1.0  0.51908  0.33521  0.02684  1.0000
  H   H781      1.0  0.56819  0.43812  0.43947  1.0000
  H   H782      1.0  0.48760  0.17729  0.10629  1.0000
  C   C450      1.0  0.47152  0.08683  0.01197  1.0000
  C   C451      1.0  0.50318  0.21239  0.00569  1.0000
  H   H783      1.0  0.48115  0.22366  0.12416  1.0000
  H   H784      1.0  0.59201  0.45492  0.30254  1.0000
  H   H785      1.0  0.49788  0.20162  0.20635  1.0000
  N   N24       1.0  0.47987  0.18894  0.16420  1.0000
  C   C452      1.0  0.46285  0.16505  0.11053  1.0000
  N   N25       1.0  0.58668  0.41568  0.40748  1.0000
  H   H786      1.0  0.44730  0.18727  0.25726  1.0000
  C   C453      1.0  0.57834  0.38785  0.41342  1.0000
  H   H787      1.0  0.54313  0.21605  0.31035  1.0000
  H   H788      1.0  0.53239  0.33170  0.09112  1.0000
  H   H789      1.0  0.46712  0.12215  0.09154  1.0000
  H   H790      1.0  0.56477  0.18990  0.27463  1.0000
  C   C454      1.0  0.47786  0.37971  0.04801  1.0000
  C   C455      1.0  0.58174  0.36471  0.38310  1.0000
  C   C456      1.0  0.57031  0.33983  0.38821  1.0000
  H   H791      1.0  0.60804  0.38911  0.35326  1.0000
  C   C457      1.0  0.46832  0.17722  0.19415  1.0000
  H   H792      1.0  0.56717  0.42781  0.36973  1.0000
  C   C458      1.0  0.47217  0.26978  0.16195  1.0000
  C   C459      1.0  0.54184  0.46520  0.03689  1.0000
  H   H793      1.0  0.56503  0.39100  0.41541  1.0000
  H   H794      1.0  0.54956  0.16618  0.25597  1.0000
  H   H795      1.0  0.53824  0.33801  0.00390  1.0000
  H   H796      1.0  0.53429  0.42836  0.06776  1.0000
  H   H797      1.0  0.57116  0.46431  0.31136  1.0000
  H   H798      1.0  0.45977  0.26973  0.14988  1.0000
  C   C460      1.0  0.61350  0.40677  0.36927  1.0000
  H   H799      1.0  0.52561  0.21830  0.19611  1.0000
  H   H800      1.0  0.54912  0.20273  0.24344  1.0000
  H   H801      1.0  0.53563  0.21036  0.15116  1.0000
  C   C461      1.0  0.58564  0.45940  0.36336  1.0000
  H   H802      1.0  0.58018  0.37222  0.35317  1.0000
  H   H803      1.0  0.59422  0.35677  0.38680  1.0000
  H   H804      1.0  0.57323  0.32335  0.36667  1.0000
  H   H805      1.0  0.57157  0.33063  0.41742  1.0000
  H   H806      1.0  0.55759  0.34640  0.38402  1.0000
  H   H807      1.0  0.51171  0.21149  0.33315  1.0000
  H   H808      1.0  0.47488  0.20508  0.24322  1.0000
  H   H809      1.0  0.63748  0.39808  0.34684  1.0000
  H   H810      1.0  0.51179  0.18603  0.12680  1.0000
  C   C462      1.0  0.48973  0.46977  0.99253  1.0000
  H   H811      1.0  0.55432  0.15959  0.40676  1.0000
  H   H812      1.0  0.62984  0.46504  0.25446  1.0000
  C   C463      1.0  0.54110  0.19392  0.30189  1.0000
  H   H813      1.0  0.48422  0.17467  0.36446  1.0000
  H   H814      1.0  0.58445  0.41604  0.34502  1.0000
  C   C464      1.0  0.53767  0.20703  0.38883  1.0000
  H   H815      1.0  0.61021  0.31466  0.44456  1.0000
  N   N26       1.0  0.62393  0.04576  0.21078  1.0000
  C   C465      1.0  0.62926  0.02285  0.23778  1.0000
  C   C466      1.0  0.63083  0.07317  0.22499  1.0000
  C   C467      1.0  0.60576  0.04646  0.20990  1.0000
  C   C468      1.0  0.63000  0.04075  0.17024  1.0000
  C   C469      1.0  0.64815  0.03353  0.16636  1.0000
  C   C470      1.0  0.58151  0.43472  0.44019  1.0000
  C   C471      1.0  0.59821  0.07070  0.18624  1.0000
  C   C472      1.0  0.49478  0.37169  0.03429  1.0000
  S   S110      1.0  0.54124  0.36034  0.47716  1.0000
  C   C473      1.0  0.61420  0.33279  0.46071  1.0000
  H   H816      1.0  0.55192  0.33493  0.06787  1.0000
  C   C474      1.0  0.57981  0.06971  0.18780  1.0000
  H   H817      1.0  0.62419  0.02629  0.26711  1.0000
  H   H818      1.0  0.64259  0.02349  0.24182  1.0000
  H   H819      1.0  0.64411  0.07147  0.22883  1.0000
  H   H820      1.0  0.62924  0.08980  0.20296  1.0000
  H   H821      1.0  0.60072  0.04706  0.23970  1.0000
  S   S111      1.0  0.65479  0.38162  0.46859  1.0000
  H   H822      1.0  0.62297  0.02389  0.15575  1.0000
  H   H823      1.0  0.62799  0.05968  0.15219  1.0000
  C   C475      1.0  0.62392  0.08442  0.26370  1.0000
  H   H824      1.0  0.53021  0.18239  0.18343  1.0000
  H   H825      1.0  0.63270  0.37990  0.39073  1.0000
  H   H826      1.0  0.50031  0.35924  0.05775  1.0000
  H   H827      1.0  0.60178  0.06919  0.15545  1.0000
  H   H828      1.0  0.60203  0.09144  0.19735  1.0000
  H   H829      1.0  0.51609  0.15703  0.34135  1.0000
  H   H830      1.0  0.64541  0.42297  0.26860  1.0000
  H   H831      1.0  0.63743  0.41685  0.39201  1.0000
  H   H832      1.0  0.65104  0.01340  0.18067  1.0000
  H   H833      1.0  0.56849  0.25134  0.42153  1.0000
  H   H834      1.0  0.47053  0.36045  0.05224  1.0000
  H   H835      1.0  0.52292  0.27536  0.00751  1.0000
  C   C476      1.0  0.51365  0.26027  0.00049  1.0000
  H   H836      1.0  0.51821  0.44952  0.04837  1.0000
  H   H837      1.0  0.54273  0.15234  0.32393  1.0000
  H   H838      1.0  0.57479  0.08708  0.17024  1.0000
  S   S112      1.0  0.50665  0.17772  0.47000  1.0000
  H   H839      1.0  0.57545  0.07216  0.21795  1.0000
  C   C477      1.0  0.65305  0.03077  0.12398  1.0000
  H   H840      1.0  0.50553  0.40933  0.05407  1.0000
  C   C478      1.0  0.58062  0.42847  0.37044  1.0000
  C   C479      1.0  0.50338  0.01189  0.01051  1.0000
  C   C480      1.0  0.47600  0.24158  0.18061  1.0000
  Fe  Fe52      1.0  0.45274  0.11972  0.46828  1.0000
  C   C481      1.0  0.63176  0.11231  0.27465  1.0000
  C   C482      1.0  0.54150  0.10703  0.42624  1.0000
  C   C483      1.0  0.63525  0.36686  0.47529  1.0000
  C   C484      1.0  0.49005  0.22087  0.98268  1.0000
  H   H841      1.0  0.35071  0.29314  0.00248  1.0000
  C   C485      1.0  0.50658  0.19789  0.35590  1.0000
  H   H842      1.0  0.63783  0.33357  0.43384  1.0000
  H   H843      1.0  0.53920  0.30514  0.05793  1.0000
  H   H844      1.0  0.48026  0.08972  0.03586  1.0000
  H   H845      1.0  0.55443  0.45772  0.03353  1.0000
  H   H846      1.0  0.52330  0.43428  0.98295  1.0000
  Fe  Fe53      1.0  0.48672  0.14595  0.45657  1.0000
  H   H847      1.0  0.35713  0.32872  0.99416  1.0000
  S   S113      1.0  0.50402  0.17670  0.02264  1.0000
  H   H848      1.0  0.66287  0.16028  0.34020  1.0000
  C   C486      1.0  0.49065  0.25815  0.48127  1.0000
  H   H849      1.0  0.47995  0.21787  0.46777  1.0000
  H   H850      1.0  0.46851  0.06420  0.00949  1.0000
  H   H851      1.0  0.54793  0.24964  0.43812  1.0000
  C   C487      1.0  0.51500  0.23244  0.01445  1.0000
  C   C488      1.0  0.49092  0.22896  0.47510  1.0000
  C   C489      1.0  0.33149  0.32101  0.98450  1.0000
  H   H852      1.0  0.58691  0.49003  0.31725  1.0000
  C   C490      1.0  0.52091  0.49282  0.47675  1.0000
  C   C491      1.0  0.34911  0.31170  0.98358  1.0000
  H   H853      1.0  0.62849  0.49463  0.19745  1.0000
  H   H854      1.0  0.66278  0.49455  0.26220  1.0000
  C   C492      1.0  0.48910  0.99618  0.00575  1.0000
  C   C493      1.0  0.58592  0.42494  0.48148  1.0000
  S   S114      1.0  0.36591  0.39719  0.79641  1.0000
  C   C494      1.0  0.50914  0.18354  0.58540  1.0000
  Fe  Fe54      1.0  0.48273  0.39867  0.90816  1.0000
  S   S115      1.0  0.49882  0.36445  0.88418  1.0000
  S   S116      1.0  0.49559  0.44084  0.92288  1.0000
  Fe  Fe55      1.0  0.45231  0.36158  0.89550  1.0000
  S   S117      1.0  0.46694  0.32527  0.87288  1.0000
  S   S118      1.0  0.42483  0.35500  0.90124  1.0000
  Fe  Fe56      1.0  0.48455  0.33396  0.92107  1.0000
  H   H855      1.0  0.53026  0.26928  0.50108  1.0000
  Fe  Fe57      1.0  0.48009  0.35821  0.83816  1.0000
  S   S119      1.0  0.48165  0.35134  0.77274  1.0000
  S   S120      1.0  0.46909  0.36851  0.94650  1.0000
  S   S121      1.0  0.46480  0.39412  0.85919  1.0000
  Fe  Fe58      1.0  0.56093  0.34976  0.51935  1.0000
  C   C495      1.0  0.39656  0.29862  0.75200  1.0000
  Fe  Fe59      1.0  0.53918  0.36429  0.58889  1.0000
  S   S122      1.0  0.51823  0.37605  0.55150  1.0000
  S   S123      1.0  0.53971  0.36954  0.65428  1.0000
  Fe  Fe60      1.0  0.52465  0.33720  0.51752  1.0000
  H   H856      1.0  0.36778  0.35700  0.86104  1.0000
  C   C496      1.0  0.47784  0.39229  0.59458  1.0000
  H   H857      1.0  0.51469  0.16344  0.59437  1.0000
  S   S124      1.0  0.54445  0.32396  0.55746  1.0000
  S   S125      1.0  0.55732  0.38897  0.55412  1.0000
  S   S126      1.0  0.49680  0.04923  0.50241  1.0000
  H   H858      1.0  0.37921  0.34830  0.76390  1.0000
  H   H859      1.0  0.55267  0.47601  0.61819  1.0000
  H   H860      1.0  0.49297  0.24079  0.66035  1.0000
  H   H861      1.0  0.48529  0.37340  0.59952  1.0000
  C   C497      1.0  0.49801  0.28006  0.68782  1.0000
  H   H862      1.0  0.47972  0.39963  0.56447  1.0000
  H   H863      1.0  0.50368  0.43836  0.52431  1.0000
  H   H864      1.0  0.53922  0.42084  0.92736  1.0000
  H   H865      1.0  0.45411  0.00641  0.57595  1.0000
  H   H866      1.0  0.42150  0.06712  0.51908  1.0000
  H   H867      1.0  0.53080  0.21777  0.49053  1.0000
  H   H868      1.0  0.33566  0.34489  0.93194  1.0000
  H   H869      1.0  0.41195  0.08010  0.58572  1.0000
  C   C498      1.0  0.35983  0.48219  0.65904  1.0000
  H   H870      1.0  0.49216  0.13538  0.87389  1.0000
  H   H871      1.0  0.51222  0.24207  0.68196  1.0000
  H   H872      1.0  0.39102  0.34130  0.90099  1.0000
  C   C499      1.0  0.51569  0.20747  0.61023  1.0000
  H   H873      1.0  0.49933  0.47485  0.60016  1.0000
  C   C500      1.0  0.38463  0.34682  0.70266  1.0000
  H   H874      1.0  0.42969  0.31080  0.75541  1.0000
  H   H875      1.0  0.36908  0.01576  0.52736  1.0000
  C   C501      1.0  0.49794  0.35710  0.74046  1.0000
  C   C502      1.0  0.49542  0.35302  0.70069  1.0000
  C   C503      1.0  0.50808  0.35662  0.67397  1.0000
  C   C504      1.0  0.52339  0.36460  0.68673  1.0000
  C   C505      1.0  0.52587  0.36902  0.72641  1.0000
  C   C506      1.0  0.51323  0.36524  0.75320  1.0000
  H   H876      1.0  0.48362  0.34678  0.69058  1.0000
  H   H877      1.0  0.50602  0.35326  0.64355  1.0000
  H   H878      1.0  0.53767  0.37521  0.73657  1.0000
  H   H879      1.0  0.51533  0.36844  0.78370  1.0000
  C   C507      1.0  0.35218  0.45987  0.68493  1.0000
  C   C508      1.0  0.64796  0.37751  0.61032  1.0000
  H   H880      1.0  0.37490  0.27758  0.79744  1.0000
  H   H881      1.0  0.47858  0.25455  0.95086  1.0000
  C   C509      1.0  0.53570  0.28806  0.65392  1.0000
  C   C510      1.0  0.38134  0.12950  0.52216  1.0000
  H   H882      1.0  0.46649  0.02468  0.61108  1.0000
  H   H883      1.0  0.55861  0.29279  0.62324  1.0000
  H   H884      1.0  0.37319  0.13812  0.54347  1.0000
  C   C511      1.0  0.38208  0.38426  0.82533  1.0000
  C   C512      1.0  0.39782  0.39406  0.81804  1.0000
  C   C513      1.0  0.41106  0.38490  0.84028  1.0000
  C   C514      1.0  0.40872  0.36601  0.87063  1.0000
  C   C515      1.0  0.39298  0.35591  0.87763  1.0000
  C   C516      1.0  0.37977  0.36478  0.85501  1.0000
  H   H885      1.0  0.39982  0.40905  0.79514  1.0000
  H   H886      1.0  0.42303  0.39287  0.83443  1.0000
  N   N27       1.0  0.51146  0.26043  0.62489  1.0000
  C   C517      1.0  0.50472  0.28624  0.60579  1.0000
  C   C518      1.0  0.38252  0.99940  0.59593  1.0000
  C   C519      1.0  0.50831  0.23597  0.59812  1.0000
  C   C520      1.0  0.48671  0.28429  0.59385  1.0000
  C   C521      1.0  0.48235  0.41526  0.62335  1.0000
  Fe  Fe61      1.0  0.33940  0.38609  0.78483  1.0000
  H   H887      1.0  0.48903  0.29020  0.74500  1.0000
  C   C522      1.0  0.47914  0.31321  0.58946  1.0000
  H   H888      1.0  0.37971  0.33716  0.67601  1.0000
  H   H889      1.0  0.51170  0.29121  0.57910  1.0000
  H   H890      1.0  0.50628  0.30496  0.62427  1.0000
  C   C523      1.0  0.49351  0.27158  0.72897  1.0000
  H   H891      1.0  0.51282  0.24076  0.56857  1.0000
  H   H892      1.0  0.49512  0.23234  0.59487  1.0000
  H   H893      1.0  0.48574  0.27331  0.56562  1.0000
  H   H894      1.0  0.47948  0.27230  0.61513  1.0000
  C   C524      1.0  0.48026  0.05058  0.89139  1.0000
  H   H895      1.0  0.53102  0.30849  0.64394  1.0000
  H   H896      1.0  0.39138  0.07205  0.53742  1.0000
  H   H897      1.0  0.46666  0.31103  0.57836  1.0000
  H   H898      1.0  0.47869  0.32409  0.61780  1.0000
  H   H899      1.0  0.48617  0.32606  0.56867  1.0000
  H   H900      1.0  0.37876  0.29152  0.68806  1.0000
  H   H901      1.0  0.53620  0.35649  0.93287  1.0000
  H   H902      1.0  0.65918  0.34213  0.58398  1.0000
  H   H903      1.0  0.53491  0.24452  0.64140  1.0000
  H   H904      1.0  0.51244  0.12276  0.94642  1.0000
  C   C525      1.0  0.54942  0.45722  0.60095  1.0000
  C   C526      1.0  0.37589  0.33506  0.73884  1.0000
  H   H905      1.0  0.53364  0.09096  0.94183  1.0000
  H   H906      1.0  0.53504  0.26587  0.59926  1.0000
  H   H907      1.0  0.55811  0.30804  0.67073  1.0000
  H   H908      1.0  0.34840  0.30865  0.84525  1.0000
  H   H909      1.0  0.34611  0.02030  0.48409  1.0000
  C   C527      1.0  0.50711  0.11564  0.91851  1.0000
  C   C528      1.0  0.51955  0.22901  0.48783  1.0000
  C   C529      1.0  0.53865  0.39932  0.91542  1.0000
  S   S127      1.0  0.58405  0.33086  0.49412  1.0000
  H   H910      1.0  0.50421  0.26334  0.74441  1.0000
  H   H911      1.0  0.37010  0.02776  0.63293  1.0000
  H   H912      1.0  0.35043  0.24544  0.69076  1.0000
  H   H913      1.0  0.57883  0.40618  0.48971  1.0000
  C   C530      1.0  0.34589  0.03170  0.51202  1.0000
  H   H914      1.0  0.40273  0.29939  0.72346  1.0000
  H   H915      1.0  0.42338  0.03118  0.53477  1.0000
  H   H916      1.0  0.52583  0.06334  0.97193  1.0000
  C   C531      1.0  0.51401  0.06581  0.91549  1.0000
  H   H917      1.0  0.48533  0.47242  0.63833  1.0000
  H   H918      1.0  0.47769  0.09537  0.89392  1.0000
  C   C532      1.0  0.60367  0.34532  0.48754  1.0000
  S   S128      1.0  0.49957  0.30453  0.96084  1.0000
  H   H919      1.0  0.36775  0.24837  0.74902  1.0000
  C   C533      1.0  0.36341  0.23979  0.68930  1.0000
  H   H920      1.0  0.46895  0.09596  0.95223  1.0000
  H   H921      1.0  0.38816  0.38634  0.67279  1.0000
  C   C534      1.0  0.36313  0.03640  0.52598  1.0000
  C   C535      1.0  0.50379  0.25444  0.66373  1.0000
  H   H922      1.0  0.52577  0.47213  0.58756  1.0000
  C   C536      1.0  0.34501  0.29145  0.82520  1.0000
  C   C537      1.0  0.52031  0.38099  0.97010  1.0000
  H   H923      1.0  0.40054  0.31719  0.80973  1.0000
  H   H924      1.0  0.39364  0.03547  0.53937  1.0000
  H   H925      1.0  0.48384  0.25546  0.72877  1.0000
  H   H926      1.0  0.48714  0.28953  0.67463  1.0000
  H   H927      1.0  0.51823  0.06734  0.88496  1.0000
  H   H928      1.0  0.51296  0.20263  0.64086  1.0000
  H   H929      1.0  0.37392  0.31371  0.80798  1.0000
  C   C538      1.0  0.50056  0.26872  0.97729  1.0000
  S   S129      1.0  0.47582  0.11898  0.50265  1.0000
  H   H930      1.0  0.48007  0.01194  0.85831  1.0000
  Fe  Fe62      1.0  0.53652  0.39813  0.51447  1.0000
  C   C539      1.0  0.40587  0.31803  0.78038  1.0000
  C   C540      1.0  0.60908  0.36853  0.50851  1.0000
  H   H931      1.0  0.64017  0.36404  0.62870  1.0000
  S   S130      1.0  0.35414  0.10739  0.48588  1.0000
  H   H932      1.0  0.40573  0.34011  0.77049  1.0000
  H   H933      1.0  0.52067  0.01409  0.53679  1.0000
  C   C541      1.0  0.38225  0.37848  0.69944  1.0000
  H   H934      1.0  0.47461  0.43357  0.61707  1.0000
  H   H935      1.0  0.51415  0.16892  0.88855  1.0000
  H   H936      1.0  0.50723  0.29667  0.68979  1.0000
  H   H937      1.0  0.48157  0.12027  0.97877  1.0000
  C   C542      1.0  0.38093  0.02890  0.61397  1.0000
  H   H938      1.0  0.36922  0.38372  0.69817  1.0000
  H   H939      1.0  0.38772  0.38932  0.72463  1.0000
  H   H940      1.0  0.39838  0.27679  0.76231  1.0000
  C   C543      1.0  0.52897  0.06919  0.94188  1.0000
  C   C544      1.0  0.52952  0.26361  0.62852  1.0000
  C   C545      1.0  0.40900  0.12303  0.49811  1.0000
  H   H941      1.0  0.60124  0.37806  0.52976  1.0000
  H   H942      1.0  0.34456  0.47227  0.61091  1.0000
  H   H943      1.0  0.64102  0.38339  0.58416  1.0000
  H   H944      1.0  0.42452  0.28769  0.79509  1.0000
  N   N28       1.0  0.50040  0.08620  0.92243  1.0000
  H   H945      1.0  0.36950  0.04896  0.50363  1.0000
  H   H946      1.0  0.49462  0.18411  0.89774  1.0000
  H   H947      1.0  0.34744  0.27991  0.76584  1.0000
  H   H948      1.0  0.51727  0.11606  0.89738  1.0000
  H   H949      1.0  0.42979  0.32368  0.80433  1.0000
  C   C546      1.0  0.50327  0.16781  0.90725  1.0000
  C   C547      1.0  0.55410  0.28983  0.65314  1.0000
  H   H950      1.0  0.48200  0.47390  0.53278  1.0000
  H   H951      1.0  0.55546  0.43852  0.61331  1.0000
  C   C548      1.0  0.49395  0.08154  0.96270  1.0000
  H   H952      1.0  0.51213  0.18710  0.55454  1.0000
  H   H953      1.0  0.50213  0.42314  0.76356  1.0000
  C   C549      1.0  0.50521  0.45921  0.51289  1.0000
  N   N29       1.0  0.50643  0.44630  0.64553  1.0000
  C   C550      1.0  0.52455  0.44745  0.64159  1.0000
  C   C551      1.0  0.50166  0.43926  0.68666  1.0000
  C   C552      1.0  0.50052  0.42285  0.61989  1.0000
  C   C553      1.0  0.49848  0.47298  0.63214  1.0000
  H   H954      1.0  0.51449  0.36010  0.97100  1.0000
  C   C554      1.0  0.53117  0.45307  0.60036  1.0000
  C   C555      1.0  0.48789  0.08051  0.89177  1.0000
  C   C556      1.0  0.51252  0.45058  0.71959  1.0000
  C   C557      1.0  0.50472  0.44576  0.75907  1.0000
  H   H955      1.0  0.48258  0.04301  0.82947  1.0000
  H   H956      1.0  0.51504  0.47321  0.71662  1.0000
  H   H957      1.0  0.49329  0.45771  0.76162  1.0000
  H   H958      1.0  0.52987  0.42734  0.65163  1.0000
  H   H959      1.0  0.52983  0.46361  0.66077  1.0000
  H   H960      1.0  0.48902  0.44593  0.69248  1.0000
  H   H961      1.0  0.50170  0.41611  0.69106  1.0000
  H   H962      1.0  0.50755  0.40346  0.62556  1.0000
  H   H963      1.0  0.50264  0.42796  0.58909  1.0000
  C   C558      1.0  0.51011  0.48921  0.95069  1.0000
  H   H964      1.0  0.49178  0.05894  0.96801  1.0000
  H   H965      1.0  0.52859  0.39830  0.89438  1.0000
  S   S131      1.0  0.33661  0.12989  0.59009  1.0000
  H   H966      1.0  0.52869  0.43504  0.58104  1.0000
  H   H967      1.0  0.51181  0.39353  0.95244  1.0000
  H   H968      1.0  0.33098  0.43956  0.89103  1.0000
  H   H969      1.0  0.54712  0.05658  0.89970  1.0000
  H   H970      1.0  0.52423  0.43927  0.71945  1.0000
  S   S132      1.0  0.43009  0.12847  0.50507  1.0000
  H   H971      1.0  0.46495  0.38650  0.59825  1.0000
  S   S133      1.0  0.33313  0.37310  0.72401  1.0000
  H   H972      1.0  0.65106  0.39673  0.62682  1.0000
  H   H973      1.0  0.39268  0.99821  0.57519  1.0000
  H   H974      1.0  0.55385  0.46025  0.57098  1.0000
  H   H975      1.0  0.46694  0.05263  0.88905  1.0000
  H   H976      1.0  0.36818  0.24524  0.66027  1.0000
  C   C559      1.0  0.35188  0.29691  0.78492  1.0000
  H   H977      1.0  0.62874  0.39733  0.51855  1.0000
  H   H978      1.0  0.50985  0.04382  0.91950  1.0000
  N   N30       1.0  0.37949  0.05321  0.58640  1.0000
  C   C560      1.0  0.39329  0.05440  0.55787  1.0000
  C   C561      1.0  0.36352  0.05224  0.56523  1.0000
  C   C562      1.0  0.37997  0.07988  0.60992  1.0000
  C   C563      1.0  0.49839  0.46837  0.95780  1.0000
  H   H979      1.0  0.53872  0.02798  0.92752  1.0000
  H   H980      1.0  0.41266  0.04357  0.59908  1.0000
  C   C564      1.0  0.36600  0.08398  0.63933  1.0000
  H   H981      1.0  0.34349  0.48924  0.52876  1.0000
  H   H982      1.0  0.36109  0.45259  0.70659  1.0000
  H   H983      1.0  0.48235  0.03853  0.91813  1.0000
  H   H984      1.0  0.49309  0.08506  0.86273  1.0000
  C   C565      1.0  0.36724  0.11248  0.65926  1.0000
  C   C566      1.0  0.37517  0.11426  0.49100  1.0000
  H   H985      1.0  0.51702  0.48839  0.92420  1.0000
  H   H986      1.0  0.35390  0.04338  0.58420  1.0000
  H   H987      1.0  0.35936  0.07386  0.55822  1.0000
  H   H988      1.0  0.38012  0.09838  0.59036  1.0000
  H   H989      1.0  0.39127  0.08118  0.62707  1.0000
  H   H990      1.0  0.39121  0.03220  0.63405  1.0000
  C   C567      1.0  0.54272  0.05017  0.92868  1.0000
  S   S134      1.0  0.53544  0.44170  0.48768  1.0000
  H   H991      1.0  0.55006  0.39514  0.89964  1.0000
  H   H992      1.0  0.49110  0.00604  0.57913  1.0000
  H   H993      1.0  0.46770  0.03370  0.56069  1.0000
  H   H994      1.0  0.36638  0.06785  0.66231  1.0000
  H   H995      1.0  0.35407  0.08270  0.62512  1.0000
  H   H996      1.0  0.34951  0.27122  0.83666  1.0000
  C   C568      1.0  0.58226  0.44765  0.51135  1.0000
  H   H997      1.0  0.58486  0.43959  0.54073  1.0000
  H   H998      1.0  0.36444  0.21679  0.69324  1.0000
  H   H999      1.0  0.34818  0.44150  0.66767  1.0000
  H   H1000     1.0  0.35276  0.30584  0.95376  1.0000
  H   H1001     1.0  0.37089  0.47298  0.64635  1.0000
  H   H1002     1.0  0.49585  0.18166  0.58853  1.0000
  H   H1003     1.0  0.48416  0.13939  0.92172  1.0000
  C   C569      1.0  0.42353  0.30939  0.78384  1.0000
  H   H1004     1.0  0.53224  0.28467  0.68447  1.0000
  H   H1005     1.0  0.37848  0.11383  0.67653  1.0000
  H   H1006     1.0  0.36718  0.12969  0.63772  1.0000
  H   H1007     1.0  0.35677  0.11535  0.67891  1.0000
  C   C570      1.0  0.49541  0.13888  0.90462  1.0000
  H   H1008     1.0  0.34684  0.31694  0.77444  1.0000
  C   C571      1.0  0.50361  0.01514  0.49000  1.0000
  H   H1009     1.0  0.51302  0.45286  0.78224  1.0000
  H   H1010     1.0  0.54707  0.37745  0.96630  1.0000
  H   H1011     1.0  0.38556  0.24776  0.71946  1.0000
  H   H1012     1.0  0.36285  0.33901  0.73438  1.0000
  H   H1013     1.0  0.50681  0.17255  0.93744  1.0000
  H   H1014     1.0  0.35937  0.29326  0.70909  1.0000
  H   H1015     1.0  0.55950  0.27053  0.66538  1.0000
  C   C572      1.0  0.53636  0.37737  0.94721  1.0000
  C   C573      1.0  0.37058  0.29791  0.78571  1.0000
  C   C574      1.0  0.46609  0.01608  0.58130  1.0000
  H   H1016     1.0  0.52897  0.20774  0.60614  1.0000
  C   C575      1.0  0.37286  0.25499  0.72091  1.0000
  H   H1017     1.0  0.34166  0.46860  0.70065  1.0000
  C   C576      1.0  0.41041  0.05830  0.57503  1.0000
  H   H1018     1.0  0.33621  0.39390  0.92167  1.0000
  H   H1019     1.0  0.40276  0.14543  0.55008  1.0000
  C   C577      1.0  0.37208  0.28719  0.71529  1.0000
  N   N31       1.0  0.37879  0.30462  0.74787  1.0000
  H   H1020     1.0  0.39778  0.34297  0.70363  1.0000
  H   H1021     1.0  0.47938  0.40742  0.65267  1.0000
  C   C578      1.0  0.39814  0.13366  0.52579  1.0000
  H   H1022     1.0  0.43548  0.05829  0.55665  1.0000
  C   C579      1.0  0.42343  0.05335  0.54446  1.0000
  H   H1023     1.0  0.33982  0.05207  0.50741  1.0000
  H   H1024     1.0  0.55289  0.05185  0.94938  1.0000
  C   C580      1.0  0.49289  0.47931  0.51727  1.0000
  H   H1025     1.0  0.49918  0.02974  0.85784  1.0000
  H   H1026     1.0  0.33549  0.36451  0.97549  1.0000
  H   H1027     1.0  0.38487  0.48426  0.51018  1.0000
  C   C581      1.0  0.34800  0.49158  0.62692  1.0000
  C   C582      1.0  0.51535  0.00235  0.51331  1.0000
  C   C583      1.0  0.48594  0.03287  0.85713  1.0000
  Fe  Fe63      1.0  0.33380  0.11980  0.52728  1.0000
  H   H1028     1.0  0.36497  0.48001  0.56558  1.0000
  C   C584      1.0  0.62474  0.37927  0.50230  1.0000
  C   C585      1.0  0.48875  0.24865  0.96850  1.0000
  H   H1029     1.0  0.33165  0.29034  0.82358  1.0000
  C   C586      1.0  0.47856  0.09785  0.97413  1.0000
  C   C587      1.0  0.51929  0.25819  0.49387  1.0000
  H   H1030     1.0  0.58984  0.46647  0.50620  1.0000
  C   C588      1.0  0.51937  0.46597  0.49297  1.0000
  H   H1031     1.0  0.33892  0.01916  0.53330  1.0000
  H   H1032     1.0  0.56935  0.45366  0.51012  1.0000
  C   C589      1.0  0.50481  0.27289  0.49061  1.0000
  S   S135      1.0  0.50377  0.30952  0.49841  1.0000
  H   H1033     1.0  0.48078  0.20577  0.97557  1.0000
  H   H1034     1.0  0.59893  0.42009  0.48350  1.0000
  H   H1035     1.0  0.49627  0.96009  0.42978  1.0000
  Fe  Fe64      1.0  0.45149  0.61514  0.44712  1.0000
  C   C590      1.0  0.62419  0.99267  0.22622  1.0000
  Fe  Fe65      1.0  0.47920  0.59791  0.39257  1.0000
  S   S136      1.0  0.49662  0.59276  0.44156  1.0000
  S   S137      1.0  0.48589  0.58295  0.33202  1.0000
  C   C591      1.0  0.47962  0.58030  0.99494  1.0000
  H   H1036     1.0  0.51594  0.71364  0.35393  1.0000
  Fe  Fe66      1.0  0.48625  0.63306  0.46459  1.0000
  C   C592      1.0  0.66040  0.50006  0.17332  1.0000
  S   S138      1.0  0.45956  0.57382  0.42289  1.0000
  S   S139      1.0  0.47021  0.63969  0.41314  1.0000
  S   S140      1.0  0.64077  0.60680  0.17788  1.0000
  C   C593      1.0  0.50159  0.75730  0.00991  1.0000
  Fe  Fe67      1.0  0.52010  0.58234  0.06012  1.0000
  S   S141      1.0  0.53622  0.60833  0.02185  1.0000
  H   H1037     1.0  0.61097  0.98999  0.22984  1.0000
  Fe  Fe68      1.0  0.52059  0.62789  0.12374  1.0000
  S   S142      1.0  0.53669  0.65673  0.08886  1.0000
  S   S143      1.0  0.51094  0.64582  0.18075  1.0000
  Fe  Fe69      1.0  0.52098  0.64591  0.03807  1.0000
  C   C594      1.0  0.50654  0.72915  0.01490  1.0000
  Fe  Fe70      1.0  0.55095  0.61768  0.07550  1.0000
  S   S144      1.0  0.57865  0.61939  0.06866  1.0000
  S   S145      1.0  0.50401  0.61940  0.07363  1.0000
  S   S146      1.0  0.53572  0.58937  0.11316  1.0000
  C   C595      1.0  0.62373  0.61108  0.14691  1.0000
  C   C596      1.0  0.60814  0.60803  0.16260  1.0000
  C   C597      1.0  0.59423  0.61048  0.13930  1.0000
  C   C598      1.0  0.59571  0.61628  0.09986  1.0000
  C   C599      1.0  0.61131  0.61964  0.08429  1.0000
  C   C600      1.0  0.62522  0.61703  0.10754  1.0000
  H   H1038     1.0  0.60675  0.60363  0.19302  1.0000
  H   H1039     1.0  0.58237  0.60787  0.15182  1.0000
  H   H1040     1.0  0.61265  0.62402  0.05382  1.0000
  H   H1041     1.0  0.63707  0.61919  0.09481  1.0000
  C   C601      1.0  0.49351  0.60114  0.29121  1.0000
  C   C602      1.0  0.49212  0.63018  0.28737  1.0000
  C   C603      1.0  0.49754  0.64347  0.25338  1.0000
  C   C604      1.0  0.50446  0.62795  0.22297  1.0000
  C   C605      1.0  0.50590  0.59894  0.22694  1.0000
  C   C606      1.0  0.50039  0.58563  0.26082  1.0000
  H   H1042     1.0  0.48656  0.64227  0.31016  1.0000
  H   H1043     1.0  0.49630  0.66591  0.25045  1.0000
  H   H1044     1.0  0.51114  0.58673  0.20377  1.0000
  H   H1045     1.0  0.50138  0.56312  0.26336  1.0000
  H   H1046     1.0  0.61534  0.67670  0.14016  1.0000
  N   N32       1.0  0.64484  0.51961  0.23248  1.0000
  H   H1047     1.0  0.45280  0.88763  0.04898  1.0000
  C   C607      1.0  0.53677  0.95950  0.05686  1.0000
  H   H1048     1.0  0.64578  0.78165  0.14603  1.0000
  C   C608      1.0  0.39548  0.57556  0.24901  1.0000
  H   H1049     1.0  0.53528  0.97891  0.07425  1.0000
  H   H1050     1.0  0.45302  0.57822  0.00035  1.0000
  H   H1051     1.0  0.46422  0.53194  0.02284  1.0000
  H   H1052     1.0  0.60823  0.50948  0.14990  1.0000
  H   H1053     1.0  0.39189  0.59627  0.23728  1.0000
  H   H1054     1.0  0.60192  0.54551  0.14903  1.0000
  Fe  Fe71      1.0  0.47653  0.57150  0.47329  1.0000
  H   H1055     1.0  0.64083  0.56436  0.23794  1.0000
  H   H1056     1.0  0.63323  0.54413  0.27711  1.0000
  H   H1057     1.0  0.50286  0.85471  0.00977  1.0000
  H   H1058     1.0  0.63075  0.54239  0.16393  1.0000
  C   C609      1.0  0.61532  0.83250  0.47691  1.0000
  H   H1059     1.0  0.53176  0.49824  0.46108  1.0000
  C   C610      1.0  0.46340  0.55043  0.04225  1.0000
  C   C611      1.0  0.64778  0.69147  0.16709  1.0000
  C   C612      1.0  0.34936  0.71848  0.47246  1.0000
  C   C613      1.0  0.62204  0.53745  0.18727  1.0000
  H   H1060     1.0  0.65318  0.66349  0.09825  1.0000
  H   H1061     1.0  0.65551  0.54393  0.18615  1.0000
  H   H1062     1.0  0.51073  0.72206  0.04276  1.0000
  H   H1063     1.0  0.48269  0.69404  0.38325  1.0000
  H   H1064     1.0  0.41637  0.55398  0.26910  1.0000
  C   C614      1.0  0.51314  0.95888  0.47698  1.0000
  H   H1065     1.0  0.62733  0.98775  0.19587  1.0000
  H   H1066     1.0  0.48902  0.69467  0.33309  1.0000
  H   H1067     1.0  0.46219  0.91970  0.06501  1.0000
  H   H1068     1.0  0.63370  0.66441  0.26215  1.0000
  H   H1069     1.0  0.61937  0.51111  0.23764  1.0000
  N   N33       1.0  0.50989  0.89336  0.03868  1.0000
  C   C615      1.0  0.51112  0.87275  0.00567  1.0000
  C   C616      1.0  0.49332  0.90640  0.03824  1.0000
  C   C617      1.0  0.52201  0.91647  0.03121  1.0000
  C   C618      1.0  0.51344  0.88027  0.07749  1.0000
  C   C619      1.0  0.50906  0.84877  0.08253  1.0000
  H   H1070     1.0  0.62798  0.94968  0.24435  1.0000
  C   C620      1.0  0.52133  0.94203  0.05899  1.0000
  C   C621      1.0  0.47897  0.88682  0.04761  1.0000
  H   H1071     1.0  0.45192  0.54911  0.05868  1.0000
  C   C622      1.0  0.51036  0.83981  0.12472  1.0000
  S   S147      1.0  0.53872  0.85142  0.47386  1.0000
  S   S148      1.0  0.51180  0.67416  0.98833  1.0000
  S   S149      1.0  0.51747  0.92283  0.46972  1.0000
  S   S150      1.0  0.42519  0.62985  0.44180  1.0000
  H   H1072     1.0  0.49241  0.92355  0.05981  1.0000
  H   H1073     1.0  0.49107  0.91623  0.00960  1.0000
  H   H1074     1.0  0.52068  0.92465  0.00129  1.0000
  H   H1075     1.0  0.53450  0.90813  0.03276  1.0000
  H   H1076     1.0  0.52652  0.88189  0.08447  1.0000
  H   H1077     1.0  0.50729  0.89230  0.10084  1.0000
  H   H1078     1.0  0.51744  0.83545  0.06560  1.0000
  H   H1079     1.0  0.49671  0.84382  0.07264  1.0000
  H   H1080     1.0  0.53398  0.67146  0.24203  1.0000
  H   H1081     1.0  0.65439  0.69348  0.06696  1.0000
  H   H1082     1.0  0.62992  0.97501  0.28270  1.0000
  H   H1083     1.0  0.51119  0.95596  0.05083  1.0000
  H   H1084     1.0  0.47866  0.86839  0.02816  1.0000
  H   H1085     1.0  0.47971  0.87956  0.07795  1.0000
  C   C623      1.0  0.46213  0.59104  0.21284  1.0000
  C   C624      1.0  0.62854  0.51428  0.21448  1.0000
  H   H1086     1.0  0.51959  0.93543  0.08939  1.0000
  H   H1087     1.0  0.50162  0.85160  0.14283  1.0000
  H   H1088     1.0  0.50757  0.81712  0.12724  1.0000
  H   H1089     1.0  0.52276  0.84346  0.13571  1.0000
  H   H1090     1.0  0.59119  0.88990  0.47580  1.0000
  H   H1091     1.0  0.63416  0.70373  0.11459  1.0000
  H   H1092     1.0  0.59689  0.52400  0.19003  1.0000
  C   C625      1.0  0.63247  0.97096  0.25169  1.0000
  H   H1093     1.0  0.46307  0.59522  0.03988  1.0000
  H   H1094     1.0  0.54713  0.94753  0.06852  1.0000
  N   N34       1.0  0.63702  0.70491  0.19719  1.0000
  C   C626      1.0  0.63462  0.73585  0.19049  1.0000
  C   C627      1.0  0.62078  0.69055  0.19889  1.0000
  C   C628      1.0  0.64479  0.70188  0.23645  1.0000
  H   H1095     1.0  0.55066  0.65685  0.26817  1.0000
  H   H1096     1.0  0.62223  0.66779  0.20486  1.0000
  C   C629      1.0  0.61029  0.69136  0.16199  1.0000
  C   C630      1.0  0.59306  0.68168  0.17051  1.0000
  C   C631      1.0  0.52837  0.86152  0.99750  1.0000
  H   H1097     1.0  0.61592  0.91030  0.44630  1.0000
  H   H1098     1.0  0.62544  0.74424  0.21103  1.0000
  H   H1099     1.0  0.62950  0.73997  0.16155  1.0000
  H   H1100     1.0  0.45311  0.59990  0.19267  1.0000
  H   H1101     1.0  0.61358  0.69926  0.22333  1.0000
  H   H1102     1.0  0.63828  0.71477  0.25836  1.0000
  H   H1103     1.0  0.55845  0.66026  0.43602  1.0000
  H   H1104     1.0  0.44453  0.56501  0.24028  1.0000
  C   C632      1.0  0.62972  0.87214  0.44896  1.0000
  C   C633      1.0  0.62932  0.84394  0.45981  1.0000
  H   H1105     1.0  0.33459  0.71266  0.42136  1.0000
  H   H1106     1.0  0.60946  0.71258  0.14940  1.0000
  H   H1107     1.0  0.46855  0.57364  0.19808  1.0000
  H   H1108     1.0  0.58678  0.69710  0.18924  1.0000
  H   H1109     1.0  0.57526  0.70016  0.45527  1.0000
  H   H1110     1.0  0.63741  0.79410  0.19132  1.0000
  H   H1111     1.0  0.52752  0.58065  0.40603  1.0000
  C   C634      1.0  0.43060  0.53035  0.36868  1.0000
  C   C635      1.0  0.40762  0.61980  0.46831  1.0000
  H   H1112     1.0  0.53446  0.61524  0.33342  1.0000
  C   C636      1.0  0.64350  0.54598  0.25644  1.0000
  H   H1113     1.0  0.48314  0.55912  0.98491  1.0000
  H   H1114     1.0  0.59304  0.66098  0.18505  1.0000
  H   H1115     1.0  0.65738  0.71010  0.23580  1.0000
  H   H1116     1.0  0.56389  0.68116  0.39457  1.0000
  H   H1117     1.0  0.58626  0.67962  0.14304  1.0000
  H   H1118     1.0  0.38825  0.57099  0.27531  1.0000
  C   C637      1.0  0.37832  0.62384  0.47797  1.0000
  C   C638      1.0  0.46386  0.57757  0.01899  1.0000
  C   C639      1.0  0.65001  0.75418  0.19520  1.0000
  C   C640      1.0  0.41349  0.57519  0.25828  1.0000
  H   H1119     1.0  0.54555  0.58039  0.37671  1.0000
  H   H1120     1.0  0.48738  0.72681  0.36022  1.0000
  H   H1121     1.0  0.52667  0.56820  0.35704  1.0000
  H   H1122     1.0  0.52457  0.64954  0.30209  1.0000
  H   H1123     1.0  0.50940  0.71243  0.40313  1.0000
  H   H1124     1.0  0.51525  0.61484  0.35855  1.0000
  S   S151      1.0  0.50757  0.53957  0.04757  1.0000
  H   H1125     1.0  0.48198  0.63550  0.00204  1.0000
  H   H1126     1.0  0.64496  0.49984  0.28914  1.0000
  H   H1127     1.0  0.65051  0.65715  0.23074  1.0000
  H   H1128     1.0  0.54722  0.69437  0.26859  1.0000
  C   C641      1.0  0.46295  0.90235  0.04367  1.0000
  H   H1129     1.0  0.64544  0.66850  0.16574  1.0000
  H   H1130     1.0  0.46159  0.91118  0.01422  1.0000
  C   C642      1.0  0.60174  0.87699  0.47146  1.0000
  H   H1131     1.0  0.61939  0.55684  0.20368  1.0000
  C   C643      1.0  0.56236  0.70362  0.44828  1.0000
  C   C644      1.0  0.50171  0.97189  0.45305  1.0000
  N   N35       1.0  0.43461  0.59757  0.30456  1.0000
  C   C645      1.0  0.43840  0.56974  0.32307  1.0000
  C   C646      1.0  0.44713  0.60461  0.27421  1.0000
  C   C647      1.0  0.43549  0.61967  0.33587  1.0000
  C   C648      1.0  0.41783  0.59832  0.28781  1.0000
  H   H1132     1.0  0.36035  0.72059  0.45438  1.0000
  C   C649      1.0  0.42669  0.56011  0.35547  1.0000
  C   C650      1.0  0.43526  0.65065  0.32197  1.0000
  C   C651      1.0  0.45385  0.58014  0.24933  1.0000
  H   H1133     1.0  0.46292  0.56833  0.26637  1.0000
  H   H1134     1.0  0.39999  0.71858  0.44852  1.0000
  C   C652      1.0  0.43315  0.67094  0.35576  1.0000
  H   H1135     1.0  0.45079  0.57032  0.33547  1.0000
  H   H1136     1.0  0.43882  0.55260  0.30154  1.0000
  H   H1137     1.0  0.44249  0.62116  0.25453  1.0000
  H   H1138     1.0  0.45803  0.61384  0.28808  1.0000
  H   H1139     1.0  0.44669  0.61700  0.35323  1.0000
  H   H1140     1.0  0.42535  0.61715  0.35669  1.0000
  H   H1141     1.0  0.40864  0.59804  0.31128  1.0000
  H   H1142     1.0  0.41572  0.61842  0.27258  1.0000
  C   C653      1.0  0.64580  0.67179  0.25284  1.0000
  C   C654      1.0  0.50446  0.51241  0.01228  1.0000
  H   H1143     1.0  0.42760  0.57408  0.38102  1.0000
  H   H1144     1.0  0.41402  0.56002  0.34543  1.0000
  H   H1145     1.0  0.42529  0.65466  0.30160  1.0000
  H   H1146     1.0  0.44678  0.65604  0.30731  1.0000
  H   H1147     1.0  0.65231  0.68539  0.31101  1.0000
  H   H1148     1.0  0.56119  0.72451  0.43450  1.0000
  H   H1149     1.0  0.64649  0.57197  0.32972  1.0000
  H   H1150     1.0  0.41998  0.57901  0.23076  1.0000
  C   C655      1.0  0.61581  0.88849  0.45470  1.0000
  H   H1151     1.0  0.50207  0.77154  0.03420  1.0000
  H   H1152     1.0  0.65031  0.59678  0.29118  1.0000
  H   H1153     1.0  0.42136  0.66740  0.37027  1.0000
  H   H1154     1.0  0.44293  0.66825  0.37717  1.0000
  H   H1155     1.0  0.43351  0.69285  0.34508  1.0000
  H   H1156     1.0  0.53523  0.85832  0.02457  1.0000
  H   H1157     1.0  0.48934  0.58618  0.01543  1.0000
  H   H1158     1.0  0.47106  0.60754  0.22005  1.0000
  H   H1159     1.0  0.39184  0.64472  0.43299  1.0000
  N   N36       1.0  0.53166  0.66621  0.37945  1.0000
  C   C656      1.0  0.51367  0.67083  0.37809  1.0000
  C   C657      1.0  0.53490  0.63604  0.38998  1.0000
  C   C658      1.0  0.53826  0.68422  0.41174  1.0000
  C   C659      1.0  0.54008  0.67406  0.34216  1.0000
  C   C660      1.0  0.53044  0.67022  0.30405  1.0000
  C   C661      1.0  0.50831  0.70189  0.37466  1.0000
  C   C662      1.0  0.55641  0.68053  0.42115  1.0000
  C   C663      1.0  0.52849  0.61338  0.36191  1.0000
  C   C664      1.0  0.53232  0.58393  0.37648  1.0000
  C   C665      1.0  0.54132  0.67347  0.26869  1.0000
  C   C666      1.0  0.49075  0.70435  0.36197  1.0000
  H   H1160     1.0  0.47352  0.54991  0.06316  1.0000
  H   H1161     1.0  0.50787  0.66228  0.40465  1.0000
  H   H1162     1.0  0.50809  0.65885  0.35419  1.0000
  H   H1163     1.0  0.54807  0.63214  0.39194  1.0000
  H   H1164     1.0  0.52981  0.63147  0.41919  1.0000
  H   H1165     1.0  0.53144  0.68029  0.43894  1.0000
  H   H1166     1.0  0.53655  0.70682  0.40512  1.0000
  H   H1167     1.0  0.54378  0.69652  0.34259  1.0000
  H   H1168     1.0  0.55156  0.66218  0.33929  1.0000
  H   H1169     1.0  0.52079  0.68617  0.30176  1.0000
  H   H1170     1.0  0.34419  0.73955  0.47763  1.0000
  H   H1171     1.0  0.42272  0.52461  0.39342  1.0000
  C   C667      1.0  0.60631  0.52841  0.16800  1.0000
  C   C668      1.0  0.50598  0.71025  0.98396  1.0000
  C   C669      1.0  0.64667  0.70327  0.12531  1.0000
  C   C670      1.0  0.33697  0.70186  0.44913  1.0000
  H   H1172     1.0  0.65677  0.64925  0.30043  1.0000
  S   S152      1.0  0.64738  0.88849  0.42993  1.0000
  H   H1173     1.0  0.65142  0.72498  0.12408  1.0000
  H   H1174     1.0  0.44335  0.52875  0.37811  1.0000
  C   C671      1.0  0.65877  0.55438  0.27955  1.0000
  H   H1175     1.0  0.47246  0.68595  0.99366  1.0000
  H   H1176     1.0  0.39274  0.55928  0.22702  1.0000
  H   H1177     1.0  0.66071  0.69330  0.17545  1.0000
  H   H1178     1.0  0.52303  0.81694  0.99390  1.0000
  H   H1179     1.0  0.55534  0.70347  0.47564  1.0000
  H   H1180     1.0  0.46156  0.62706  0.99147  1.0000
  H   H1181     1.0  0.34148  0.68045  0.44272  1.0000
  H   H1182     1.0  0.50987  0.53335  0.46795  1.0000
  H   H1183     1.0  0.42849  0.51516  0.34491  1.0000
  C   C672      1.0  0.64780  0.78323  0.17765  1.0000
  H   H1184     1.0  0.65883  0.79596  0.18266  1.0000
  C   C673      1.0  0.39254  0.63078  0.45749  1.0000
  H   H1185     1.0  0.36683  0.63227  0.46902  1.0000
  C   C674      1.0  0.49239  0.74430  0.47485  1.0000
  C   C675      1.0  0.65671  0.67077  0.28836  1.0000
  H   H1186     1.0  0.63982  0.83096  0.45520  1.0000
  H   H1187     1.0  0.64571  0.97136  0.24681  1.0000
  H   H1188     1.0  0.38158  0.68484  0.48025  1.0000
  C   C676      1.0  0.65524  0.57858  0.30718  1.0000
  C   C677      1.0  0.50849  0.51278  0.48055  1.0000
  H   H1189     1.0  0.53943  0.96561  0.02659  1.0000
  C   C678      1.0  0.40412  0.70605  0.47358  1.0000
  H   H1190     1.0  0.41037  0.68713  0.46241  1.0000
  H   H1191     1.0  0.65276  0.75711  0.22635  1.0000
  H   H1192     1.0  0.48167  0.70385  0.46280  1.0000
  H   H1193     1.0  0.66067  0.74421  0.18153  1.0000
  C   C679      1.0  0.65774  0.52423  0.20240  1.0000
  C   C680      1.0  0.65659  0.68597  0.09680  1.0000
  C   C681      1.0  0.49207  0.71482  0.47411  1.0000
  H   H1194     1.0  0.48216  0.75593  0.46416  1.0000
  C   C682      1.0  0.64943  0.49581  0.25927  1.0000
  S   S153      1.0  0.36330  0.86005  0.79609  1.0000
  H   H1195     1.0  0.36207  0.83973  0.71488  1.0000
  Fe  Fe72      1.0  0.48528  0.89873  0.90940  1.0000
  S   S154      1.0  0.49802  0.85952  0.88890  1.0000
  C   C683      1.0  0.34831  0.55278  0.64932  1.0000
  Fe  Fe73      1.0  0.45187  0.87155  0.89560  1.0000
  S   S155      1.0  0.46247  0.83056  0.87607  1.0000
  S   S156      1.0  0.42491  0.88061  0.90457  1.0000
  Fe  Fe74      1.0  0.48039  0.83477  0.92463  1.0000
  H   H1196     1.0  0.34437  0.54074  0.55538  1.0000
  Fe  Fe75      1.0  0.47961  0.85764  0.84136  1.0000
  S   S157      1.0  0.48285  0.84292  0.77878  1.0000
  C   C684      1.0  0.65799  0.85794  0.53473  1.0000
  S   S158      1.0  0.46809  0.89855  0.85866  1.0000
  Fe  Fe76      1.0  0.55869  0.84951  0.51775  1.0000
  H   H1197     1.0  0.37961  0.73869  0.49281  1.0000
  Fe  Fe77      1.0  0.53541  0.86143  0.58486  1.0000
  S   S159      1.0  0.51389  0.86405  0.54602  1.0000
  S   S160      1.0  0.53567  0.86967  0.64992  1.0000
  Fe  Fe78      1.0  0.52396  0.82619  0.51560  1.0000
  H   H1198     1.0  0.36725  0.88800  0.87167  1.0000
  Fe  Fe79      1.0  0.52975  0.88933  0.50642  1.0000
  C   C685      1.0  0.33389  0.49925  0.54622  1.0000
  S   S161      1.0  0.54433  0.82145  0.55786  1.0000
  S   S162      1.0  0.55092  0.88946  0.54734  1.0000
  H   H1199     1.0  0.38037  0.76025  0.57954  1.0000
  H   H1200     1.0  0.64663  0.84935  0.54694  1.0000
  H   H1201     1.0  0.47873  0.98754  0.54474  1.0000
  C   C686      1.0  0.38980  0.69723  0.49869  1.0000
  C   C687      1.0  0.36810  0.50124  0.57662  1.0000
  Fe  Fe80      1.0  0.33664  0.87291  0.78992  1.0000
  H   H1202     1.0  0.38721  0.76695  0.77826  1.0000
  H   H1203     1.0  0.52923  0.96487  0.52477  1.0000
  H   H1204     1.0  0.45437  0.53125  0.88285  1.0000
  H   H1205     1.0  0.36924  0.72279  0.67183  1.0000
  C   C688      1.0  0.36020  0.82331  0.69259  1.0000
  H   H1206     1.0  0.65571  0.86903  0.60662  1.0000
  C   C689      1.0  0.49536  0.74822  0.94314  1.0000
  H   H1207     1.0  0.33773  0.56100  0.63358  1.0000
  H   H1208     1.0  0.49084  0.75514  0.91564  1.0000
  C   C690      1.0  0.53975  0.73314  0.90336  1.0000
  H   H1209     1.0  0.47096  0.90172  0.56260  1.0000
  H   H1210     1.0  0.39145  0.89513  0.91293  1.0000
  C   C691      1.0  0.35039  0.72598  0.71556  1.0000
  H   H1211     1.0  0.45603  0.88981  0.67901  1.0000
  H   H1212     1.0  0.34170  0.70089  0.52712  1.0000
  C   C692      1.0  0.36708  0.76141  0.58177  1.0000
  H   H1213     1.0  0.47655  0.89494  0.69429  1.0000
  C   C693      1.0  0.49730  0.85209  0.74313  1.0000
  C   C694      1.0  0.49503  0.84249  0.70512  1.0000
  C   C695      1.0  0.50650  0.84807  0.67603  1.0000
  C   C696      1.0  0.52047  0.86314  0.68484  1.0000
  C   C697      1.0  0.52268  0.87299  0.72277  1.0000
  C   C698      1.0  0.51109  0.86773  0.75171  1.0000
  H   H1214     1.0  0.48422  0.83088  0.69813  1.0000
  H   H1215     1.0  0.50464  0.84058  0.64694  1.0000
  H   H1216     1.0  0.53340  0.88488  0.72975  1.0000
  H   H1217     1.0  0.51282  0.87580  0.78055  1.0000
  C   C699      1.0  0.37898  0.60553  0.50942  1.0000
  H   H1218     1.0  0.64907  0.92660  0.55317  1.0000
  C   C700      1.0  0.49591  0.60484  0.94630  1.0000
  H   H1219     1.0  0.37477  0.79244  0.71990  1.0000
  H   H1220     1.0  0.51881  0.92015  0.62625  1.0000
  H   H1221     1.0  0.35703  0.68195  0.50319  1.0000
  H   H1222     1.0  0.55361  0.78375  0.72456  1.0000
  H   H1223     1.0  0.46275  0.90275  0.49441  1.0000
  H   H1224     1.0  0.48410  0.73600  0.55427  1.0000
  C   C701      1.0  0.38029  0.86735  0.82613  1.0000
  C   C702      1.0  0.39564  0.85819  0.81409  1.0000
  C   C703      1.0  0.40942  0.86228  0.83739  1.0000
  C   C704      1.0  0.40804  0.87555  0.87329  1.0000
  C   C705      1.0  0.39269  0.88484  0.88525  1.0000
  C   C706      1.0  0.37892  0.88088  0.86184  1.0000
  H   H1225     1.0  0.39691  0.84782  0.78650  1.0000
  H   H1226     1.0  0.42109  0.85504  0.82768  1.0000
  H   H1227     1.0  0.39871  0.50220  0.54230  1.0000
  H   H1228     1.0  0.55187  0.72566  0.89445  1.0000
  H   H1229     1.0  0.45873  0.68894  0.57306  1.0000
  H   H1230     1.0  0.52259  0.92833  0.57642  1.0000
  H   H1231     1.0  0.46285  0.56217  0.86100  1.0000
  H   H1232     1.0  0.34803  0.82563  0.67975  1.0000
  H   H1233     1.0  0.46127  0.91576  0.61872  1.0000
  H   H1234     1.0  0.47219  0.87364  0.65225  1.0000
  C   C707      1.0  0.52305  0.76147  0.61219  1.0000
  H   H1235     1.0  0.52852  0.58864  0.94291  1.0000
  H   H1236     1.0  0.39028  0.76765  0.84993  1.0000
  H   H1237     1.0  0.37239  0.74644  0.73462  1.0000
  H   H1238     1.0  0.38631  0.95631  0.61359  1.0000
  H   H1239     1.0  0.33667  0.49872  0.64092  1.0000
  H   H1240     1.0  0.53386  0.86869  0.89908  1.0000
  H   H1241     1.0  0.38578  0.66026  0.61297  1.0000
  C   C708      1.0  0.39406  0.59452  0.52015  1.0000
  H   H1242     1.0  0.37111  0.99350  0.58142  1.0000
  C   C709      1.0  0.36058  0.70901  0.68727  1.0000
  C   C710      1.0  0.37315  0.65417  0.60649  1.0000
  H   H1243     1.0  0.46493  0.69700  0.94748  1.0000
  H   H1244     1.0  0.52244  0.60324  0.89706  1.0000
  H   H1245     1.0  0.46334  0.93590  0.54904  1.0000
  H   H1246     1.0  0.62619  0.87721  0.53808  1.0000
  H   H1247     1.0  0.34925  0.79502  0.58542  1.0000
  H   H1248     1.0  0.35829  0.70576  0.59463  1.0000
  C   C711      1.0  0.47255  0.65351  0.94922  1.0000
  H   H1249     1.0  0.36935  0.82658  0.66963  1.0000
  C   C712      1.0  0.50042  0.72014  0.94801  1.0000
  H   H1250     1.0  0.36828  0.80259  0.60813  1.0000
  H   H1251     1.0  0.33032  0.53008  0.59043  1.0000
  H   H1252     1.0  0.49328  0.94994  0.53755  1.0000
  H   H1253     1.0  0.33334  0.77641  0.83798  1.0000
  H   H1254     1.0  0.47875  0.97856  0.63359  1.0000
  H   H1255     1.0  0.54033  0.73312  0.63888  1.0000
  H   H1256     1.0  0.47304  0.77616  0.71518  1.0000
  C   C713      1.0  0.52019  0.97444  0.50670  1.0000
  C   C714      1.0  0.33677  0.75279  0.78367  1.0000
  H   H1257     1.0  0.52351  0.85202  0.83471  1.0000
  H   H1258     1.0  0.53496  0.81832  0.88717  1.0000
  H   H1259     1.0  0.36037  0.77878  0.68658  1.0000
  H   H1260     1.0  0.34146  0.71145  0.72875  1.0000
  H   H1261     1.0  0.34701  0.58752  0.68948  1.0000
  H   H1262     1.0  0.39269  0.51834  0.49769  1.0000
  N   N37       1.0  0.66149  0.88672  0.55083  1.0000
  H   H1263     1.0  0.45851  0.55034  0.94761  1.0000
  H   H1264     1.0  0.54057  0.82783  0.96714  1.0000
  H   H1265     1.0  0.63107  0.88823  0.58643  1.0000
  C   C715      1.0  0.48319  0.69964  0.59126  1.0000
  C   C716      1.0  0.35607  0.57751  0.67029  1.0000
  C   C717      1.0  0.47138  0.68359  0.56558  1.0000
  H   H1266     1.0  0.33852  0.73282  0.79977  1.0000
  S   S163      1.0  0.33091  0.62264  0.60597  1.0000
  H   H1267     1.0  0.33782  0.78759  0.72919  1.0000
  H   H1268     1.0  0.50958  0.97425  0.58326  1.0000
  H   H1269     1.0  0.35706  0.78951  0.81930  1.0000
  C   C718      1.0  0.36036  0.53899  0.62078  1.0000
  H   H1270     1.0  0.50157  0.54558  0.64290  1.0000
  C   C719      1.0  0.51633  0.98056  0.96406  1.0000
  H   H1271     1.0  0.54911  0.76344  0.61593  1.0000
  H   H1272     1.0  0.55268  0.76778  0.84183  1.0000
  C   C720      1.0  0.38016  0.78226  0.79535  1.0000
  H   H1273     1.0  0.36411  0.72302  0.76836  1.0000
  H   H1274     1.0  0.47356  0.68843  0.53467  1.0000
  C   C721      1.0  0.34981  0.78896  0.74328  1.0000
  C   C722      1.0  0.36251  0.79241  0.58290  1.0000
  H   H1275     1.0  0.49548  0.69226  0.58366  1.0000
  Fe  Fe81      1.0  0.33569  0.61194  0.54383  1.0000
  C   C723      1.0  0.49467  0.76669  0.68155  1.0000
  H   H1276     1.0  0.35473  0.66149  0.56456  1.0000
  C   C724      1.0  0.53663  0.95181  0.61670  1.0000
  H   H1277     1.0  0.50344  0.56060  0.94561  1.0000
  H   H1278     1.0  0.52935  0.75469  0.51465  1.0000
  H   H1279     1.0  0.48063  0.69359  0.62150  1.0000
  H   H1280     1.0  0.61713  0.92589  0.52255  1.0000
  N   N38       1.0  0.36544  0.71773  0.53675  1.0000
  H   H1281     1.0  0.39470  0.68384  0.52199  1.0000
  C   C725      1.0  0.36791  0.70083  0.57322  1.0000
  C   C726      1.0  0.38123  0.72301  0.51621  1.0000
  S   S164      1.0  0.58431  0.83338  0.50564  1.0000
  H   H1282     1.0  0.36636  0.57033  0.68816  1.0000
  C   C727      1.0  0.36733  0.66841  0.56962  1.0000
  S   S165      1.0  0.47876  0.53105  0.50806  1.0000
  H   H1283     1.0  0.48416  0.89708  0.49847  1.0000
  H   H1284     1.0  0.49406  0.92874  0.65628  1.0000
  H   H1285     1.0  0.52651  0.56626  0.90143  1.0000
  H   H1286     1.0  0.36037  0.59340  0.64924  1.0000
  H   H1287     1.0  0.37947  0.70685  0.58727  1.0000
  S   S166      1.0  0.36141  0.59487  0.53548  1.0000
  H   H1288     1.0  0.39012  0.73272  0.53606  1.0000
  H   H1289     1.0  0.53583  0.96058  0.64635  1.0000
  H   H1290     1.0  0.46543  0.96198  0.60089  1.0000
  H   H1291     1.0  0.36476  0.52230  0.52025  1.0000
  C   C728      1.0  0.38925  0.78733  0.83310  1.0000
  H   H1292     1.0  0.37471  0.66046  0.54549  1.0000
  H   H1293     1.0  0.34359  0.74182  0.69900  1.0000
  C   C729      1.0  0.35851  0.74590  0.54801  1.0000
  H   H1294     1.0  0.48706  0.72639  0.66223  1.0000
  H   H1295     1.0  0.34404  0.53784  0.67157  1.0000
  H   H1296     1.0  0.55293  0.81685  0.85912  1.0000
  C   C730      1.0  0.61788  0.91812  0.55270  1.0000
  C   C731      1.0  0.50659  0.95859  0.60574  1.0000
  N   N39       1.0  0.49209  0.75023  0.61049  1.0000
  C   C732      1.0  0.49091  0.77974  0.59505  1.0000
  H   H1297     1.0  0.50409  0.61217  0.96980  1.0000
  C   C733      1.0  0.48155  0.73182  0.58536  1.0000
  H   H1298     1.0  0.51144  0.73046  0.57844  1.0000
  H   H1299     1.0  0.36725  0.69227  0.70265  1.0000
  C   C734      1.0  0.47401  0.79350  0.59588  1.0000
  H   H1300     1.0  0.51796  0.50289  0.64689  1.0000
  H   H1301     1.0  0.47307  0.66071  0.56960  1.0000
  C   C735      1.0  0.36079  0.73987  0.74762  1.0000
  S   S167      1.0  0.46709  0.61149  0.50012  1.0000
  C   C736      1.0  0.47470  0.82325  0.57960  1.0000
  H   H1302     1.0  0.41974  0.59297  0.50862  1.0000
  H   H1303     1.0  0.49521  0.78006  0.56473  1.0000
  H   H1304     1.0  0.47735  0.96103  0.97754  1.0000
  H   H1305     1.0  0.53267  0.81994  0.78040  1.0000
  H   H1306     1.0  0.36522  0.65974  0.63117  1.0000
  H   H1307     1.0  0.48381  0.52524  0.63196  1.0000
  H   H1308     1.0  0.46860  0.73685  0.58979  1.0000
  H   H1309     1.0  0.47283  0.75276  0.65255  1.0000
  H   H1310     1.0  0.53859  0.73076  0.93517  1.0000
  C   C737      1.0  0.60143  0.84891  0.48289  1.0000
  C   C738      1.0  0.49717  0.52587  0.62950  1.0000
  H   H1311     1.0  0.46531  0.78156  0.57798  1.0000
  H   H1312     1.0  0.46935  0.79495  0.62586  1.0000
  H   H1313     1.0  0.49235  0.90341  0.61910  1.0000
  H   H1314     1.0  0.35250  0.69908  0.66566  1.0000
  H   H1315     1.0  0.54165  0.73503  0.58669  1.0000
  H   H1316     1.0  0.54656  0.93623  0.61606  1.0000
  H   H1317     1.0  0.50678  0.75797  0.68766  1.0000
  S   S168      1.0  0.50511  0.66262  0.48987  1.0000
  H   H1318     1.0  0.45260  0.67502  0.97791  1.0000
  H   H1319     1.0  0.48445  0.74636  0.73253  1.0000
  C   C739      1.0  0.46749  0.59203  0.93052  1.0000
  H   H1320     1.0  0.50127  0.50195  0.68070  1.0000
  H   H1321     1.0  0.47907  0.82297  0.54923  1.0000
  H   H1322     1.0  0.46248  0.83268  0.58011  1.0000
  H   H1323     1.0  0.48287  0.83665  0.59707  1.0000
  H   H1324     1.0  0.36380  0.55571  0.60004  1.0000
  C   C740      1.0  0.35325  0.70349  0.51100  1.0000
  H   H1325     1.0  0.37270  0.63109  0.60260  1.0000
  N   N40       1.0  0.53245  0.79560  0.83323  1.0000
  C   C741      1.0  0.53951  0.76862  0.84821  1.0000
  C   C742      1.0  0.63054  0.89503  0.55587  1.0000
  C   C743      1.0  0.46971  0.91860  0.64307  1.0000
  C   C744      1.0  0.51425  0.79642  0.83679  1.0000
  C   C745      1.0  0.50508  0.76812  0.83247  1.0000
  C   C746      1.0  0.53749  0.76387  0.89241  1.0000
  N   N41       1.0  0.35428  0.51353  0.59939  1.0000
  C   C747      1.0  0.53265  0.77765  0.76202  1.0000
  C   C748      1.0  0.51859  0.71421  0.50285  1.0000
  C   C749      1.0  0.48686  0.77243  0.83273  1.0000
  H   H1326     1.0  0.51131  0.72228  0.62823  1.0000
  C   C750      1.0  0.53772  0.80005  0.79189  1.0000
  C   C751      1.0  0.47795  0.96979  0.60381  1.0000
  H   H1327     1.0  0.53442  0.75021  0.83294  1.0000
  C   C752      1.0  0.36279  0.77187  0.80336  1.0000
  H   H1328     1.0  0.38298  0.80341  0.85086  1.0000
  C   C753      1.0  0.47432  0.91249  0.50332  1.0000
  C   C754      1.0  0.50576  0.75886  0.48977  1.0000
  H   H1329     1.0  0.51058  0.80472  0.86555  1.0000
  H   H1330     1.0  0.50912  0.81149  0.81562  1.0000
  H   H1331     1.0  0.50787  0.75398  0.85688  1.0000
  H   H1332     1.0  0.50828  0.75687  0.80569  1.0000
  H   H1333     1.0  0.54666  0.77632  0.90834  1.0000
  H   H1334     1.0  0.52545  0.77064  0.90283  1.0000
  C   C755      1.0  0.50472  0.50069  0.64983  1.0000
  C   C756      1.0  0.46861  0.89263  0.66867  1.0000
  H   H1335     1.0  0.53637  0.75632  0.77075  1.0000
  H   H1336     1.0  0.51944  0.77833  0.75781  1.0000
  H   H1337     1.0  0.53612  0.80421  0.71134  1.0000
  H   H1338     1.0  0.55110  0.80226  0.79056  1.0000
  H   H1339     1.0  0.49602  0.78849  0.67156  1.0000
  H   H1340     1.0  0.48063  0.75190  0.83031  1.0000
  H   H1341     1.0  0.48303  0.78251  0.86011  1.0000
  H   H1342     1.0  0.48307  0.78575  0.80820  1.0000
  H   H1343     1.0  0.50688  0.97011  0.63376  1.0000
  C   C757      1.0  0.48534  0.76759  0.71964  1.0000
  H   H1344     1.0  0.37164  0.53411  0.63671  1.0000
  C   C758      1.0  0.54025  0.78363  0.72260  1.0000
  S   S169      1.0  0.46849  0.87408  0.94734  1.0000
  C   C759      1.0  0.51897  0.74370  0.50330  1.0000
  H   H1345     1.0  0.37981  0.80262  0.78004  1.0000
  S   S170      1.0  0.50490  0.79581  0.49292  1.0000
  H   H1346     1.0  0.53853  0.89259  0.86062  1.0000
  H   H1347     1.0  0.49988  0.70588  0.92380  1.0000
  H   H1348     1.0  0.53035  0.71989  0.88962  1.0000
  H   H1349     1.0  0.52073  0.83564  0.94892  1.0000
  C   C760      1.0  0.34072  0.52239  0.57320  1.0000
  C   C761      1.0  0.46539  0.56000  0.92355  1.0000
  C   C762      1.0  0.49592  0.76712  0.97406  1.0000
  H   H1350     1.0  0.45514  0.60007  0.93665  1.0000
  C   C763      1.0  0.50373  0.57914  0.92665  1.0000
  C   C764      1.0  0.52136  0.58480  0.91640  1.0000
  C   C765      1.0  0.45606  0.55421  0.88641  1.0000
  N   N42       1.0  0.47904  0.60091  0.96197  1.0000
  H   H1351     1.0  0.39700  0.98169  0.64242  1.0000
  H   H1352     1.0  0.34901  0.80834  0.76117  1.0000
  H   H1353     1.0  0.52316  0.77579  0.58695  1.0000
  H   H1354     1.0  0.49624  0.62145  0.92399  1.0000
  C   C766      1.0  0.53637  0.84930  0.84214  1.0000
  H   H1355     1.0  0.49164  0.78163  0.74025  1.0000
  H   H1356     1.0  0.53508  0.87704  0.97969  1.0000
  H   H1357     1.0  0.37545  0.97712  0.64834  1.0000
  H   H1358     1.0  0.47106  0.60191  0.90266  1.0000
  H   H1359     1.0  0.52874  0.70260  0.51402  1.0000
  H   H1360     1.0  0.47700  0.54879  0.92155  1.0000
  H   H1361     1.0  0.49907  0.79436  0.61041  1.0000
  H   H1362     1.0  0.36677  0.80319  0.55636  1.0000
  H   H1363     1.0  0.40158  0.79518  0.82669  1.0000
  H   H1364     1.0  0.36346  0.75400  0.82396  1.0000
  C   C767      1.0  0.54101  0.87135  0.87222  1.0000
  H   H1365     1.0  0.49740  0.57429  0.89925  1.0000
  C   C768      1.0  0.53958  0.81919  0.85698  1.0000
  H   H1366     1.0  0.36347  0.75198  0.60980  1.0000
  C   C769      1.0  0.36215  0.79424  0.71014  1.0000
  H   H1367     1.0  0.50054  0.52609  0.59840  1.0000
  C   C770      1.0  0.40828  0.60160  0.49985  1.0000
  H   H1368     1.0  0.44400  0.56424  0.88749  1.0000
  H   H1369     1.0  0.61520  0.81073  0.48547  1.0000
  H   H1370     1.0  0.39482  0.58051  0.54452  1.0000
  H   H1371     1.0  0.53665  0.76712  0.70176  1.0000
  C   C771      1.0  0.49444  0.50620  0.50105  1.0000
  H   H1372     1.0  0.53957  0.96883  0.59601  1.0000
  H   H1373     1.0  0.52705  0.97449  0.94832  1.0000
  N   N43       1.0  0.35275  0.76375  0.76876  1.0000
  H   H1374     1.0  0.55404  0.86992  0.87919  1.0000
  H   H1375     1.0  0.54371  0.85363  0.81594  1.0000
  H   H1376     1.0  0.49867  0.91720  0.55603  1.0000
  N   N44       1.0  0.49001  0.94631  0.59917  1.0000
  H   H1377     1.0  0.46550  0.93673  0.66052  1.0000
  C   C772      1.0  0.48729  0.92376  0.62929  1.0000
  S   S171      1.0  0.50244  0.93453  0.92851  1.0000
  C   C773      1.0  0.48960  0.93405  0.55908  1.0000
  C   C774      1.0  0.47348  0.92101  0.54584  1.0000
  H   H1378     1.0  0.34559  0.74368  0.55662  1.0000
  C   C775      1.0  0.52083  0.93746  0.60557  1.0000
  C   C776      1.0  0.53951  0.74725  0.61355  1.0000
  H   H1379     1.0  0.62086  0.93585  0.57221  1.0000
  C   C777      1.0  0.38551  0.97738  0.62709  1.0000
  C   C778      1.0  0.48597  0.74818  0.65140  1.0000
  C   C779      1.0  0.37428  0.51909  0.54219  1.0000
  H   H1380     1.0  0.46498  0.64787  0.92402  1.0000
  C   C780      1.0  0.50511  0.69965  0.48851  1.0000
  H   H1381     1.0  0.52167  0.77433  0.63856  1.0000
  H   H1382     1.0  0.37868  0.49790  0.59573  1.0000
  H   H1383     1.0  0.36332  0.50003  0.67780  1.0000
  C   C781      1.0  0.50926  0.73969  0.60746  1.0000
  H   H1384     1.0  0.35852  0.76032  0.52281  1.0000
  H   H1385     1.0  0.65405  0.79995  0.53483  1.0000
  H   H1386     1.0  0.41292  0.71847  0.49065  1.0000
  C   C782      1.0  0.50210  0.96471  0.95952  1.0000
  H   H1387     1.0  0.65914  0.90551  0.60776  1.0000
  C   C783      1.0  0.52812  0.83380  0.97545  1.0000
  H   H1388     1.0  0.33137  0.76306  0.61453  1.0000
  C   C784      1.0  0.64726  0.90520  0.54119  1.0000
  C   C785      1.0  0.38850  0.50497  0.52197  1.0000
  H   H1389     1.0  0.48461  0.65987  0.93860  1.0000
  C   C786      1.0  0.51316  0.51095  0.97763  1.0000
  H   H1390     1.0  0.65615  0.85936  0.50297  1.0000
  H   H1391     1.0  0.52239  0.52639  0.97175  1.0000
  H   H1392     1.0  0.37846  0.53986  0.55222  1.0000
  H   H1393     1.0  0.60588  0.90964  0.56097  1.0000
  H   H1394     1.0  0.50685  0.88258  0.97836  1.0000
  S   S172      1.0  0.48972  0.80303  0.96982  1.0000
  H   H1395     1.0  0.64629  0.90801  0.50933  1.0000
  C   C787      1.0  0.46514  0.67937  0.96835  1.0000
  C   C788      1.0  0.47374  0.62884  0.97829  1.0000
  C   C789      1.0  0.48843  0.97281  0.98055  1.0000
  H   H1396     1.0  0.47657  0.93109  0.48481  1.0000
  C   C790      1.0  0.47954  0.99470  0.57514  1.0000
  H   H1397     1.0  0.70398  0.13038  0.33630  1.0000
  S   S173      1.0  0.96799  0.09299  0.06158  1.0000
  H   H1398     1.0  0.99616  0.16183  0.33534  1.0000
  H   H1399     1.0  0.72339  0.21028  0.31713  1.0000
  S   S174      1.0  0.96363  0.16015  0.03952  1.0000
  C   C791      1.0  0.78186  0.31762  0.46538  1.0000
  Fe  Fe82      1.0  0.98093  0.13353  0.07382  1.0000
  H   H1400     1.0  0.97353  0.17788  0.20681  1.0000
  Fe  Fe83      1.0  0.95159  0.11915  0.02322  1.0000
  C   C792      1.0  0.75037  0.04244  0.03351  1.0000
  Fe  Fe84      1.0  0.70257  0.11443  0.14215  1.0000
  S   S175      1.0  0.71091  0.10422  0.20257  1.0000
  S   S176      1.0  0.71775  0.11855  0.08592  1.0000
  H   H1401     1.0  0.96030  0.01867  0.14158  1.0000
  H   H1402     1.0  0.98723  0.00443  0.11923  1.0000
  Fe  Fe85      1.0  0.69607  0.14171  0.22120  1.0000
  S   S177      1.0  0.70769  0.17114  0.26604  1.0000
  Fe  Fe86      1.0  0.68807  0.07858  0.20874  1.0000
  S   S178      1.0  0.68065  0.03877  0.24235  1.0000
  S   S179      1.0  0.68861  0.15284  0.16085  1.0000
  S   S180      1.0  0.68049  0.08622  0.14684  1.0000
  C   C793      1.0  0.70627  0.00441  0.26588  1.0000
  S   S181      1.0  0.67409  0.36499  0.36228  1.0000
  Fe  Fe87      1.0  0.71244  0.36743  0.42735  1.0000
  S   S182      1.0  0.71364  0.36166  0.36214  1.0000
  H   H1403     1.0  0.73952  0.04390  0.09052  1.0000
  Fe  Fe88      1.0  0.69473  0.39570  0.35813  1.0000
  S   S183      1.0  0.69382  0.42719  0.30736  1.0000
  Fe  Fe89      1.0  0.69292  0.33110  0.36944  1.0000
  S   S184      1.0  0.68679  0.29202  0.33227  1.0000
  S   S185      1.0  0.69470  0.40317  0.42213  1.0000
  S   S186      1.0  0.69282  0.33483  0.43490  1.0000
  H   H1404     1.0  0.95103  0.24972  0.41848  1.0000
  H   H1405     1.0  0.67166  0.25357  0.27949  1.0000
  C   C794      1.0  0.67506  0.15369  0.33057  1.0000
  C   C795      1.0  0.69615  0.46404  0.29913  1.0000
  H   H1406     1.0  0.77757  0.10974  0.08540  1.0000
  H   H1407     1.0  0.82694  0.34453  0.46672  1.0000
  C   C796      1.0  0.75142  0.03910  0.07730  1.0000
  H   H1408     1.0  0.97741  0.08313  0.22974  1.0000
  H   H1409     1.0  0.96509  0.20709  0.39833  1.0000
  Fe  Fe90      1.0  0.97975  0.15210  0.98840  1.0000
  C   C797      1.0  0.70186  0.20513  0.28309  1.0000
  C   C798      1.0  0.68731  0.21773  0.27252  1.0000
  C   C799      1.0  0.68302  0.24424  0.28768  1.0000
  C   C800      1.0  0.69319  0.25876  0.31349  1.0000
  C   C801      1.0  0.70785  0.24628  0.32365  1.0000
  C   C802      1.0  0.71210  0.21968  0.30865  1.0000
  H   H1410     1.0  0.67924  0.20695  0.25300  1.0000
  H   H1411     1.0  0.71424  0.01872  0.25096  1.0000
  H   H1412     1.0  0.71584  0.25704  0.34338  1.0000
  H   H1413     1.0  0.84530  0.40239  0.44491  1.0000
  C   C803      1.0  0.76867  0.11849  0.02829  1.0000
  C   C804      1.0  0.75469  0.12377  0.00687  1.0000
  C   C805      1.0  0.73935  0.12371  0.02499  1.0000
  C   C806      1.0  0.73761  0.11868  0.06491  1.0000
  C   C807      1.0  0.75160  0.11393  0.08648  1.0000
  C   C808      1.0  0.76694  0.11382  0.06831  1.0000
  H   H1414     1.0  0.73079  0.06669  0.25120  1.0000
  H   H1415     1.0  0.72870  0.12763  0.00786  1.0000
  H   H1416     1.0  0.75060  0.10986  0.11707  1.0000
  H   H1417     1.0  0.74743  0.08871  0.26545  1.0000
  C   C809      1.0  0.97082  0.16070  0.34699  1.0000
  H   H1418     1.0  0.74331  0.05680  0.29148  1.0000
  C   C810      1.0  0.98386  0.22693  0.36338  1.0000
  C   C811      1.0  0.85170  0.38346  0.45537  1.0000
  H   H1419     1.0  0.70554  0.06628  0.29101  1.0000
  C   C812      1.0  0.76715  0.03892  0.01414  1.0000
  H   H1420     1.0  0.69913  0.47601  0.35853  1.0000
  N   N45       1.0  0.70104  0.08571  0.34649  1.0000
  S   S187      1.0  0.67403  0.11546  0.23111  1.0000
  S   S188      1.0  0.92411  0.11351  0.02878  1.0000
  H   H1421     1.0  0.86633  0.11257  0.99514  1.0000
  C   C813      1.0  0.98474  0.11139  0.18435  1.0000
  H   H1422     1.0  0.98839  0.10522  0.47701  1.0000
  C   C814      1.0  0.87845  0.11461  0.98390  1.0000
  H   H1423     1.0  0.99112  0.17626  0.38063  1.0000
  H   H1424     1.0  0.68255  0.21277  0.14454  1.0000
  H   H1425     1.0  0.95283  0.46841  0.40902  1.0000
  C   C815      1.0  0.97047  0.13428  0.37169  1.0000
  H   H1426     1.0  0.67786  0.07435  0.37161  1.0000
  H   H1427     1.0  0.69826  0.02395  0.34596  1.0000
  H   H1428     1.0  0.99398  0.06752  0.12679  1.0000
  H   H1429     1.0  0.79997  0.02109  0.00535  1.0000
  S   S189      1.0  0.73389  0.37807  0.46813  1.0000
  H   H1430     1.0  0.99340  0.20100  0.24814  1.0000
  H   H1431     1.0  0.82023  0.37958  0.46756  1.0000
  H   H1432     1.0  0.72242  0.11001  0.28838  1.0000
  H   H1433     1.0  0.79004  0.30294  0.45006  1.0000
  C   C816      1.0  0.67813  0.12340  0.34266  1.0000
  H   H1434     1.0  0.66878  0.11015  0.32864  1.0000
  H   H1435     1.0  0.74157  0.02687  0.02250  1.0000
  H   H1436     1.0  0.75478  0.01731  0.08496  1.0000
  H   H1437     1.0  0.69631  0.12203  0.41444  1.0000
  H   H1438     1.0  0.67565  0.15578  0.29871  1.0000
  H   H1439     1.0  0.69873  0.03755  0.39443  1.0000
  H   H1440     1.0  0.68408  0.16799  0.34379  1.0000
  H   H1441     1.0  0.96845  0.15415  0.31678  1.0000
  H   H1442     1.0  0.70376  0.10813  0.48009  1.0000
  H   H1443     1.0  0.73427  0.09795  0.32837  1.0000
  H   H1444     1.0  0.96643  0.05486  0.14268  1.0000
  H   H1445     1.0  0.99166  0.22482  0.38931  1.0000
  H   H1446     1.0  0.67434  0.49055  0.12187  1.0000
  H   H1447     1.0  0.98083  0.05916  0.42437  1.0000
  H   H1448     1.0  0.97118  0.48262  0.42851  1.0000
  H   H1449     1.0  0.96407  0.27103  0.38892  1.0000
  H   H1450     1.0  0.72153  0.11450  0.45137  1.0000
  H   H1451     1.0  0.95982  0.05368  0.43491  1.0000
  H   H1452     1.0  0.66399  0.44229  0.26759  1.0000
  H   H1453     1.0  0.76511  0.19965  0.05556  1.0000
  C   C817      1.0  0.69516  0.11329  0.33013  1.0000
  C   C818      1.0  0.97613  0.22815  0.08827  1.0000
  H   H1454     1.0  0.97561  0.10427  0.16434  1.0000
  C   C819      1.0  0.96927  0.18976  0.23249  1.0000
  H   H1455     1.0  0.71713  0.07123  0.39139  1.0000
  H   H1456     1.0  0.97148  0.23324  0.05909  1.0000
  C   C820      1.0  0.69850  0.48336  0.32906  1.0000
  H   H1457     1.0  0.67629  0.12214  0.37419  1.0000
  Fe  Fe91      1.0  0.67524  0.37025  0.42657  1.0000
  H   H1458     1.0  0.95829  0.12462  0.37047  1.0000
  C   C821      1.0  0.98576  0.09951  0.22149  1.0000
  H   H1459     1.0  0.95861  0.17868  0.24458  1.0000
  H   H1460     1.0  0.96782  0.21269  0.10175  1.0000
  N   N46       1.0  0.73311  0.20455  0.14820  1.0000
  C   C822      1.0  0.73239  0.18069  0.17663  1.0000
  C   C823      1.0  0.71616  0.21325  0.13785  1.0000
  C   C824      1.0  0.74096  0.19337  0.11186  1.0000
  C   C825      1.0  0.74270  0.22931  0.16304  1.0000
  C   C826      1.0  0.74247  0.23460  0.20744  1.0000
  C   C827      1.0  0.74881  0.16654  0.18565  1.0000
  C   C828      1.0  0.74168  0.21375  0.07704  1.0000
  C   C829      1.0  0.70548  0.22459  0.17110  1.0000
  C   C830      1.0  0.68852  0.23156  0.15693  1.0000
  C   C831      1.0  0.74902  0.26365  0.21736  1.0000
  C   C832      1.0  0.74866  0.15193  0.22486  1.0000
  C   C833      1.0  0.75256  0.20231  0.04505  1.0000
  H   H1461     1.0  0.72419  0.16391  0.16583  1.0000
  H   H1462     1.0  0.72692  0.18749  0.20417  1.0000
  H   H1463     1.0  0.71637  0.23030  0.11608  1.0000
  H   H1464     1.0  0.70968  0.19538  0.12400  1.0000
  H   H1465     1.0  0.73462  0.17403  0.10189  1.0000
  H   H1466     1.0  0.75360  0.18692  0.11768  1.0000
  H   H1467     1.0  0.75567  0.22726  0.15506  1.0000
  H   H1468     1.0  0.73867  0.24885  0.14846  1.0000
  H   H1469     1.0  0.75015  0.21905  0.22238  1.0000
  H   H1470     1.0  0.73028  0.23287  0.22025  1.0000
  H   H1471     1.0  0.75146  0.15056  0.16317  1.0000
  H   H1472     1.0  0.75887  0.18186  0.18552  1.0000
  H   H1473     1.0  0.74637  0.23458  0.08578  1.0000
  H   H1474     1.0  0.72950  0.21641  0.06433  1.0000
  H   H1475     1.0  0.70422  0.20915  0.19472  1.0000
  H   H1476     1.0  0.71058  0.24438  0.18259  1.0000
  H   H1477     1.0  0.97604  0.27529  0.99562  1.0000
  H   H1478     1.0  0.71524  0.07894  0.46189  1.0000
  H   H1479     1.0  0.68896  0.24829  0.13471  1.0000
  H   H1480     1.0  0.74122  0.28017  0.20479  1.0000
  H   H1481     1.0  0.74913  0.26645  0.24920  1.0000
  H   H1482     1.0  0.76152  0.26618  0.20634  1.0000
  H   H1483     1.0  0.74671  0.16738  0.24843  1.0000
  H   H1484     1.0  0.73894  0.13601  0.22605  1.0000
  H   H1485     1.0  0.76037  0.14133  0.22967  1.0000
  H   H1486     1.0  0.77458  0.05750  0.02244  1.0000
  C   C834      1.0  0.71096  0.10043  0.45518  1.0000
  C   C835      1.0  0.98737  0.17601  0.34983  1.0000
  H   H1487     1.0  0.68111  0.23912  0.18158  1.0000
  H   H1488     1.0  0.69006  0.08642  0.42475  1.0000
  C   C836      1.0  0.69544  0.47423  0.26097  1.0000
  H   H1489     1.0  0.69378  0.45956  0.23748  1.0000
  H   H1490     1.0  0.97334  0.13926  0.40226  1.0000
  C   C837      1.0  0.68963  0.00919  0.26565  1.0000
  H   H1491     1.0  0.88978  0.10977  0.03963  1.0000
  C   C838      1.0  0.70052  0.10025  0.41887  1.0000
  N   N47       1.0  0.98829  0.20528  0.33329  1.0000
  C   C839      1.0  0.96858  0.03432  0.12849  1.0000
  C   C840      1.0  0.90774  0.11587  0.99535  1.0000
  C   C841      1.0  0.69143  0.03617  0.36776  1.0000
  S   S190      1.0  0.78846  0.11656  0.00686  1.0000
  H   H1492     1.0  0.96495  0.20406  0.30489  1.0000
  H   H1493     1.0  0.74797  0.18180  0.03464  1.0000
  C   C842      1.0  0.71033  0.09043  0.38335  1.0000
  C   C843      1.0  0.97772  0.20892  0.29825  1.0000
  H   H1494     1.0  0.76047  0.05380  0.08951  1.0000
  H   H1495     1.0  0.97200  0.22408  0.98658  1.0000
  H   H1496     1.0  0.99210  0.19615  0.06819  1.0000
  C   C844      1.0  0.98275  0.19133  0.26239  1.0000
  C   C845      1.0  0.73770  0.07477  0.27629  1.0000
  H   H1497     1.0  0.66973  0.02923  0.40220  1.0000
  C   C846      1.0  0.98602  0.02498  0.13400  1.0000
  C   C847      1.0  0.67622  0.01945  0.37759  1.0000
  C   C848      1.0  0.99302  0.21560  0.08553  1.0000
  C   C849      1.0  0.89181  0.11308  0.00912  1.0000
  H   H1498     1.0  0.96757  0.08884  0.43076  1.0000
  Fe  Fe92      1.0  0.98384  0.08930  0.00894  1.0000
  C   C850      1.0  0.71235  0.07260  0.31737  1.0000
  C   C851      1.0  0.72672  0.09109  0.30377  1.0000
  H   H1499     1.0  0.96570  0.21108  0.22307  1.0000
  H   H1500     1.0  0.71770  0.05301  0.32900  1.0000
  H   H1501     1.0  0.68077  0.06249  0.32388  1.0000
  H   H1502     1.0  0.71975  0.10672  0.37903  1.0000
  C   C852      1.0  0.96654  0.22593  0.37991  1.0000
  C   C853      1.0  0.68712  0.06562  0.35193  1.0000
  H   H1503     1.0  0.97762  0.23131  0.28916  1.0000
  H   H1504     1.0  0.79707  0.35318  0.45428  1.0000
  H   H1505     1.0  0.77225  0.32431  0.44511  1.0000
  H   H1506     1.0  0.95729  0.22591  0.35692  1.0000
  H   H1507     1.0  0.96572  0.03593  0.09727  1.0000
  H   H1508     1.0  0.96064  0.17399  0.35615  1.0000
  H   H1509     1.0  0.69460  0.11224  0.29806  1.0000
  C   C854      1.0  0.79116  0.34331  0.47958  1.0000
  H   H1510     1.0  0.74558  0.06372  0.02796  1.0000
  C   C855      1.0  0.97037  0.06736  0.44090  1.0000
  H   H1511     1.0  0.75274  0.21708  0.02033  1.0000
  H   H1512     1.0  0.98808  0.02207  0.16537  1.0000
  Fe  Fe93      1.0  0.66726  0.12397  0.16942  1.0000
  H   H1513     1.0  0.85142  0.36704  0.43262  1.0000
  H   H1514     1.0  0.98436  0.01378  0.03866  1.0000
  H   H1515     1.0  0.86447  0.38917  0.46097  1.0000
  H   H1516     1.0  0.97216  0.25224  0.42981  1.0000
  C   C856      1.0  0.96331  0.25131  0.40579  1.0000
  H   H1517     1.0  0.97925  0.11882  0.36036  1.0000
  H   H1518     1.0  0.77294  0.02066  0.02832  1.0000
  H   H1519     1.0  0.66803  0.01836  0.35233  1.0000
  H   H1520     1.0  0.98607  0.24837  0.35175  1.0000
  C   C857      1.0  0.99462  0.00380  0.02519  1.0000
  H   H1521     1.0  0.98606  0.16966  0.27057  1.0000
  H   H1522     1.0  0.97622  0.24742  0.10627  1.0000
  H   H1523     1.0  0.97197  0.45752  0.38941  1.0000
  H   H1524     1.0  0.66606  0.02550  0.12204  1.0000
  H   H1525     1.0  0.66536  0.48154  0.18847  1.0000
  C   C858      1.0  0.96520  0.47555  0.40155  1.0000
  C   C859      1.0  0.99523  0.13295  0.17362  1.0000
  H   H1526     1.0  0.98666  0.49073  0.34498  1.0000
  S   S191      1.0  0.99414  0.14930  0.12772  1.0000
  H   H1527     1.0  0.95771  0.49165  0.34698  1.0000
  H   H1528     1.0  0.67959  0.99774  0.38577  1.0000
  H   H1529     1.0  0.72443  0.35926  0.57657  1.0000
  H   H1530     1.0  0.82464  0.30064  0.55524  1.0000
  Fe  Fe94      1.0  0.81658  0.33631  0.72737  1.0000
  S   S192      1.0  0.82029  0.32697  0.66394  1.0000
  S   S193      1.0  0.81936  0.30740  0.78061  1.0000
  Fe  Fe95      1.0  0.81039  0.39927  0.71233  1.0000
  S   S194      1.0  0.81342  0.39360  0.64809  1.0000
  S   S195      1.0  0.80233  0.44268  0.73446  1.0000
  Fe  Fe96      1.0  0.79846  0.35458  0.65320  1.0000
  S   S196      1.0  0.77907  0.33903  0.60977  1.0000
  Fe  Fe97      1.0  0.83502  0.36684  0.66231  1.0000
  S   S197      1.0  0.85717  0.37872  0.62568  1.0000
  S   S198      1.0  0.79395  0.36151  0.71703  1.0000
  S   S199      1.0  0.83277  0.37483  0.72625  1.0000
  Fe  Fe98      1.0  0.83679  0.11727  0.91299  1.0000
  S   S200      1.0  0.82696  0.11138  0.85274  1.0000
  S   S201      1.0  0.86451  0.12134  0.91081  1.0000
  Fe  Fe99      1.0  0.80202  0.11805  0.94789  1.0000
  S   S202      1.0  0.79077  0.11321  0.88916  1.0000
  H   H1531     1.0  0.98712  0.34418  0.88847  1.0000
  Fe  Fe100     1.0  0.80965  0.08008  0.87768  1.0000
  S   S203      1.0  0.80162  0.03599  0.85750  1.0000
  Fe  Fe101     1.0  0.80915  0.14521  0.86845  1.0000
  S   S204      1.0  0.80393  0.17832  0.82137  1.0000
  S   S205      1.0  0.82044  0.08380  0.93721  1.0000
  S   S206      1.0  0.81941  0.15210  0.92790  1.0000
  Fe  Fe102     1.0  0.97651  0.39310  0.54488  1.0000
  S   S207      1.0  0.96549  0.35558  0.51424  1.0000
  H   H1532     1.0  0.92110  0.32602  0.69880  1.0000
  Fe  Fe103     1.0  0.98126  0.35923  0.62087  1.0000
  S   S208      1.0  0.97126  0.31970  0.59453  1.0000
  S   S209      1.0  0.98246  0.36630  0.68636  1.0000
  H   H1533     1.0  0.96080  0.14979  0.58793  1.0000
  H   H1534     1.0  0.92778  0.39675  0.61733  1.0000
  Fe  Fe104     1.0  0.95170  0.34701  0.56955  1.0000
  S   S210      1.0  0.92626  0.32881  0.57929  1.0000
  S   S211      1.0  0.96120  0.38575  0.59777  1.0000
  H   H1535     1.0  0.71094  0.33440  0.51380  1.0000
  C   C860      1.0  0.80904  0.46805  0.76915  1.0000
  C   C861      1.0  0.82261  0.46391  0.79236  1.0000
  H   H1536     1.0  0.85331  0.00308  0.81434  1.0000
  H   H1537     1.0  0.95491  0.16644  0.54354  1.0000
  H   H1538     1.0  0.91084  0.41420  0.63921  1.0000
  H   H1539     1.0  0.97944  0.46506  0.67415  1.0000
  H   H1540     1.0  0.82980  0.44526  0.78850  1.0000
  Fe  Fe105     1.0  0.98568  0.33030  0.54120  1.0000
  H   H1541     1.0  0.84538  0.31626  0.60427  1.0000
  C   C862      1.0  0.98256  0.31466  0.84171  1.0000
  C   C863      1.0  0.81466  0.27153  0.79132  1.0000
  C   C864      1.0  0.80933  0.25257  0.76322  1.0000
  C   C865      1.0  0.80614  0.22432  0.77306  1.0000
  C   C866      1.0  0.80816  0.21443  0.81106  1.0000
  C   C867      1.0  0.81329  0.23350  0.83929  1.0000
  C   C868      1.0  0.81663  0.26170  0.82940  1.0000
  H   H1542     1.0  0.80770  0.25962  0.73384  1.0000
  H   H1543     1.0  0.80203  0.20998  0.75095  1.0000
  H   H1544     1.0  0.81453  0.22659  0.86879  1.0000
  H   H1545     1.0  0.82064  0.27609  0.85154  1.0000
  C   C869      1.0  0.87668  0.36488  0.61545  1.0000
  C   C870      1.0  0.88714  0.38042  0.59160  1.0000
  C   C871      1.0  0.90246  0.37006  0.58112  1.0000
  C   C872      1.0  0.90760  0.34392  0.59436  1.0000
  C   C873      1.0  0.89718  0.32839  0.61840  1.0000
  C   C874      1.0  0.88188  0.33888  0.62920  1.0000
  H   H1546     1.0  0.88325  0.40049  0.58059  1.0000
  H   H1547     1.0  0.91013  0.38200  0.56189  1.0000
  H   H1548     1.0  0.90089  0.30795  0.62838  1.0000
  H   H1549     1.0  0.87397  0.32656  0.64736  1.0000
  C   C875      1.0  0.76600  0.35080  0.57176  1.0000
  C   C876      1.0  0.76497  0.37889  0.56035  1.0000
  C   C877      1.0  0.75508  0.38670  0.52886  1.0000
  C   C878      1.0  0.74584  0.36676  0.50844  1.0000
  C   C879      1.0  0.74665  0.33876  0.52030  1.0000
  C   C880      1.0  0.75660  0.33093  0.55166  1.0000
  H   H1550     1.0  0.77187  0.39463  0.57559  1.0000
  H   H1551     1.0  0.71089  0.37933  0.52754  1.0000
  H   H1552     1.0  0.75722  0.30915  0.56002  1.0000
  H   H1553     1.0  0.95710  0.31680  0.68129  1.0000
  H   H1554     1.0  0.98266  0.29008  0.77596  1.0000
  H   H1555     1.0  0.98242  0.37743  0.76746  1.0000
  H   H1556     1.0  0.86427  0.25974  0.72979  1.0000
  N   N48       1.0  0.69082  0.36793  0.56446  1.0000
  C   C881      1.0  0.84839  0.31289  0.57340  1.0000
  H   H1557     1.0  0.92900  0.43208  0.69136  1.0000
  H   H1558     1.0  0.94043  0.30774  0.65007  1.0000
  C   C882      1.0  0.85626  0.04930  0.86235  1.0000
  C   C883      1.0  0.71176  0.43322  0.52000  1.0000
  C   C884      1.0  0.85029  0.01968  0.87096  1.0000
  C   C885      1.0  0.76413  0.34299  0.90094  1.0000
  H   H1559     1.0  0.94369  0.46939  0.89482  1.0000
  C   C886      1.0  0.88083  0.11882  0.94433  1.0000
  H   H1560     1.0  0.97598  0.04542  0.49284  1.0000
  C   C887      1.0  0.93691  0.38871  0.73908  1.0000
  H   H1561     1.0  0.98192  0.33122  0.81927  1.0000
  C   C888      1.0  0.78933  0.47521  0.90909  1.0000
  H   H1562     1.0  0.85028  0.06434  0.88219  1.0000
  H   H1563     1.0  0.94574  0.41420  0.67149  1.0000
  H   H1564     1.0  0.97763  0.05939  0.60127  1.0000
  N   N49       1.0  0.92870  0.38693  0.70006  1.0000
  C   C889      1.0  0.69840  0.38600  0.53366  1.0000
  C   C890      1.0  0.70456  0.32308  0.53719  1.0000
  H   H1565     1.0  0.96735  0.20895  0.84091  1.0000
  N   N50       1.0  0.79252  0.40155  0.85897  1.0000
  C   C891      1.0  0.78866  0.42407  0.88828  1.0000
  C   C892      1.0  0.78636  0.37334  0.87245  1.0000
  C   C893      1.0  0.81068  0.39985  0.85574  1.0000
  C   C894      1.0  0.78599  0.40851  0.81957  1.0000
  C   C895      1.0  0.76760  0.41303  0.81636  1.0000
  C   C896      1.0  0.79493  0.45399  0.87887  1.0000
  C   C897      1.0  0.81750  0.37527  0.83121  1.0000
  C   C898      1.0  0.77039  0.37290  0.89593  1.0000
  H   H1566     1.0  0.85128  0.35474  0.50265  1.0000
  C   C899      1.0  0.76316  0.42454  0.77663  1.0000
  C   C900      1.0  0.91011  0.12007  0.95576  1.0000
  C   C901      1.0  0.83592  0.37562  0.83114  1.0000
  H   H1567     1.0  0.79369  0.41811  0.91692  1.0000
  H   H1568     1.0  0.77550  0.42600  0.89299  1.0000
  H   H1569     1.0  0.78504  0.35883  0.84736  1.0000
  H   H1570     1.0  0.79534  0.36321  0.89183  1.0000
  H   H1571     1.0  0.81615  0.39837  0.88504  1.0000
  H   H1572     1.0  0.81564  0.41925  0.84257  1.0000
  H   H1573     1.0  0.79211  0.42735  0.80806  1.0000
  H   H1574     1.0  0.78890  0.39167  0.79853  1.0000
  H   H1575     1.0  0.76307  0.42813  0.83808  1.0000
  H   H1576     1.0  0.76126  0.39269  0.81964  1.0000
  H   H1577     1.0  0.80829  0.45463  0.87873  1.0000
  H   H1578     1.0  0.79045  0.46131  0.85050  1.0000
  H   H1579     1.0  0.81353  0.37679  0.80078  1.0000
  H   H1580     1.0  0.81362  0.35462  0.84260  1.0000
  H   H1581     1.0  0.77250  0.38172  0.92521  1.0000
  H   H1582     1.0  0.76076  0.38533  0.88221  1.0000
  H   H1583     1.0  0.97184  0.04487  0.55559  1.0000
  H   H1584     1.0  0.81443  0.45134  0.56695  1.0000
  H   H1585     1.0  0.67476  0.40058  0.58480  1.0000
  H   H1586     1.0  0.76750  0.41035  0.75338  1.0000
  H   H1587     1.0  0.74987  0.42649  0.77425  1.0000
  H   H1588     1.0  0.76860  0.44561  0.77234  1.0000
  S   S212      1.0  0.96678  0.11269  0.96985  1.0000
  H   H1589     1.0  0.99279  0.26998  0.67608  1.0000
  C   C902      1.0  0.83982  0.21605  0.93978  1.0000
  H   H1590     1.0  0.84064  0.37357  0.86097  1.0000
  H   H1591     1.0  0.84047  0.35772  0.81375  1.0000
  H   H1592     1.0  0.84050  0.39534  0.81810  1.0000
  C   C903      1.0  0.80708  0.38324  0.53404  1.0000
  C   C904      1.0  0.92876  0.44131  0.61507  1.0000
  H   H1593     1.0  0.92778  0.43017  0.75796  1.0000
  C   C905      1.0  0.97936  0.44588  0.65597  1.0000
  N   N51       1.0  0.86246  0.20261  0.84200  1.0000
  C   C906      1.0  0.85639  0.22667  0.81795  1.0000
  C   C907      1.0  0.85112  0.19863  0.87572  1.0000
  C   C908      1.0  0.87932  0.20930  0.85543  1.0000
  C   C909      1.0  0.86298  0.17575  0.81899  1.0000
  C   C910      1.0  0.84733  0.16786  0.79715  1.0000
  C   C911      1.0  0.86560  0.23234  0.77975  1.0000
  C   C912      1.0  0.88664  0.18846  0.88493  1.0000
  C   C913      1.0  0.85061  0.22308  0.90538  1.0000
  C   C914      1.0  0.82620  0.36338  0.48566  1.0000
  C   C915      1.0  0.84955  0.14089  0.77394  1.0000
  C   C916      1.0  0.85725  0.25525  0.75640  1.0000
  H   H1594     1.0  0.83298  0.99941  0.74619  1.0000
  H   H1595     1.0  0.85689  0.24656  0.83462  1.0000
  H   H1596     1.0  0.84343  0.22374  0.81100  1.0000
  H   H1597     1.0  0.83856  0.19560  0.86534  1.0000
  H   H1598     1.0  0.85391  0.17891  0.89143  1.0000
  H   H1599     1.0  0.87993  0.23078  0.86787  1.0000
  H   H1600     1.0  0.88774  0.20974  0.83041  1.0000
  H   H1601     1.0  0.87307  0.17612  0.79777  1.0000
  H   H1602     1.0  0.86564  0.15773  0.83831  1.0000
  H   H1603     1.0  0.84359  0.18436  0.77658  1.0000
  H   H1604     1.0  0.83739  0.16441  0.81790  1.0000
  H   H1605     1.0  0.87807  0.23951  0.78584  1.0000
  H   H1606     1.0  0.86621  0.21340  0.76128  1.0000
  H   H1607     1.0  0.88765  0.16727  0.87205  1.0000
  H   H1608     1.0  0.87921  0.18687  0.91149  1.0000
  H   H1609     1.0  0.71107  0.45605  0.52584  1.0000
  H   H1610     1.0  0.84573  0.24233  0.89192  1.0000
  H   H1611     1.0  0.86273  0.22780  0.91708  1.0000
  C   C917      1.0  0.79996  0.49269  0.77460  1.0000
  C   C918      1.0  0.66319  0.36150  0.59897  1.0000
  H   H1612     1.0  0.85339  0.12346  0.79302  1.0000
  H   H1613     1.0  0.83792  0.13499  0.76027  1.0000
  H   H1614     1.0  0.85870  0.14394  0.75088  1.0000
  C   C919      1.0  0.98901  0.08527  0.49350  1.0000
  H   H1615     1.0  0.96988  0.13142  0.50555  1.0000
  H   H1616     1.0  0.97732  0.00801  0.60367  1.0000
  H   H1617     1.0  0.85331  0.05532  0.83223  1.0000
  C   C920      1.0  0.75907  0.06055  0.95355  1.0000
  H   H1618     1.0  0.84422  0.19695  0.95468  1.0000
  H   H1619     1.0  0.78542  0.03216  0.92630  1.0000
  C   C921      1.0  0.75821  0.00864  0.96048  1.0000
  C   C922      1.0  0.83358  0.31722  0.54803  1.0000
  H   H1620     1.0  0.74033  0.36994  0.63422  1.0000
  C   C923      1.0  0.89677  0.12140  0.93051  1.0000
  C   C924      1.0  0.75714  0.06102  0.90916  1.0000
  C   C925      1.0  0.74908  0.08817  0.89604  1.0000
  H   H1621     1.0  0.68672  0.42707  0.53382  1.0000
  H   H1622     1.0  0.87623  0.41829  0.73404  1.0000
  C   C926      1.0  0.95822  0.14610  0.55688  1.0000
  C   C927      1.0  0.69850  0.41794  0.54234  1.0000
  H   H1623     1.0  0.82379  0.41699  0.51828  1.0000
  H   H1624     1.0  0.79665  0.32923  0.53746  1.0000
  H   H1625     1.0  0.68071  0.33852  0.52357  1.0000
  C   C928      1.0  0.94880  0.47715  0.92244  1.0000
  H   H1626     1.0  0.80956  0.31583  0.50101  1.0000
  H   H1627     1.0  0.96297  0.07550  0.49879  1.0000
  C   C929      1.0  0.78456  0.03486  0.95786  1.0000
  C   C930      1.0  0.81915  0.01618  0.79383  1.0000
  H   H1628     1.0  0.74506  0.01306  0.95808  1.0000
  H   H1629     1.0  0.97771  0.31177  0.90342  1.0000
  C   C931      1.0  0.79536  0.01254  0.97761  1.0000
  C   C932      1.0  0.99320  0.21888  0.95157  1.0000
  H   H1630     1.0  0.94253  0.46689  0.94702  1.0000
  H   H1631     1.0  0.76895  0.05947  0.89428  1.0000
  H   H1632     1.0  0.74919  0.04368  0.89960  1.0000
  H   H1633     1.0  0.75604  0.10673  0.90589  1.0000
  H   H1634     1.0  0.74848  0.08863  0.86403  1.0000
  H   H1635     1.0  0.73663  0.08959  0.90774  1.0000
  H   H1636     1.0  0.91176  0.19835  0.87191  1.0000
  H   H1637     1.0  0.77607  0.30657  0.48997  1.0000
  H   H1638     1.0  0.68318  0.32476  0.57102  1.0000
  H   H1639     1.0  0.94780  0.13160  0.55413  1.0000
  C   C933      1.0  0.85818  0.99783  0.84343  1.0000
  C   C934      1.0  0.90353  0.19756  0.89721  1.0000
  H   H1640     1.0  0.66967  0.35563  0.62574  1.0000
  H   H1641     1.0  0.86948  0.05094  0.86686  1.0000
  C   C935      1.0  0.70088  0.29351  0.52257  1.0000
  C   C936      1.0  0.70024  0.36806  0.60189  1.0000
  C   C937      1.0  0.71881  0.37246  0.59898  1.0000
  C   C938      1.0  0.82685  0.48389  0.82083  1.0000
  H   H1642     1.0  0.90843  0.18224  0.91824  1.0000
  C   C939      1.0  0.68893  0.33849  0.54907  1.0000
  C   C940      1.0  0.82579  0.34645  0.55449  1.0000
  H   H1643     1.0  0.98687  0.05754  0.86093  1.0000
  H   H1644     1.0  0.76124  0.33356  0.87243  1.0000
  H   H1645     1.0  0.72166  0.39452  0.59160  1.0000
  H   H1646     1.0  0.96699  0.04784  0.87837  1.0000
  H   H1647     1.0  0.70028  0.42225  0.57350  1.0000
  H   H1648     1.0  0.75298  0.34317  0.91874  1.0000
  C   C941      1.0  0.99151  0.24414  0.50137  1.0000
  C   C942      1.0  0.80700  0.01111  0.82101  1.0000
  H   H1649     1.0  0.89884  0.12433  0.89998  1.0000
  H   H1650     1.0  0.69586  0.38492  0.62153  1.0000
  H   H1651     1.0  0.94197  0.44221  0.60995  1.0000
  H   H1652     1.0  0.79839  0.44011  0.53544  1.0000
  H   H1653     1.0  0.85624  0.27490  0.77349  1.0000
  C   C943      1.0  0.93561  0.36188  0.67912  1.0000
  C   C944      1.0  0.93384  0.33321  0.69994  1.0000
  C   C945      1.0  0.94416  0.31076  0.68053  1.0000
  H   H1654     1.0  0.94939  0.37998  0.73735  1.0000
  H   H1655     1.0  0.94862  0.36540  0.67302  1.0000
  H   H1656     1.0  0.92987  0.35904  0.65059  1.0000
  H   H1657     1.0  0.93760  0.33431  0.73056  1.0000
  H   H1658     1.0  0.94268  0.29054  0.69589  1.0000
  H   H1659     1.0  0.72383  0.42564  0.52896  1.0000
  H   H1660     1.0  0.84503  0.38935  0.51461  1.0000
  C   C946      1.0  0.90110  0.40660  0.72256  1.0000
  H   H1661     1.0  0.93044  0.37543  0.76052  1.0000
  H   H1662     1.0  0.82628  0.40453  0.56721  1.0000
  H   H1663     1.0  0.98123  0.11011  0.58567  1.0000
  H   H1664     1.0  0.95726  0.40492  0.79907  1.0000
  C   C947      1.0  0.92416  0.41434  0.63615  1.0000
  H   H1665     1.0  0.87969  0.38103  0.73389  1.0000
  C   C948      1.0  0.94554  0.41615  0.79854  1.0000
  H   H1666     1.0  0.84496  0.24839  0.74780  1.0000
  C   C949      1.0  0.72718  0.36594  0.63715  1.0000
  H   H1667     1.0  0.77326  0.32980  0.91568  1.0000
  H   H1668     1.0  0.69227  0.29402  0.49811  1.0000
  C   C950      1.0  0.80675  0.43326  0.55855  1.0000
  C   C951      1.0  0.93246  0.41259  0.67612  1.0000
  H   H1669     1.0  0.96734  0.09253  0.55570  1.0000
  C   C952      1.0  0.98026  0.21356  0.83511  1.0000
  H   H1670     1.0  0.94742  0.43752  0.81045  1.0000
  H   H1671     1.0  0.93676  0.40498  0.81728  1.0000
  H   H1672     1.0  0.90315  0.21845  0.91135  1.0000
  H   H1673     1.0  0.87919  0.40027  0.68897  1.0000
  H   H1674     1.0  0.94820  0.43031  0.74027  1.0000
  C   C953      1.0  0.81739  0.40922  0.54429  1.0000
  H   H1675     1.0  0.85297  0.29121  0.56981  1.0000
  H   H1676     1.0  0.83533  0.36149  0.56303  1.0000
  H   H1677     1.0  0.79871  0.39060  0.51127  1.0000
  C   C954      1.0  0.91080  0.38226  0.70446  1.0000
  H   H1678     1.0  0.96176  0.47135  0.92361  1.0000
  H   H1679     1.0  0.71262  0.32055  0.56235  1.0000
  H   H1680     1.0  0.98922  0.00865  0.83996  1.0000
  H   H1681     1.0  0.79381  0.46941  0.93817  1.0000
  H   H1682     1.0  0.92263  0.44187  0.58660  1.0000
  C   C955      1.0  0.93918  0.41819  0.75725  1.0000
  H   H1683     1.0  0.90409  0.40858  0.75363  1.0000
  H   H1684     1.0  0.87133  0.00243  0.84183  1.0000
  H   H1685     1.0  0.76578  0.07982  0.96195  1.0000
  H   H1686     1.0  0.90532  0.37677  0.67608  1.0000
  H   H1687     1.0  0.81804  0.34469  0.58072  1.0000
  H   H1688     1.0  0.90353  0.42679  0.70793  1.0000
  H   H1689     1.0  0.69199  0.38306  0.50567  1.0000
  H   H1690     1.0  0.92496  0.45996  0.63195  1.0000
  H   H1691     1.0  0.90839  0.36372  0.72299  1.0000
  H   H1692     1.0  0.99533  0.42025  0.62308  1.0000
  H   H1693     1.0  0.92224  0.12211  0.94458  1.0000
  C   C956      1.0  0.88298  0.40110  0.71969  1.0000
  H   H1694     1.0  0.79956  0.42681  0.58411  1.0000
  H   H1695     1.0  0.96614  0.33797  0.87851  1.0000
  C   C957      1.0  0.97817  0.32795  0.88042  1.0000
  C   C958      1.0  0.84395  0.37268  0.49256  1.0000
  H   H1696     1.0  0.69567  0.28051  0.54608  1.0000
  H   H1697     1.0  0.98271  0.15012  0.53875  1.0000
  H   H1698     1.0  0.69800  0.34826  0.61803  1.0000
  C   C959      1.0  0.98775  0.46601  0.50210  1.0000
  H   H1699     1.0  0.72239  0.37943  0.66066  1.0000
  H   H1700     1.0  0.85812  0.32767  0.56492  1.0000
  N   N52       1.0  0.81604  0.35739  0.52104  1.0000
  H   H1701     1.0  0.72548  0.34356  0.64490  1.0000
  H   H1702     1.0  0.97538  0.42799  0.67408  1.0000
  C   C960      1.0  0.98747  0.01886  0.58895  1.0000
  H   H1703     1.0  0.71038  0.42980  0.48851  1.0000
  H   H1704     1.0  0.76525  0.00719  0.89821  1.0000
  H   H1705     1.0  0.82524  0.03623  0.79362  1.0000
  H   H1706     1.0  0.75567  0.12787  0.97627  1.0000
  H   H1707     1.0  0.98416  0.20112  0.80965  1.0000
  N   N53       1.0  0.99221  0.09110  0.53558  1.0000
  H   H1708     1.0  0.79945  0.37814  0.55961  1.0000
  S   S213      1.0  0.97645  0.44018  0.52840  1.0000
  H   H1709     1.0  0.97497  0.25043  0.80234  1.0000
  H   H1710     1.0  0.75462  0.40843  0.52017  1.0000
  H   H1711     1.0  0.97315  0.29896  0.83512  1.0000
  C   C961      1.0  0.98246  0.24489  0.82763  1.0000
  H   H1712     1.0  0.83701  0.01967  0.86706  1.0000
  C   C962      1.0  0.99310  0.21587  0.48931  1.0000
  C   C963      1.0  0.80359  0.33533  0.51116  1.0000
  H   H1713     1.0  0.83728  0.48026  0.83881  1.0000
  C   C964      1.0  0.97303  0.13414  0.53642  1.0000
  H   H1714     1.0  0.77597  0.47654  0.90967  1.0000
  H   H1715     1.0  0.73988  0.32299  0.50482  1.0000
  H   H1716     1.0  0.97795  0.25593  0.85370  1.0000
  H   H1717     1.0  0.98732  0.20697  0.86076  1.0000
  H   H1718     1.0  0.74665  0.06299  0.96506  1.0000
  H   H1719     1.0  0.98137  0.25041  0.51906  1.0000
  C   C965      1.0  0.97994  0.04957  0.88608  1.0000
  H   H1720     1.0  0.83730  0.31412  0.51756  1.0000
  H   H1721     1.0  0.97062  0.44852  0.63201  1.0000
  C   C966      1.0  0.67409  0.37925  0.57194  1.0000
  C   C967      1.0  0.97825  0.10592  0.55482  1.0000
  H   H1722     1.0  0.71220  0.28348  0.51245  1.0000
  C   C968      1.0  0.98209  0.04782  0.57551  1.0000
  H   H1723     1.0  0.99132  0.30478  0.69573  1.0000
  H   H1724     1.0  0.98408  0.20075  0.49799  1.0000
  H   H1725     1.0  0.82719  0.21275  0.93024  1.0000
  H   H1726     1.0  0.97653  0.27844  0.70860  1.0000
  H   H1727     1.0  0.85267  0.01531  0.90171  1.0000
  H   H1728     1.0  0.66746  0.38180  0.54424  1.0000
  C   C969      1.0  0.98947  0.28222  0.70221  1.0000
  H   H1729     1.0  0.98113  0.06497  0.91000  1.0000
  N   N54       1.0  0.76719  0.03522  0.97078  1.0000
  H   H1730     1.0  0.79027  0.05565  0.96332  1.0000
  C   C970      1.0  0.99466  0.37220  0.75948  1.0000
  S   S214      1.0  0.99069  0.18240  0.94439  1.0000
  H   H1731     1.0  0.83996  0.23368  0.96073  1.0000
  C   C971      1.0  0.98228  0.23441  0.97359  1.0000
  H   H1732     1.0  0.99119  0.00592  0.56385  1.0000
  C   C972      1.0  0.98456  0.26344  0.97845  1.0000
  H   H1733     1.0  0.97957  0.01514  0.92531  1.0000
  H   H1734     1.0  0.78213  0.35814  0.49137  1.0000
  C   C973      1.0  0.97390  0.06748  0.48417  1.0000
  C   C974      1.0  0.98649  0.02123  0.89915  1.0000
  H   H1735     1.0  0.99336  0.46673  0.58994  1.0000
  C   C975      1.0  0.80985  0.00452  0.95257  1.0000
  C   C976      1.0  0.98471  0.99874  0.86696  1.0000
  H   H1736     1.0  0.81723  0.02325  0.94565  1.0000
  C   C977      1.0  0.98383  0.49455  0.50680  1.0000
  C   C978      1.0  0.99594  0.29060  0.77290  1.0000
  C   C979      1.0  0.99618  0.43998  0.63987  1.0000
  H   H1737     1.0  0.91705  0.97405  0.46268  1.0000
  S   S215      1.0  0.96578  0.57589  0.06327  1.0000
  C   C980      1.0  0.96437  0.49959  0.37250  1.0000
  Fe  Fe106     1.0  0.97841  0.65034  0.02905  1.0000
  S   S216      1.0  0.96549  0.64253  0.08551  1.0000
  H   H1738     1.0  0.98179  0.64105  0.18062  1.0000
  Fe  Fe107     1.0  0.98268  0.60640  0.09220  1.0000
  C   C981      1.0  0.71265  0.98078  0.28515  1.0000
  Fe  Fe108     1.0  0.94972  0.61293  0.05128  1.0000
  H   H1739     1.0  0.69269  0.79434  0.28227  1.0000
  Fe  Fe109     1.0  0.70380  0.61337  0.14309  1.0000
  S   S217      1.0  0.71404  0.62254  0.20203  1.0000
  S   S218      1.0  0.71767  0.61550  0.08466  1.0000
  C   C982      1.0  0.67262  0.50828  0.14225  1.0000
  H   H1740     1.0  0.74704  0.83723  0.34100  1.0000
  Fe  Fe110     1.0  0.69348  0.65314  0.20971  1.0000
  S   S219      1.0  0.69336  0.70084  0.22124  1.0000
  Fe  Fe111     1.0  0.69685  0.58878  0.22341  1.0000
  S   S220      1.0  0.70224  0.55916  0.27420  1.0000
  S   S221      1.0  0.68385  0.64521  0.15002  1.0000
  S   S222      1.0  0.68744  0.57803  0.16423  1.0000
  H   H1741     1.0  0.97537  0.70810  0.15960  1.0000
  S   S223      1.0  0.68142  0.86587  0.35317  1.0000
  Fe  Fe112     1.0  0.70768  0.87054  0.44843  1.0000
  S   S224      1.0  0.71823  0.86295  0.38935  1.0000
  C   C983      1.0  0.69716  0.50311  0.25276  1.0000
  Fe  Fe113     1.0  0.70131  0.89672  0.36715  1.0000
  S   S225      1.0  0.71140  0.93185  0.32800  1.0000
  Fe  Fe114     1.0  0.69758  0.83271  0.37921  1.0000
  S   S226      1.0  0.70265  0.78633  0.36348  1.0000
  S   S227      1.0  0.69216  0.90605  0.42683  1.0000
  S   S228      1.0  0.68771  0.83901  0.43962  1.0000
  C   C984      1.0  0.69957  0.52240  0.28268  1.0000
  H   H1742     1.0  0.98080  0.54361  0.27429  1.0000
  C   C985      1.0  0.97605  0.55962  0.35821  1.0000
  C   C986      1.0  0.70257  0.96159  0.30466  1.0000
  H   H1743     1.0  0.89760  0.98977  0.47068  1.0000
  H   H1744     1.0  0.73953  0.76713  0.35915  1.0000
  H   H1745     1.0  0.72332  0.82026  0.46762  1.0000
  H   H1746     1.0  0.97001  0.74393  0.15839  1.0000
  S   S229      1.0  0.92237  0.60790  0.05788  1.0000
  H   H1747     1.0  0.73851  0.71943  0.33300  1.0000
  C   C987      1.0  0.69539  0.72399  0.26168  1.0000
  C   C988      1.0  0.69982  0.71466  0.29841  1.0000
  C   C989      1.0  0.70173  0.73398  0.32908  1.0000
  C   C990      1.0  0.69921  0.76294  0.32376  1.0000
  C   C991      1.0  0.69463  0.77222  0.28706  1.0000
  C   C992      1.0  0.69281  0.75290  0.25631  1.0000
  H   H1748     1.0  0.70183  0.69257  0.30323  1.0000
  H   H1749     1.0  0.70507  0.72634  0.35728  1.0000
  H   H1750     1.0  0.93660  0.53644  0.25382  1.0000
  H   H1751     1.0  0.76843  0.84396  0.34053  1.0000
  C   C993      1.0  0.76905  0.61537  0.02889  1.0000
  C   C994      1.0  0.75510  0.61675  0.00621  1.0000
  C   C995      1.0  0.73961  0.61683  0.02375  1.0000
  C   C996      1.0  0.73769  0.61521  0.06420  1.0000
  C   C997      1.0  0.75164  0.61362  0.08677  1.0000
  C   C998      1.0  0.76712  0.61399  0.06932  1.0000
  H   H1752     1.0  0.77287  0.78890  0.45110  1.0000
  H   H1753     1.0  0.72900  0.61759  0.00574  1.0000
  H   H1754     1.0  0.75053  0.61160  0.11765  1.0000
  H   H1755     1.0  0.67797  0.95210  0.31939  1.0000
  H   H1756     1.0  0.98960  0.75900  0.45316  1.0000
  H   H1757     1.0  0.91310  0.54805  0.05191  1.0000
  H   H1758     1.0  0.73515  0.80635  0.39270  1.0000
  H   H1759     1.0  0.77188  0.81759  0.40092  1.0000
  H   H1760     1.0  0.97972  0.75451  0.99463  1.0000
  C   C999      1.0  0.68593  0.96652  0.30461  1.0000
  H   H1761     1.0  0.89890  0.95617  0.44714  1.0000
  H   H1762     1.0  0.72461  0.70032  0.00448  1.0000
  C   C1000     1.0  0.97461  0.53103  0.29708  1.0000
  H   H1763     1.0  0.97090  0.63182  0.34462  1.0000
  C   C1001     1.0  0.99501  0.76335  0.11728  1.0000
  H   H1764     1.0  0.97930  0.97901  0.46389  1.0000
  Fe  Fe115     1.0  0.67293  0.87381  0.41439  1.0000
  C   C1002     1.0  0.99563  0.74912  0.47717  1.0000
  N   N55       1.0  0.74495  0.69491  0.18182  1.0000
  C   C1003     1.0  0.73173  0.68420  0.15575  1.0000
  C   C1004     1.0  0.74864  0.67300  0.21195  1.0000
  C   C1005     1.0  0.73836  0.72027  0.20283  1.0000
  C   C1006     1.0  0.76001  0.70315  0.15986  1.0000
  C   C1007     1.0  0.76388  0.68621  0.12250  1.0000
  C   C1008     1.0  0.72476  0.70603  0.12709  1.0000
  C   C1009     1.0  0.74925  0.73322  0.23459  1.0000
  C   C1010     1.0  0.75546  0.64476  0.19739  1.0000
  C   C1011     1.0  0.75741  0.62399  0.23061  1.0000
  C   C1012     1.0  0.78091  0.69220  0.10779  1.0000
  C   C1013     1.0  0.71657  0.69196  0.09269  1.0000
  C   C1014     1.0  0.74220  0.76071  0.24972  1.0000
  H   H1765     1.0  0.72134  0.67673  0.17333  1.0000
  H   H1766     1.0  0.73562  0.66549  0.13917  1.0000
  H   H1767     1.0  0.75789  0.68077  0.23246  1.0000
  H   H1768     1.0  0.73761  0.66858  0.22947  1.0000
  H   H1769     1.0  0.72662  0.71504  0.21680  1.0000
  H   H1770     1.0  0.73571  0.73742  0.18210  1.0000
  H   H1771     1.0  0.75942  0.72549  0.15076  1.0000
  H   H1772     1.0  0.77070  0.70203  0.17922  1.0000
  H   H1773     1.0  0.75541  0.69183  0.09905  1.0000
  H   H1774     1.0  0.76283  0.66338  0.12676  1.0000
  H   H1775     1.0  0.71559  0.71905  0.14216  1.0000
  H   H1776     1.0  0.73422  0.72032  0.11590  1.0000
  H   H1777     1.0  0.76155  0.73742  0.22335  1.0000
  H   H1778     1.0  0.75009  0.71903  0.25984  1.0000
  H   H1779     1.0  0.74745  0.63493  0.17583  1.0000
  H   H1780     1.0  0.76763  0.64787  0.18475  1.0000
  H   H1781     1.0  0.76604  0.63217  0.25238  1.0000
  H   H1782     1.0  0.74565  0.61977  0.24488  1.0000
  H   H1783     1.0  0.76214  0.60383  0.21924  1.0000
  H   H1784     1.0  0.78313  0.67996  0.08097  1.0000
  H   H1785     1.0  0.78242  0.71481  0.10117  1.0000
  H   H1786     1.0  0.79000  0.68579  0.12953  1.0000
  H   H1787     1.0  0.70681  0.67776  0.10266  1.0000
  H   H1788     1.0  0.71120  0.70809  0.07366  1.0000
  H   H1789     1.0  0.72543  0.67961  0.07568  1.0000
  H   H1790     1.0  0.73000  0.75714  0.26215  1.0000
  H   H1791     1.0  0.75004  0.76933  0.27282  1.0000
  H   H1792     1.0  0.74135  0.77643  0.22622  1.0000
  C   C1015     1.0  0.79992  0.69944  0.00105  1.0000
  H   H1793     1.0  0.99166  0.59547  0.34593  1.0000
  H   H1794     1.0  0.97370  0.70442  0.08798  1.0000
  S   S230      1.0  0.96165  0.62260  0.99507  1.0000
  H   H1795     1.0  0.94980  0.69393  0.12936  1.0000
  C   C1016     1.0  0.67956  0.99004  0.28514  1.0000
  H   H1796     1.0  0.98668  0.77883  0.13086  1.0000
  H   H1797     1.0  0.77592  0.68303  0.00215  1.0000
  S   S231      1.0  0.98031  0.69553  0.00725  1.0000
  H   H1798     1.0  0.66366  0.53682  0.29682  1.0000
  H   H1799     1.0  0.75612  0.85871  0.37829  1.0000
  H   H1800     1.0  0.95608  0.53986  0.23125  1.0000
  Fe  Fe116     1.0  0.97859  0.58713  0.00848  1.0000
  C   C1017     1.0  0.74079  0.74946  0.37964  1.0000
  H   H1801     1.0  0.93475  0.54581  0.05726  1.0000
  C   C1018     1.0  0.70024  0.51225  0.32083  1.0000
  H   H1802     1.0  0.88922  0.59020  0.05253  1.0000
  C   C1019     1.0  0.75216  0.75680  0.41377  1.0000
  H   H1803     1.0  0.68942  0.76050  0.22809  1.0000
  H   H1804     1.0  0.98360  0.93490  0.98316  1.0000
  C   C1020     1.0  0.94942  0.52990  0.25551  1.0000
  C   C1021     1.0  0.76077  0.81392  0.38389  1.0000
  C   C1022     1.0  0.98148  0.50908  0.36030  1.0000
  C   C1023     1.0  0.99515  0.72208  0.21234  1.0000
  S   S232      1.0  0.67735  0.62035  0.23532  1.0000
  H   H1805     1.0  0.72552  0.97721  0.28480  1.0000
  C   C1024     1.0  0.74706  0.72437  0.35672  1.0000
  C   C1025     1.0  0.96786  0.72176  0.10392  1.0000
  C   C1026     1.0  0.99110  0.98248  0.47622  1.0000
  N   N56       1.0  0.98273  0.53512  0.33575  1.0000
  H   H1806     1.0  0.77773  0.61262  0.08732  1.0000
  N   N57       1.0  0.74775  0.78262  0.43660  1.0000
  C   C1027     1.0  0.95651  0.53903  0.29423  1.0000
  H   H1807     1.0  0.94918  0.52949  0.31742  1.0000
  H   H1808     1.0  0.95743  0.51665  0.38638  1.0000
  C   C1028     1.0  0.95037  0.71310  0.11128  1.0000
  C   C1029     1.0  0.97908  0.58883  0.33996  1.0000
  H   H1809     1.0  0.74806  0.70567  0.37559  1.0000
  H   H1810     1.0  0.96919  0.61213  0.38876  1.0000
  H   H1811     1.0  0.92168  0.64188  0.98734  1.0000
  H   H1812     1.0  0.92196  0.56981  0.98986  1.0000
  H   H1813     1.0  0.94997  0.50677  0.25233  1.0000
  C   C1030     1.0  0.99605  0.72066  0.00692  1.0000
  H   H1814     1.0  0.69705  0.51031  0.22322  1.0000
  Fe  Fe117     1.0  0.66846  0.61117  0.17530  1.0000
  H   H1815     1.0  0.70223  0.52682  0.34428  1.0000
  C   C1031     1.0  0.96784  0.61099  0.35691  1.0000
  C   C1032     1.0  0.87915  0.60885  0.00115  1.0000
  H   H1816     1.0  0.91400  0.51514  0.99740  1.0000
  H   H1817     1.0  0.95498  0.56206  0.29632  1.0000
  C   C1033     1.0  0.92380  0.53445  0.04761  1.0000
  H   H1818     1.0  0.98141  0.56020  0.38776  1.0000
  H   H1819     1.0  0.66829  0.56160  0.25940  1.0000
  C   C1034     1.0  0.92529  0.52601  0.00525  1.0000
  H   H1820     1.0  0.94178  0.55741  0.98469  1.0000
  H   H1821     1.0  0.94439  0.70844  0.08331  1.0000
  C   C1035     1.0  0.90425  0.96961  0.47000  1.0000
  H   H1822     1.0  0.95510  0.60614  0.34968  1.0000
  H   H1823     1.0  0.96754  0.74051  0.08514  1.0000
  H   H1824     1.0  0.94366  0.73023  0.12585  1.0000
  H   H1825     1.0  0.73175  0.75725  0.47179  1.0000
  H   H1826     1.0  0.79644  0.71909  0.01605  1.0000
  C   C1036     1.0  0.75786  0.84005  0.35950  1.0000
  H   H1827     1.0  0.76470  0.75840  0.40254  1.0000
  N   N58       1.0  0.99436  0.73595  0.13912  1.0000
  C   C1037     1.0  0.97683  0.72749  0.14238  1.0000
  S   S233      1.0  0.78911  0.61556  0.00878  1.0000
  H   H1828     1.0  0.76294  0.79631  0.36367  1.0000
  H   H1829     1.0  0.97751  0.58851  0.30817  1.0000
  C   C1038     1.0  0.98968  0.63145  0.20154  1.0000
  H   H1830     1.0  0.96292  0.55736  0.36312  1.0000
  C   C1039     1.0  0.89162  0.60344  0.02787  1.0000
  H   H1831     1.0  0.66928  0.67650  0.28050  1.0000
  H   H1832     1.0  0.98879  0.51182  0.38702  1.0000
  H   H1833     1.0  0.72200  0.77547  0.43427  1.0000
  H   H1834     1.0  0.86731  0.59982  0.00537  1.0000
  C   C1040     1.0  0.73174  0.77758  0.45613  1.0000
  H   H1835     1.0  0.66660  0.58517  0.32152  1.0000
  C   C1041     1.0  0.90709  0.61517  0.02312  1.0000
  C   C1042     1.0  0.74620  0.80788  0.41079  1.0000
  H   H1836     1.0  0.99142  0.96459  0.05542  1.0000
  H   H1837     1.0  0.92231  0.51549  0.06578  1.0000
  H   H1838     1.0  0.66961  0.52767  0.21642  1.0000
  C   C1043     1.0  0.90996  0.63232  0.99113  1.0000
  H   H1839     1.0  0.98485  0.66207  0.24603  1.0000
  H   H1840     1.0  0.97589  0.50886  0.28749  1.0000
  H   H1841     1.0  0.99434  0.69976  0.20421  1.0000
  C   C1044     1.0  0.99216  0.74880  0.99971  1.0000
  H   H1842     1.0  0.75902  0.72918  0.34383  1.0000
  H   H1843     1.0  0.98286  0.72903  0.22089  1.0000
  H   H1844     1.0  0.80443  0.68432  0.02283  1.0000
  H   H1845     1.0  0.72864  0.74387  0.39059  1.0000
  H   H1846     1.0  0.78854  0.99314  0.98429  1.0000
  H   H1847     1.0  0.74441  0.82710  0.42850  1.0000
  H   H1848     1.0  0.66670  0.99351  0.28551  1.0000
  H   H1849     1.0  0.68447  0.51332  0.15544  1.0000
  H   H1850     1.0  0.75221  0.73811  0.43290  1.0000
  H   H1851     1.0  0.99077  0.76053  0.08708  1.0000
  C   C1045     1.0  0.76091  0.78829  0.46563  1.0000
  H   H1852     1.0  0.99199  0.67622  0.13625  1.0000
  H   H1853     1.0  0.66964  0.68837  0.10296  1.0000
  H   H1854     1.0  0.66828  0.52667  0.12567  1.0000
  H   H1855     1.0  0.93519  0.51049  0.00301  1.0000
  C   C1046     1.0  0.99145  0.64331  0.23858  1.0000
  H   H1856     1.0  0.75950  0.80946  0.47858  1.0000
  H   H1857     1.0  0.75225  0.86014  0.48153  1.0000
  H   H1858     1.0  0.75354  0.70765  0.98192  1.0000
  H   H1859     1.0  0.75915  0.99298  0.98418  1.0000
  H   H1860     1.0  0.92293  0.91803  0.60439  1.0000
  H   H1861     1.0  0.87760  0.92981  0.94746  1.0000
  Fe  Fe118     1.0  0.81423  0.83344  0.73181  1.0000
  S   S234      1.0  0.81870  0.82160  0.66990  1.0000
  S   S235      1.0  0.81446  0.80273  0.78377  1.0000
  Fe  Fe119     1.0  0.81844  0.89686  0.71380  1.0000
  S   S236      1.0  0.82365  0.88776  0.65072  1.0000
  S   S237      1.0  0.82307  0.94248  0.73397  1.0000
  Fe  Fe120     1.0  0.80250  0.85779  0.65310  1.0000
  S   S238      1.0  0.78725  0.85351  0.59675  1.0000
  Fe  Fe121     1.0  0.83934  0.85241  0.67135  1.0000
  S   S239      1.0  0.86289  0.83552  0.64461  1.0000
  S   S240      1.0  0.79659  0.86819  0.71582  1.0000
  S   S241      1.0  0.83549  0.86319  0.73370  1.0000
  Fe  Fe122     1.0  0.84024  0.62198  0.92582  1.0000
  S   S242      1.0  0.83388  0.61329  0.86365  1.0000
  S   S243      1.0  0.86677  0.63460  0.93495  1.0000
  Fe  Fe123     1.0  0.80452  0.61442  0.95227  1.0000
  S   S244      1.0  0.79641  0.60466  0.89145  1.0000
  H   H1862     1.0  0.68743  0.86435  0.59499  1.0000
  Fe  Fe124     1.0  0.81870  0.57753  0.88589  1.0000
  S   S245      1.0  0.82337  0.53221  0.86428  1.0000
  Fe  Fe125     1.0  0.81237  0.64126  0.87326  1.0000
  S   S246      1.0  0.80357  0.67268  0.82695  1.0000
  S   S247      1.0  0.82602  0.58521  0.94801  1.0000
  S   S248      1.0  0.81950  0.65209  0.93407  1.0000
  Fe  Fe126     1.0  0.98465  0.89796  0.56265  1.0000
  S   S249      1.0  0.96533  0.86538  0.55175  1.0000
  H   H1863     1.0  0.90361  0.85354  0.53441  1.0000
  H   H1864     1.0  0.94777  0.61229  0.86779  1.0000
  S   S250      1.0  0.97821  0.83004  0.62675  1.0000
  H   H1865     1.0  0.72861  0.87573  0.58958  1.0000
  Fe  Fe127     1.0  0.98429  0.83227  0.56306  1.0000
  H   H1866     1.0  0.75591  0.95922  0.88558  1.0000
  Fe  Fe128     1.0  0.96064  0.86539  0.61581  1.0000
  S   S251      1.0  0.93689  0.87479  0.64798  1.0000
  S   S252      1.0  0.97900  0.89965  0.62628  1.0000
  H   H1867     1.0  0.84947  0.81278  0.81239  1.0000
  C   C1047     1.0  0.81590  0.96875  0.76675  1.0000
  C   C1048     1.0  0.80363  0.96377  0.79372  1.0000
  H   H1868     1.0  0.76547  0.74581  0.48782  1.0000
  C   C1049     1.0  0.98292  0.91990  0.95871  1.0000
  H   H1869     1.0  0.86488  0.93181  0.61731  1.0000
  H   H1870     1.0  0.74984  0.95507  0.93528  1.0000
  H   H1871     1.0  0.79765  0.94362  0.79411  1.0000
  C   C1050     1.0  0.87882  0.54711  0.92781  1.0000
  H   H1872     1.0  0.78753  0.77725  0.51213  1.0000
  H   H1873     1.0  0.70530  0.92547  0.55106  1.0000
  C   C1051     1.0  0.81176  0.76620  0.79434  1.0000
  C   C1052     1.0  0.80362  0.74781  0.76956  1.0000
  C   C1053     1.0  0.80142  0.71937  0.77988  1.0000
  C   C1054     1.0  0.80746  0.70861  0.81487  1.0000
  C   C1055     1.0  0.81576  0.72692  0.83947  1.0000
  C   C1056     1.0  0.81775  0.75546  0.82939  1.0000
  H   H1874     1.0  0.79874  0.75564  0.74276  1.0000
  H   H1875     1.0  0.79489  0.70558  0.76063  1.0000
  H   H1876     1.0  0.82046  0.71917  0.86651  1.0000
  H   H1877     1.0  0.82403  0.76936  0.84896  1.0000
  C   C1057     1.0  0.88344  0.84652  0.64673  1.0000
  C   C1058     1.0  0.89504  0.83192  0.62481  1.0000
  C   C1059     1.0  0.91145  0.83994  0.62513  1.0000
  C   C1060     1.0  0.91649  0.86283  0.64733  1.0000
  C   C1061     1.0  0.90490  0.87736  0.66937  1.0000
  C   C1062     1.0  0.88850  0.86930  0.66913  1.0000
  H   H1878     1.0  0.89130  0.81435  0.60724  1.0000
  H   H1879     1.0  0.92018  0.82841  0.60825  1.0000
  H   H1880     1.0  0.90863  0.89507  0.68670  1.0000
  H   H1881     1.0  0.87977  0.88077  0.68612  1.0000
  C   C1063     1.0  0.76825  0.85989  0.57318  1.0000
  C   C1064     1.0  0.75412  0.86676  0.59335  1.0000
  C   C1065     1.0  0.73938  0.87064  0.57339  1.0000
  C   C1066     1.0  0.73842  0.86804  0.53287  1.0000
  C   C1067     1.0  0.75258  0.86163  0.51263  1.0000
  C   C1068     1.0  0.76728  0.85736  0.53262  1.0000
  H   H1882     1.0  0.75453  0.86885  0.62441  1.0000
  H   H1883     1.0  0.81803  0.94125  0.92622  1.0000
  H   H1884     1.0  0.77807  0.85233  0.51649  1.0000
  H   H1885     1.0  0.73517  0.80599  0.50627  1.0000
  C   C1069     1.0  0.94719  0.50895  0.92525  1.0000
  H   H1886     1.0  0.88998  0.95221  0.51545  1.0000
  H   H1887     1.0  0.94808  0.94362  0.62450  1.0000
  C   C1070     1.0  0.68084  0.87518  0.65296  1.0000
  H   H1888     1.0  0.92683  0.87651  0.56847  1.0000
  H   H1889     1.0  0.88228  0.94688  0.80469  1.0000
  S   S253      1.0  0.71925  0.87270  0.50945  1.0000
  C   C1071     1.0  0.92554  0.83689  0.51141  1.0000
  H   H1890     1.0  0.81753  0.98934  0.96826  1.0000
  H   H1891     1.0  0.86372  0.91847  0.56869  1.0000
  H   H1892     1.0  0.89787  0.88486  0.58149  1.0000
  H   H1893     1.0  0.67438  0.85522  0.65874  1.0000
  H   H1894     1.0  0.67675  0.93564  0.56899  1.0000
  H   H1895     1.0  0.89414  0.92579  0.61854  1.0000
  C   C1072     1.0  0.94795  0.61580  0.89948  1.0000
  H   H1896     1.0  0.91600  0.94917  0.58331  1.0000
  H   H1897     1.0  0.68821  0.90081  0.60552  1.0000
  C   C1073     1.0  0.68095  0.88153  0.60975  1.0000
  H   H1898     1.0  0.86073  0.84003  0.78849  1.0000
  H   H1899     1.0  0.95280  0.51592  0.95267  1.0000
  C   C1074     1.0  0.89751  0.63777  0.96449  1.0000
  H   H1900     1.0  0.98880  0.50711  0.91167  1.0000
  H   H1901     1.0  0.88048  0.95986  0.86548  1.0000
  H   H1902     1.0  0.70941  0.69425  0.96829  1.0000
  N   N59       1.0  0.76436  0.69691  0.92665  1.0000
  C   C1075     1.0  0.75984  0.72004  0.89902  1.0000
  C   C1076     1.0  0.75141  0.69314  0.95718  1.0000
  C   C1077     1.0  0.77970  0.70586  0.94673  1.0000
  C   C1078     1.0  0.76764  0.66963  0.90603  1.0000
  C   C1079     1.0  0.75386  0.65816  0.88041  1.0000
  C   C1080     1.0  0.77208  0.72630  0.86619  1.0000
  C   C1081     1.0  0.99587  0.76280  0.51329  1.0000
  C   C1082     1.0  0.73367  0.69875  0.94533  1.0000
  H   H1903     1.0  0.93002  0.82861  0.53935  1.0000
  C   C1083     1.0  0.75923  0.63239  0.85764  1.0000
  C   C1084     1.0  0.76589  0.74953  0.83981  1.0000
  H   H1904     1.0  0.86953  0.89566  0.60780  1.0000
  H   H1905     1.0  0.75789  0.73988  0.91536  1.0000
  H   H1906     1.0  0.74820  0.71562  0.88459  1.0000
  C   C1085     1.0  0.92930  0.51845  0.92238  1.0000
  H   H1907     1.0  0.88130  0.94176  0.73434  1.0000
  H   H1908     1.0  0.77838  0.72750  0.95847  1.0000
  H   H1909     1.0  0.78997  0.70661  0.92599  1.0000
  H   H1910     1.0  0.77874  0.67133  0.88804  1.0000
  H   H1911     1.0  0.77039  0.65276  0.92714  1.0000
  H   H1912     1.0  0.74978  0.67388  0.85913  1.0000
  H   H1913     1.0  0.74359  0.65147  0.89872  1.0000
  H   H1914     1.0  0.78382  0.73347  0.87782  1.0000
  H   H1915     1.0  0.77407  0.70747  0.84803  1.0000
  H   H1916     1.0  0.96031  0.96060  0.58840  1.0000
  H   H1917     1.0  0.88858  0.89804  0.53926  1.0000
  H   H1918     1.0  0.73184  0.72158  0.94087  1.0000
  H   H1919     1.0  0.73029  0.68789  0.91833  1.0000
  C   C1086     1.0  0.98871  0.95145  0.84179  1.0000
  C   C1087     1.0  0.86839  0.95583  0.87828  1.0000
  H   H1920     1.0  0.67496  0.89243  0.66925  1.0000
  H   H1921     1.0  0.76205  0.61491  0.87758  1.0000
  H   H1922     1.0  0.74936  0.62544  0.83823  1.0000
  H   H1923     1.0  0.76999  0.63725  0.83964  1.0000
  H   H1924     1.0  0.75448  0.74308  0.82562  1.0000
  H   H1925     1.0  0.76391  0.76915  0.85640  1.0000
  H   H1926     1.0  0.77496  0.75389  0.81696  1.0000
  H   H1927     1.0  0.98774  0.89952  0.96859  1.0000
  C   C1088     1.0  0.83874  0.96295  0.86905  1.0000
  C   C1089     1.0  0.98998  0.68425  0.89870  1.0000
  H   H1928     1.0  0.89352  0.95303  0.93112  1.0000
  C   C1090     1.0  0.99463  0.77549  0.89487  1.0000
  H   H1929     1.0  0.75111  0.76533  0.51603  1.0000
  H   H1930     1.0  0.99522  0.93125  0.84424  1.0000
  H   H1931     1.0  0.97350  0.95953  0.91134  1.0000
  C   C1091     1.0  0.81776  0.50854  0.82634  1.0000
  C   C1092     1.0  0.82351  0.99520  0.76691  1.0000
  H   H1932     1.0  0.98133  0.97687  0.79227  1.0000
  H   H1933     1.0  0.97410  0.50028  0.52610  1.0000
  H   H1934     1.0  0.80579  0.99470  0.92516  1.0000
  C   C1093     1.0  0.93990  0.93771  0.56531  1.0000
  H   H1935     1.0  0.95432  0.51820  0.90122  1.0000
  H   H1936     1.0  0.89468  0.54296  0.97591  1.0000
  H   H1937     1.0  0.78914  0.66623  0.96843  1.0000
  H   H1938     1.0  0.99037  0.97387  0.93625  1.0000
  H   H1939     1.0  0.83722  0.97453  0.89654  1.0000
  S   S254      1.0  0.98257  0.55453  0.96106  1.0000
  H   H1940     1.0  0.85518  0.92802  0.81992  1.0000
  H   H1941     1.0  0.86751  0.93262  0.88034  1.0000
  C   C1094     1.0  0.88199  0.62626  0.96937  1.0000
  H   H1942     1.0  0.90737  0.55549  0.89390  1.0000
  H   H1943     1.0  0.70667  0.80969  0.52423  1.0000
  H   H1944     1.0  0.86905  0.53523  0.94249  1.0000
  S   S255      1.0  0.98673  0.79678  0.51764  1.0000
  H   H1945     1.0  0.67501  0.79118  0.52871  1.0000
  N   N60       1.0  0.85539  0.96711  0.85227  1.0000
  H   H1946     1.0  0.69344  0.87307  0.66338  1.0000
  C   C1095     1.0  0.98978  0.71498  0.88632  1.0000
  H   H1947     1.0  0.80985  0.70394  0.98041  1.0000
  H   H1948     1.0  0.78971  0.98064  0.84118  1.0000
  H   H1949     1.0  0.94758  0.91896  0.56159  1.0000
  H   H1950     1.0  0.99388  0.68230  0.92923  1.0000
  H   H1951     1.0  0.82969  0.97219  0.84925  1.0000
  H   H1952     1.0  0.89664  0.51594  0.93933  1.0000
  H   H1953     1.0  0.90996  0.86878  0.48943  1.0000
  N   N61       1.0  0.92602  0.54792  0.93613  1.0000
  H   H1954     1.0  0.79713  0.53151  0.80658  1.0000
  N   N62       1.0  0.85815  0.75089  0.72725  1.0000
  C   C1096     1.0  0.86034  0.72097  0.74039  1.0000
  C   C1097     1.0  0.87180  0.75975  0.70085  1.0000
  C   C1098     1.0  0.85874  0.76916  0.76293  1.0000
  C   C1099     1.0  0.84207  0.75545  0.70801  1.0000
  C   C1100     1.0  0.83814  0.73650  0.67299  1.0000
  C   C1101     1.0  0.84705  0.70927  0.76765  1.0000
  C   C1102     1.0  0.85909  0.80125  0.75594  1.0000
  C   C1103     1.0  0.87881  0.73736  0.67302  1.0000
  C   C1104     1.0  0.88977  0.75080  0.64270  1.0000
  C   C1105     1.0  0.82036  0.73860  0.66191  1.0000
  C   C1106     1.0  0.85009  0.67857  0.77762  1.0000
  C   C1107     1.0  0.86022  0.81717  0.79417  1.0000
  H   H1955     1.0  0.87214  0.71880  0.75542  1.0000
  H   H1956     1.0  0.86105  0.70631  0.71566  1.0000
  H   H1957     1.0  0.86813  0.77827  0.68333  1.0000
  H   H1958     1.0  0.88237  0.76699  0.71809  1.0000
  H   H1959     1.0  0.86950  0.76383  0.78067  1.0000
  H   H1960     1.0  0.84804  0.76532  0.78165  1.0000
  H   H1961     1.0  0.83215  0.75355  0.72941  1.0000
  H   H1962     1.0  0.84113  0.77729  0.69724  1.0000
  H   H1963     1.0  0.84058  0.71413  0.67882  1.0000
  H   H1964     1.0  0.84530  0.74342  0.64762  1.0000
  H   H1965     1.0  0.84669  0.72094  0.79532  1.0000
  H   H1966     1.0  0.83501  0.71044  0.75389  1.0000
  H   H1967     1.0  0.84792  0.80797  0.74130  1.0000
  H   H1968     1.0  0.86953  0.80773  0.73795  1.0000
  H   H1969     1.0  0.88616  0.72212  0.68962  1.0000
  H   H1970     1.0  0.86934  0.72552  0.65765  1.0000
  H   H1971     1.0  0.89522  0.73430  0.62423  1.0000
  H   H1972     1.0  0.88270  0.76510  0.62398  1.0000
  H   H1973     1.0  0.89963  0.76288  0.65669  1.0000
  H   H1974     1.0  0.81799  0.72541  0.63610  1.0000
  H   H1975     1.0  0.81258  0.73104  0.68587  1.0000
  H   H1976     1.0  0.81712  0.76054  0.65489  1.0000
  H   H1977     1.0  0.84995  0.66540  0.75116  1.0000
  H   H1978     1.0  0.86184  0.67615  0.79254  1.0000
  H   H1979     1.0  0.84042  0.67094  0.79727  1.0000
  C   C1108     1.0  0.76243  0.76689  0.49910  1.0000
  H   H1980     1.0  0.67211  0.94326  0.51962  1.0000
  C   C1109     1.0  0.67965  0.92996  0.53871  1.0000
  C   C1110     1.0  0.72197  0.68934  0.97693  1.0000
  H   H1981     1.0  0.93426  0.60438  0.95007  1.0000
  H   H1982     1.0  0.97010  0.91687  0.95052  1.0000
  H   H1983     1.0  0.86797  0.91657  0.75642  1.0000
  N   N63       1.0  0.91326  0.91201  0.54732  1.0000
  C   C1111     1.0  0.89687  0.90393  0.56322  1.0000
  C   C1112     1.0  0.87052  0.91727  0.59620  1.0000
  C   C1113     1.0  0.88817  0.92537  0.58984  1.0000
  C   C1114     1.0  0.92282  0.88551  0.54049  1.0000
  H   H1984     1.0  0.90493  0.91350  0.48829  1.0000
  C   C1115     1.0  0.93725  0.56704  0.91389  1.0000
  C   C1116     1.0  0.92238  0.92945  0.57645  1.0000
  H   H1985     1.0  0.92379  0.92967  0.49553  1.0000
  H   H1986     1.0  0.94611  0.63846  0.90523  1.0000
  H   H1987     1.0  0.77536  0.98245  0.92782  1.0000
  H   H1988     1.0  0.72287  0.66637  0.98156  1.0000
  H   H1989     1.0  0.67174  0.83075  0.57340  1.0000
  H   H1990     1.0  0.81336  0.90913  0.90118  1.0000
  C   C1117     1.0  0.93454  0.59892  0.91904  1.0000
  H   H1991     1.0  0.97630  0.81324  0.93827  1.0000
  C   C1118     1.0  0.78542  0.68675  0.98018  1.0000
  H   H1992     1.0  0.92178  0.50296  0.93794  1.0000
  H   H1993     1.0  0.87358  0.97748  0.78273  1.0000
  C   C1119     1.0  0.90300  0.95535  0.50937  1.0000
  H   H1994     1.0  0.69929  0.96006  0.53625  1.0000
  C   C1120     1.0  0.99148  0.96291  0.80034  1.0000
  C   C1121     1.0  0.98694  0.95989  0.91187  1.0000
  H   H1995     1.0  0.80780  0.94217  0.88010  1.0000
  C   C1122     1.0  0.80431  0.51283  0.80277  1.0000
  H   H1996     1.0  0.95996  0.60974  0.91083  1.0000
  H   H1997     1.0  0.98380  0.77343  0.87610  1.0000
  C   C1123     1.0  0.76364  0.99302  0.92315  1.0000
  C   C1124     1.0  0.75147  0.97048  0.91160  1.0000
  H   H1998     1.0  0.98595  0.71563  0.85574  1.0000
  C   C1125     1.0  0.69732  0.93734  0.53127  1.0000
  H   H1999     1.0  0.98731  0.86973  0.80140  1.0000
  C   C1126     1.0  0.77572  0.77564  0.52718  1.0000
  H   H2000     1.0  0.98048  0.72565  0.90407  1.0000
  H   H2001     1.0  0.85736  0.96684  0.93458  1.0000
  C   C1127     1.0  0.79917  0.98485  0.82045  1.0000
  H   H2002     1.0  0.94099  0.97528  0.60123  1.0000
  C   C1128     1.0  0.87004  0.93928  0.75137  1.0000
  C   C1129     1.0  0.99273  0.93047  0.92423  1.0000
  H   H2003     1.0  0.92305  0.60561  0.90560  1.0000
  S   S256      1.0  0.98371  0.93642  0.52171  1.0000
  H   H2004     1.0  0.67445  0.89664  0.49844  1.0000
  H   H2005     1.0  0.98476  0.84483  0.91805  1.0000
  H   H2006     1.0  0.84229  0.92108  0.89475  1.0000
  H   H2007     1.0  0.77284  0.79617  0.54070  1.0000
  C   C1130     1.0  0.89518  0.53870  0.94440  1.0000
  C   C1131     1.0  0.71065  0.79227  0.50523  1.0000
  H   H2008     1.0  0.93654  0.56251  0.88235  1.0000
  H   H2009     1.0  0.66458  0.80996  0.49130  1.0000
  H   H2010     1.0  0.70074  0.93239  0.50105  1.0000
  H   H2011     1.0  0.88191  0.96165  0.97350  1.0000
  H   H2012     1.0  0.89986  0.65134  0.94014  1.0000
  C   C1132     1.0  0.66576  0.80740  0.52300  1.0000
  H   H2013     1.0  0.99303  0.94832  0.74099  1.0000
  H   H2014     1.0  0.93405  0.89019  0.52406  1.0000
  C   C1133     1.0  0.90895  0.55599  0.92585  1.0000
  C   C1134     1.0  0.81716  0.93127  0.89733  1.0000
  C   C1135     1.0  0.86915  0.96803  0.91961  1.0000
  H   H2015     1.0  0.68268  0.84108  0.53034  1.0000
  H   H2016     1.0  0.98148  0.92573  0.77228  1.0000
  H   H2017     1.0  0.83192  0.92077  0.84891  1.0000
  H   H2018     1.0  0.84560  0.95639  0.79642  1.0000
  H   H2019     1.0  0.98905  0.53758  0.49083  1.0000
  H   H2020     1.0  0.68698  0.88621  0.53639  1.0000
  H   H2021     1.0  0.97359  0.82132  0.88750  1.0000
  C   C1136     1.0  0.85612  0.95095  0.81470  1.0000
  H   H2022     1.0  0.75204  0.67167  0.96967  1.0000
  C   C1137     1.0  0.66353  0.88575  0.59419  1.0000
  C   C1138     1.0  0.98207  0.82242  0.91222  1.0000
  C   C1139     1.0  0.92897  0.55165  0.97891  1.0000
  H   H2023     1.0  0.77679  0.75986  0.55053  1.0000
  C   C1140     1.0  0.88130  0.95207  0.94429  1.0000
  H   H2024     1.0  0.87129  0.81114  0.81007  1.0000
  C   C1141     1.0  0.83343  0.93227  0.87656  1.0000
  H   H2025     1.0  0.90639  0.57787  0.93509  1.0000
  H   H2026     1.0  0.97573  0.94558  0.84406  1.0000
  H   H2027     1.0  0.95000  0.56312  0.92237  1.0000
  H   H2028     1.0  0.99130  0.91474  0.90106  1.0000
  N   N64       1.0  0.99325  0.97125  0.87404  1.0000
  C   C1142     1.0  0.91417  0.86161  0.51807  1.0000
  H   H2029     1.0  0.73966  0.98011  0.90455  1.0000
  H   H2030     1.0  0.88845  0.94691  0.57825  1.0000
  H   H2031     1.0  0.98916  0.86619  0.72992  1.0000
  C   C1143     1.0  0.99230  0.51584  0.48676  1.0000
  H   H2032     1.0  0.90822  0.96990  0.53092  1.0000
  C   C1144     1.0  0.99232  0.93936  0.77051  1.0000
  C   C1145     1.0  0.67601  0.89860  0.53027  1.0000
  C   C1146     1.0  0.87150  0.95509  0.78967  1.0000
  H   H2033     1.0  0.71287  0.77356  0.52344  1.0000
  H   H2034     1.0  0.85987  0.94769  0.73410  1.0000
  C   C1147     1.0  0.94772  0.95545  0.59690  1.0000
  H   H2035     1.0  0.75622  0.61742  0.97514  1.0000
  H   H2036     1.0  0.87825  0.54245  0.89641  1.0000
  H   H2037     1.0  0.91905  0.81980  0.49618  1.0000
  H   H2038     1.0  0.97767  0.67523  0.89623  1.0000
  H   H2039     1.0  0.87655  0.56981  0.93234  1.0000
  H   H2040     1.0  0.92567  0.51615  0.89158  1.0000
  H   H2041     1.0  0.93602  0.84334  0.49345  1.0000
  C   C1148     1.0  0.99420  0.52371  0.96810  1.0000
  C   C1149     1.0  0.67074  0.83501  0.54206  1.0000
  H   H2042     1.0  0.99092  0.76707  0.92345  1.0000
  C   C1150     1.0  0.99522  0.50364  0.93835  1.0000
  H   H2043     1.0  0.94016  0.95005  0.53823  1.0000
  H   H2044     1.0  0.87330  0.99012  0.91855  1.0000
  C   C1151     1.0  0.91171  0.92676  0.50905  1.0000
  H   H2045     1.0  0.78942  0.49621  0.75695  1.0000
  H   H2046     1.0  0.97156  0.99511  0.86247  1.0000
  H   H2047     1.0  0.79421  0.49625  0.90173  1.0000
  H   H2048     1.0  0.70088  0.78756  0.48430  1.0000
  C   C1152     1.0  0.72602  0.80094  0.48406  1.0000
