data_image0
_chemical_formula_structural       FeS2FeS2FeSFeS3FeSCFeSHFeSHFeSHFe2S3HCH2C6H4C6H8C3HC2H7CSH4NC7H16CN2H2CHC2H2CHNCH2CH3C3H6CHCH2CHC2H4C2H2CH2CSH5C2H2CH3C2SH2C3H3C3H3NH3CHCHSHCH3CHCH3CH8CHCH6CH2CSH2CH3CH6FeSCFeS2FeS2FeSFeS3FeS2CH4C2H2C2H2C6H4CHC4H8CH4CHC6H3C6H10NHC4H5C2H10CHCH3C5H5NCNC3H2C2HCHCH7CH5SH4CHCH5CH3C2HCHC2H3C2H4C4H2C2HC4H3CH2CH2CHCH4CH2CH2C2HCH2CH2SH6CH3CHN2C5HCH5SHCH5FeS2FeS2FeSFeS3FeSFe2S2FeSFe2S2H2S2H4CH2CH2C10H4C6H2SHC6H4C6H4C5H3NC12H12C3HFeH4C2H2NCH2SC2HCHC2HN2H4CHSH4CH2CHCHNH4SH2C2H3CH2CH2SCHNC12H27CH3SHSH3SH4CH4CH3SHC2H2CH3NHFeHCHCH10CHC9H2CHCSHCHCH2CHC3H6C2H3CH3SCSH7C2H3SFeH3CH4CHC3FeCH3SH2FeHCHCHSH8CH9CH3C2HCH4CH2CH13CH3CHCFeS2CHSHFeSFeSFeS2FeS2FeSFeS3C2SH5C6H4C2H4C3NHCSH3CH3C6H8CH2CH4CHCH4CHCH5C2H4FeH4C2HCHCH3FeH2CHNH4SHC2HC2H2C3HC2HC2H4CH9CH2CH3CHC2HCH2CH6FeSHFeSHFeSFeSCSFeSFeS2FeHFeS3Fe2S2FeCFeS3C6H4C6H5SHCH2C2H3C6H7CH5CHCH4SCH2CH2CH2CH2C3HC3H6C2HCH4SCNHCH6CH12SHSCHCNC2HC2H3C5HNH2CH4CH5NHCH6CNC4HC3SC2H3CH3C2HCH4CHCH6CH2CH3CHCH2CH7C2HCH2CHCH4CH10CH2C2HCH5C3H2FeS2FeS2FeSFeS3FeS2FeSHFeSFeS4HFeSH3SCS2H2C6H4C3H3C2HCHFeC2H3C6H4C5HSH2C2SH5FeCH3NC4HC3H2C2H9CH4CHC2HCH4CH5FeH2FeCH2SHCHC3HCH5NCHCH2NC5HCH8CH4CHSNC10H24CH4CH2CH2CH3C3H2CHCH2CH2CH3CH2C2HC2H2C2H4C2H3NHCHCH2CH5CH2CH3CH6CHC3HCHC2H4C2H8CHCNCHC7H5CH3CNCH8CH2C4H9CH9SHFeS2FeS2FeSFeS3FeS2FeS2FeSFeS3HSHCHC2HC6H4CHCH2C6H4C3H2C3HC2HC6H4C6H2CHC2H3CHCHCHCH5SCH5CH4CHCH2CH7CH3C2HNH3C2HCH2CH2CH3SHCH6CH2NCH2CHCSCH3CH2C2H5CH7CSCFeH2C2NC12H31SH3CH3CH4CNC11H23CH5NC7FeH4NHCHCH2C2H2C3H5CHC3H3CH3CHC2H2CH4CH6CHCH3SC2H6CH2CH2SH3SH5CSHC2H2CHCHCHFe2S2FeS3HSH3FeSC3FeS2FeS2FeSFeS3FeHSFeS2C6HNH2C6H4C6H4C5H3CH2C6H6CH3C2HCNH8CNC12H27CH3CH2C3HSH2CH4C2HCH2C2H8CH2C3H4CNC6HCH3C2H6CH7CH4FeH4SH2FeH10CHC2SHSC3H5CSCHNH7CH2C6H5C2HCH2C2HNH3CH2CH2CH6C2NHCFeS2FeSHFeSFeS3FeS2FeS2FeCFeS3HC2SHCH2CHC6H2CHC4H3CH2C3NH3C6H4C6H4C4H3C2H6CH2CH14CH5C2H6CH4CH3C2HC2H2C2H2CH7CH5C2H6CHCHCHNHCHCHCH2CH7CH3NCH5C3H2CH3CH2CH2CHCH4C3H5CH2SC2HC2SH2NFeH5NH3FeS2FeS2FeSFeS3FeS2FeS2FeSFeS4HCHCH4C3HCH2C8H4C6H4C6H4C4H3CHC3HCH4C2H3CH4C2HNC10H8CH6C2H4C2H4CNC8HC3H19CH14C3H3CH2C4H7CSCHCHNC4HC5H8NH9CH6CH3C2HCHCH4NCH4SHCHNH7SCHC3H3CH4NH7CHC2H2C2HCH3CH3CH4C2H7CH2C2H2CH8NH5C2HCHCHCHCH2CH10SH2C4SC2HCH2CH2CHSHC2HCH4CH2FeS2HCFeHS2FeS2FeS2FeSFeS4HFeS2FeHFeHS2HSCFeSHC6H7C6H8C6H4C2H2CH3C2HCH2CH2CH6CH2NCNC10FeCH17C2H4CH7FeCH3C3H2NHC5H6C2H8CH3CHCHC4HCH3CH4SFeH2SHCH4CH4C3H2CHCH2C2H4FeSCH2C2HSHCH5CHNSH10CH2FeS2HC2HFeH2SFeSHFeS2FeSFeS3HCHS2FeHFeH2CH3CH4C6H2SHC6H4CHCHCH3CH3SC2H2CH3CH4CHCNCHCFeH2NC4HCHCFeH2CH13C2H2CH2C2H5NC5H3CHCH2SH6C2HC3H2C2H2CHCH4C3H3CH8CH7C
_chemical_formula_sum              "Fe128 S256 C1152 H2048 N64"
_cell_length_a       55.3829
_cell_length_b       54.2643
_cell_length_c       26.1081
_cell_angle_alpha    90.0204
_cell_angle_beta     90.3632
_cell_angle_gamma    88.764

_space_group_name_H-M_alt    "P 1"
_space_group_IT_number       1

loop_
  _space_group_symop_operation_xyz
  'x, y, z'

loop_
  _atom_site_type_symbol
  _atom_site_label
  _atom_site_symmetry_multiplicity
  _atom_site_fract_x
  _atom_site_fract_y
  _atom_site_fract_z
  _atom_site_occupancy
  Fe  Fe1       1.0  0.09888  0.15722  0.71906  1.0000
  S   S1        1.0  0.08419  0.15168  0.79927  1.0000
  S   S2        1.0  0.09885  0.19496  0.67876  1.0000
  Fe  Fe2       1.0  0.11209  0.10335  0.70766  1.0000
  S   S3        1.0  0.09795  0.09366  0.78438  1.0000
  S   S4        1.0  0.12625  0.07259  0.65763  1.0000
  Fe  Fe3       1.0  0.06664  0.11852  0.76530  1.0000
  S   S5        1.0  0.03145  0.10143  0.78785  1.0000
  Fe  Fe4       1.0  0.11691  0.12677  0.81422  1.0000
  S   S6        1.0  0.13104  0.11767  0.89537  1.0000
  S   S7        1.0  0.07902  0.12541  0.68495  1.0000
  S   S8        1.0  0.13332  0.13525  0.73715  1.0000
  Fe  Fe5       1.0  0.22591  0.03751  0.17668  1.0000
  S   S9        1.0  0.22160  0.03587  0.09144  1.0000
  C   C1        1.0  0.10975  0.04495  0.91151  1.0000
  Fe  Fe6       1.0  0.23732  0.07338  0.08989  1.0000
  S   S10       1.0  0.22928  0.09985  0.02300  1.0000
  H   H1        1.0  0.03173  0.29789  0.67391  1.0000
  Fe  Fe7       1.0  0.07349  0.30501  0.33246  1.0000
  S   S11       1.0  0.07121  0.29978  0.41896  1.0000
  H   H2        1.0  0.02843  0.28489  0.13911  1.0000
  Fe  Fe8       1.0  0.02794  0.27672  0.31326  1.0000
  S   S12       1.0  0.02104  0.26905  0.39593  1.0000
  H   H3        1.0  0.00410  0.26827  0.03418  1.0000
  Fe  Fe9       1.0  0.03131  0.30824  0.40847  1.0000
  Fe  Fe10      1.0  0.06084  0.26043  0.40357  1.0000
  S   S13       1.0  0.06968  0.22445  0.44777  1.0000
  S   S14       1.0  0.03463  0.31684  0.32474  1.0000
  S   S15       1.0  0.06669  0.26466  0.31816  1.0000
  H   H4        1.0  0.18122  0.17520  0.57760  1.0000
  C   C2        1.0  0.10483  0.26926  0.17386  1.0000
  H   H5        1.0  0.24626  0.02397  0.97128  1.0000
  H   H6        1.0  0.21556  0.00444  0.00460  1.0000
  C   C3        1.0  0.09006  0.20298  0.61478  1.0000
  C   C4        1.0  0.09392  0.22707  0.59686  1.0000
  C   C5        1.0  0.08741  0.23417  0.54640  1.0000
  C   C6        1.0  0.07717  0.21715  0.51281  1.0000
  C   C7        1.0  0.07342  0.19303  0.53070  1.0000
  C   C8        1.0  0.07957  0.18606  0.58139  1.0000
  H   H7        1.0  0.10227  0.24027  0.62206  1.0000
  H   H8        1.0  0.09090  0.25262  0.53306  1.0000
  H   H9        1.0  0.06561  0.17965  0.50511  1.0000
  H   H10       1.0  0.07633  0.16754  0.59452  1.0000
  C   C9        1.0  0.20213  0.10249  0.98584  1.0000
  C   C10       1.0  0.17980  0.09546  0.00509  1.0000
  C   C11       1.0  0.15841  0.10010  0.97658  1.0000
  C   C12       1.0  0.15900  0.11104  0.92767  1.0000
  C   C13       1.0  0.18146  0.11720  0.90751  1.0000
  C   C14       1.0  0.20280  0.11329  0.93677  1.0000
  H   H11       1.0  0.17886  0.08735  0.04286  1.0000
  H   H12       1.0  0.14119  0.09547  0.99289  1.0000
  H   H13       1.0  0.18229  0.12580  0.87023  1.0000
  H   H14       1.0  0.21992  0.11895  0.92148  1.0000
  H   H15       1.0  0.19361  0.03411  0.94167  1.0000
  H   H16       1.0  0.05524  0.32010  0.62600  1.0000
  H   H17       1.0  0.02097  0.15041  0.74641  1.0000
  H   H18       1.0  0.02665  0.04864  0.83214  1.0000
  C   C15       1.0  0.13877  0.04903  0.69629  1.0000
  C   C16       1.0  0.14083  0.02477  0.67798  1.0000
  C   C17       1.0  0.16426  0.13738  0.51816  1.0000
  H   H19       1.0  0.00384  0.22282  0.47153  1.0000
  C   C18       1.0  0.15451  0.03538  0.77852  1.0000
  C   C19       1.0  0.14601  0.05432  0.74636  1.0000
  H   H20       1.0  0.13519  0.02060  0.63926  1.0000
  H   H21       1.0  0.11681  0.12600  0.48421  1.0000
  H   H22       1.0  0.15988  0.03955  0.81722  1.0000
  H   H23       1.0  0.14519  0.07306  0.76042  1.0000
  H   H24       1.0  0.09443  0.26279  0.20736  1.0000
  H   H25       1.0  0.02328  0.09908  0.67175  1.0000
  H   H26       1.0  0.19063  0.05755  0.86916  1.0000
  C   C20       1.0  0.01253  0.30281  0.07237  1.0000
  S   S16       1.0  0.19819  0.01976  0.22709  1.0000
  H   H27       1.0  0.18405  0.13914  0.52479  1.0000
  H   H28       1.0  0.16344  0.17680  0.49746  1.0000
  H   H29       1.0  0.21990  0.07001  0.87959  1.0000
  H   H30       1.0  0.01649  0.26970  0.67895  1.0000
  N   N1        1.0  0.15116  0.13590  0.56865  1.0000
  C   C21       1.0  0.14446  0.16096  0.59022  1.0000
  C   C22       1.0  0.12845  0.12111  0.56388  1.0000
  C   C23       1.0  0.16732  0.12280  0.60745  1.0000
  C   C24       1.0  0.17794  0.09713  0.59166  1.0000
  C   C25       1.0  0.10969  0.12973  0.52319  1.0000
  C   C26       1.0  0.08617  0.11572  0.52826  1.0000
  C   C27       1.0  0.19357  0.08608  0.63477  1.0000
  H   H31       1.0  0.13341  0.15898  0.62550  1.0000
  H   H32       1.0  0.13266  0.10166  0.55380  1.0000
  H   H33       1.0  0.11921  0.12039  0.60168  1.0000
  H   H34       1.0  0.15751  0.12049  0.64418  1.0000
  H   H35       1.0  0.18333  0.13397  0.61673  1.0000
  H   H36       1.0  0.17287  0.17234  0.64357  1.0000
  H   H37       1.0  0.18944  0.09864  0.55720  1.0000
  H   H38       1.0  0.16376  0.08365  0.58331  1.0000
  H   H39       1.0  0.10513  0.14956  0.52672  1.0000
  H   H40       1.0  0.08958  0.09556  0.52425  1.0000
  H   H41       1.0  0.07774  0.11949  0.56604  1.0000
  H   H42       1.0  0.07328  0.12182  0.49781  1.0000
  H   H43       1.0  0.17472  0.21596  0.61578  1.0000
  H   H44       1.0  0.20078  0.06770  0.62297  1.0000
  H   H45       1.0  0.20901  0.09812  0.64363  1.0000
  H   H46       1.0  0.18264  0.08364  0.66993  1.0000
  C   C28       1.0  0.22031  0.03129  0.85173  1.0000
  N   N2        1.0  0.05421  0.31183  0.11357  1.0000
  N   N3        1.0  0.07548  0.02750  0.85275  1.0000
  H   H47       1.0  0.10316  0.06446  0.91260  1.0000
  H   H48       1.0  0.07176  0.30127  0.04263  1.0000
  C   C29       1.0  0.02188  0.25418  0.58205  1.0000
  H   H49       1.0  0.13245  0.17146  0.56356  1.0000
  C   C30       1.0  0.14929  0.00572  0.71048  1.0000
  C   C31       1.0  0.07937  0.01504  0.70501  1.0000
  H   H50       1.0  0.04734  0.26086  0.75092  1.0000
  H   H51       1.0  0.00904  0.24387  0.60636  1.0000
  C   C32       1.0  0.08775  0.27878  0.13172  1.0000
  H   H52       1.0  0.19871  0.08786  0.80346  1.0000
  N   N4        1.0  0.22488  0.01895  0.90272  1.0000
  C   C33       1.0  0.10208  0.03273  0.86020  1.0000
  H   H53       1.0  0.13733  0.16113  0.47618  1.0000
  H   H54       1.0  0.05079  0.02379  0.78832  1.0000
  C   C34       1.0  0.20934  0.05786  0.85427  1.0000
  H   H55       1.0  0.22052  0.12413  0.12077  1.0000
  H   H56       1.0  0.14496  0.20817  0.63645  1.0000
  H   H57       1.0  0.11599  0.25359  0.15916  1.0000
  C   C35       1.0  0.00817  0.22453  0.51299  1.0000
  C   C36       1.0  0.06979  0.00194  0.87133  1.0000
  C   C37       1.0  0.04870  0.31959  0.58582  1.0000
  H   H58       1.0  0.16229  0.11976  0.49673  1.0000
  H   H59       1.0  0.23720  0.03155  0.82884  1.0000
  H   H60       1.0  0.06239  0.29379  0.18580  1.0000
  H   H61       1.0  0.00231  0.31677  0.09495  1.0000
  H   H62       1.0  0.05934  0.28186  0.56724  1.0000
  H   H63       1.0  0.01649  0.14038  0.46172  1.0000
  C   C38       1.0  0.22547  0.14368  0.12611  1.0000
  H   H64       1.0  0.10482  0.01400  0.76701  1.0000
  C   C39       1.0  0.05518  0.26589  0.66981  1.0000
  H   H65       1.0  0.01585  0.22547  0.31205  1.0000
  H   H66       1.0  0.06496  0.06575  0.86297  1.0000
  C   C40       1.0  0.16604  0.17749  0.60479  1.0000
  H   H67       1.0  0.04273  0.27741  0.08070  1.0000
  C   C41       1.0  0.13719  0.04518  0.91764  1.0000
  C   C42       1.0  0.16845  0.15566  0.42904  1.0000
  H   H68       1.0  0.14197  0.05101  0.95710  1.0000
  H   H69       1.0  0.07631  0.26327  0.11961  1.0000
  H   H70       1.0  0.08417  0.31495  0.16656  1.0000
  H   H71       1.0  0.02965  0.25622  0.50039  1.0000
  C   C43       1.0  0.03238  0.04493  0.87228  1.0000
  C   C44       1.0  0.03498  0.29319  0.10281  1.0000
  H   H72       1.0  0.16352  0.17168  0.40432  1.0000
  H   H73       1.0  0.09047  0.00211  0.68143  1.0000
  C   C45       1.0  0.06991  0.02851  0.79600  1.0000
  H   H74       1.0  0.01452  0.17371  0.45736  1.0000
  H   H75       1.0  0.16173  0.13870  0.41035  1.0000
  C   C46       1.0  0.15872  0.20480  0.60642  1.0000
  S   S17       1.0  0.10269  0.32089  0.28007  1.0000
  H   H76       1.0  0.05420  0.24582  0.66215  1.0000
  H   H77       1.0  0.08364  0.03418  0.69354  1.0000
  H   H78       1.0  0.03953  0.24416  0.58535  1.0000
  H   H79       1.0  0.02379  0.21205  0.52176  1.0000
  H   H80       1.0  0.20749  0.02039  0.82833  1.0000
  C   C47       1.0  0.07199  0.30069  0.15144  1.0000
  C   C48       1.0  0.06167  0.26861  0.72648  1.0000
  H   H81       1.0  0.01407  0.09333  0.60619  1.0000
  H   H82       1.0  0.07886  0.25835  0.73463  1.0000
  C   C49       1.0  0.00911  0.15617  0.43903  1.0000
  H   H83       1.0  0.11707  0.28405  0.18665  1.0000
  H   H84       1.0  0.22722  0.07313  0.78771  1.0000
  H   H85       1.0  0.09902  0.28428  0.09887  1.0000
  C   C50       1.0  0.15704  0.15907  0.48179  1.0000
  C   C51       1.0  0.04237  0.29314  0.56915  1.0000
  S   S18       1.0  0.00317  0.26734  0.24797  1.0000
  H   H86       1.0  0.20195  0.01406  0.34664  1.0000
  H   H87       1.0  0.02436  0.08275  0.89625  1.0000
  C   C52       1.0  0.00859  0.10197  0.64302  1.0000
  C   C53       1.0  0.06014  0.04727  0.87821  1.0000
  C   C54       1.0  0.17725  0.99954  0.00453  1.0000
  H   H88       1.0  0.03615  0.29471  0.52861  1.0000
  H   H89       1.0  0.01766  0.31130  0.03552  1.0000
  H   H90       1.0  0.18725  0.00863  0.90203  1.0000
  C   C55       1.0  0.08529  0.01095  0.76166  1.0000
  C   C56       1.0  0.15593  0.01108  0.76104  1.0000
  C   C57       1.0  0.01431  0.25121  0.52515  1.0000
  H   H91       1.0  0.15131  0.21101  0.56882  1.0000
  H   H92       1.0  0.14529  0.02657  0.91093  1.0000
  H   H93       1.0  0.05851  0.01117  0.95035  1.0000
  N   N5        1.0  0.02372  0.28039  0.60098  1.0000
  H   H94       1.0  0.04214  0.32590  0.21774  1.0000
  H   H95       1.0  0.02327  0.06022  0.94726  1.0000
  H   H96       1.0  0.21240  0.15230  0.15314  1.0000
  C   C58       1.0  0.06621  0.31827  0.06372  1.0000
  H   H97       1.0  0.10843  0.04551  0.83001  1.0000
  C   C59       1.0  0.20100  0.01583  0.92916  1.0000
  H   H98       1.0  0.23080  0.05083  0.95163  1.0000
  S   S19       1.0  0.23856  0.07704  0.17674  1.0000
  H   H99       1.0  0.00562  0.32658  0.64043  1.0000
  C   C60       1.0  0.24084  0.03441  0.93647  1.0000
  H   H100      1.0  0.10812  0.32002  0.00279  1.0000
  H   H101      1.0  0.11323  0.01556  0.85501  1.0000
  H   H102      1.0  0.14494  0.05859  0.89052  1.0000
  C   C61       1.0  0.03077  0.27920  0.65698  1.0000
  H   H103      1.0  0.10236  0.03546  0.94515  1.0000
  C   C62       1.0  0.01908  0.06370  0.90620  1.0000
  H   H104      1.0  0.02640  0.02632  0.88334  1.0000
  H   H105      1.0  0.18845  0.15441  0.43233  1.0000
  H   H106      1.0  0.07017  0.27358  0.64736  1.0000
  C   C63       1.0  0.20860  0.06986  0.80131  1.0000
  H   H107      1.0  0.19926  0.05802  0.77313  1.0000
  H   H108      1.0  0.06399  0.04824  0.91986  1.0000
  H   H109      1.0  0.17284  0.01855  0.01791  1.0000
  H   H110      1.0  0.07196  0.04765  0.78141  1.0000
  H   H111      1.0  0.22390  0.15339  0.08873  1.0000
  H   H112      1.0  0.22880  0.01184  0.38665  1.0000
  H   H113      1.0  0.01717  0.15541  0.40018  1.0000
  H   H114      1.0  0.01510  0.31812  0.18320  1.0000
  C   C64       1.0  0.00531  0.12034  0.78744  1.0000
  H   H115      1.0  0.06415  0.28831  0.73646  1.0000
  C   C65       1.0  0.06860  0.32994  0.55230  1.0000
  H   H116      1.0  0.00607  0.12213  0.63706  1.0000
  H   H117      1.0  0.05315  0.32800  0.03777  1.0000
  H   H118      1.0  0.00855  0.01974  0.71549  1.0000
  H   H119      1.0  0.13063  0.33209  0.19100  1.0000
  H   H120      1.0  0.10210  0.32800  0.09509  1.0000
  H   H121      1.0  0.06000  0.01161  0.69717  1.0000
  C   C66       1.0  0.00471  0.14333  0.76323  1.0000
  H   H122      1.0  0.00427  0.06015  0.69610  1.0000
  H   H123      1.0  0.08511  0.31795  0.55394  1.0000
  C   C67       1.0  0.21785  0.00227  0.35726  1.0000
  S   S20       1.0  0.00951  0.33263  0.46253  1.0000
  H   H124      1.0  0.03272  0.33206  0.58121  1.0000
  H   H125      1.0  0.06227  0.33156  0.51196  1.0000
  C   C68       1.0  0.02952  0.33188  0.18687  1.0000
  H   H126      1.0  0.22904  0.99961  0.32241  1.0000
  H   H127      1.0  0.20786  0.55534  0.85137  1.0000
  H   H128      1.0  0.07393  0.66409  0.77241  1.0000
  C   C69       1.0  0.00309  0.44208  0.86761  1.0000
  H   H129      1.0  0.18619  0.58730  0.86904  1.0000
  H   H130      1.0  0.21923  0.65606  0.69427  1.0000
  H   H131      1.0  0.18207  0.42015  0.06356  1.0000
  H   H132      1.0  0.00279  0.49315  0.94675  1.0000
  H   H133      1.0  0.15778  0.44273  0.14231  1.0000
  H   H134      1.0  0.08210  0.47506  0.90216  1.0000
  Fe  Fe11      1.0  0.21194  0.64783  0.53312  1.0000
  S   S21       1.0  0.20010  0.60910  0.54583  1.0000
  C   C70       1.0  0.24474  0.45695  0.83770  1.0000
  Fe  Fe12      1.0  0.10666  0.42036  0.95184  1.0000
  S   S22       1.0  0.09066  0.44355  0.01411  1.0000
  S   S23       1.0  0.07997  0.39854  0.90569  1.0000
  Fe  Fe13      1.0  0.15787  0.43759  0.97354  1.0000
  S   S24       1.0  0.14506  0.46108  0.04014  1.0000
  S   S25       1.0  0.19795  0.44038  0.95319  1.0000
  Fe  Fe14      1.0  0.12165  0.42888  0.06184  1.0000
  S   S26       1.0  0.11051  0.41846  0.14358  1.0000
  Fe  Fe15      1.0  0.11518  0.47291  0.98693  1.0000
  S   S27       1.0  0.09955  0.51082  0.96981  1.0000
  S   S28       1.0  0.13695  0.40432  0.00003  1.0000
  S   S29       1.0  0.12881  0.45099  0.91984  1.0000
  Fe  Fe16      1.0  0.13880  0.64519  0.99715  1.0000
  S   S30       1.0  0.10945  0.64685  0.93795  1.0000
  S   S31       1.0  0.15155  0.60918  0.03382  1.0000
  C   C71       1.0  0.24129  0.64130  0.75828  1.0000
  H   H135      1.0  0.17180  0.63534  0.33695  1.0000
  H   H136      1.0  0.17081  0.37308  0.22104  1.0000
  H   H137      1.0  0.05713  0.60845  0.12095  1.0000
  H   H138      1.0  0.03088  0.58078  0.13201  1.0000
  C   C72       1.0  0.22231  0.63837  0.71471  1.0000
  C   C73       1.0  0.20997  0.44635  0.89105  1.0000
  H   H139      1.0  0.05802  0.34839  0.14522  1.0000
  H   H140      1.0  0.05520  0.48449  0.07015  1.0000
  C   C74       1.0  0.20625  0.44891  0.79795  1.0000
  C   C75       1.0  0.19591  0.44471  0.84648  1.0000
  H   H141      1.0  0.19520  0.44728  0.76384  1.0000
  H   H142      1.0  0.17718  0.43969  0.84930  1.0000
  C   C76       1.0  0.13687  0.58175  0.01690  1.0000
  C   C77       1.0  0.11931  0.58166  0.97832  1.0000
  C   C78       1.0  0.10823  0.55973  0.96422  1.0000
  C   C79       1.0  0.11459  0.53755  0.98849  1.0000
  C   C80       1.0  0.13205  0.53739  0.02747  1.0000
  C   C81       1.0  0.14317  0.55951  0.04165  1.0000
  H   H143      1.0  0.11434  0.59842  0.95884  1.0000
  H   H144      1.0  0.09487  0.55997  0.93381  1.0000
  H   H145      1.0  0.13689  0.52032  0.04672  1.0000
  H   H146      1.0  0.15673  0.55942  0.07167  1.0000
  C   C82       1.0  0.22543  0.58917  0.54687  1.0000
  H   H147      1.0  0.16414  0.66040  0.44173  1.0000
  C   C83       1.0  0.14069  0.48688  0.79032  1.0000
  C   C84       1.0  0.02555  0.62993  0.91588  1.0000
  C   C85       1.0  0.13445  0.64062  0.51302  1.0000
  C   C86       1.0  0.22493  0.56705  0.57450  1.0000
  H   H148      1.0  0.01310  0.54020  0.12887  1.0000
  H   H149      1.0  0.16756  0.58342  0.92422  1.0000
  H   H150      1.0  0.15671  0.36545  0.30743  1.0000
  H   H151      1.0  0.20884  0.56222  0.59514  1.0000
  H   H152      1.0  0.02534  0.45971  0.02188  1.0000
  H   H153      1.0  0.08004  0.50521  0.07511  1.0000
  H   H154      1.0  0.23151  0.39325  0.15275  1.0000
  H   H155      1.0  0.01047  0.42214  0.06211  1.0000
  C   C87       1.0  0.19810  0.63029  0.73611  1.0000
  H   H156      1.0  0.04208  0.58139  0.94049  1.0000
  H   H157      1.0  0.18503  0.52310  0.03139  1.0000
  H   H158      1.0  0.17033  0.49931  0.95580  1.0000
  H   H159      1.0  0.20022  0.49854  0.93008  1.0000
  C   C88       1.0  0.12098  0.63531  0.56370  1.0000
  H   H160      1.0  0.15250  0.60639  0.82070  1.0000
  C   C89       1.0  0.04228  0.64604  0.93748  1.0000
  C   C90       1.0  0.17059  0.49066  0.16804  1.0000
  C   C91       1.0  0.12012  0.36870  0.16559  1.0000
  C   C92       1.0  0.10581  0.38976  0.17537  1.0000
  C   C93       1.0  0.08910  0.38893  0.21581  1.0000
  C   C94       1.0  0.08696  0.36762  0.24653  1.0000
  H   H161      1.0  0.12424  0.61594  0.57591  1.0000
  H   H162      1.0  0.07802  0.40508  0.22414  1.0000
  H   H163      1.0  0.07427  0.36751  0.27785  1.0000
  C   C95       1.0  0.01647  0.37346  0.00277  1.0000
  C   C96       1.0  0.03771  0.38150  0.02624  1.0000
  C   C97       1.0  0.05731  0.38878  0.99657  1.0000
  C   C98       1.0  0.05586  0.38813  0.94312  1.0000
  C   C99       1.0  0.03481  0.37958  0.91949  1.0000
  C   C100      1.0  0.01511  0.37227  0.94928  1.0000
  H   H164      1.0  0.03890  0.38267  0.06752  1.0000
  H   H165      1.0  0.07366  0.39464  0.01527  1.0000
  H   H166      1.0  0.03364  0.37886  0.87813  1.0000
  H   H167      1.0  0.18835  0.38238  0.14977  1.0000
  H   H168      1.0  0.00958  0.59357  0.08750  1.0000
  H   H169      1.0  0.05711  0.64334  0.40286  1.0000
  H   H170      1.0  0.14407  0.66119  0.38700  1.0000
  H   H171      1.0  0.24522  0.53962  0.80724  1.0000
  H   H172      1.0  0.11185  0.66205  0.43136  1.0000
  H   H173      1.0  0.05974  0.64781  0.92006  1.0000
  N   N6        1.0  0.18532  0.41984  0.17894  1.0000
  H   H174      1.0  0.20858  0.49955  0.83236  1.0000
  C   C101      1.0  0.16946  0.41386  0.22402  1.0000
  C   C102      1.0  0.17648  0.44438  0.15780  1.0000
  C   C103      1.0  0.21142  0.42199  0.19546  1.0000
  C   C104      1.0  0.22753  0.39819  0.19311  1.0000
  H   H175      1.0  0.13289  0.36875  0.13452  1.0000
  H   H176      1.0  0.11957  0.64779  0.64245  1.0000
  H   H177      1.0  0.03152  0.34471  0.10817  1.0000
  H   H178      1.0  0.21530  0.52186  0.00541  1.0000
  H   H179      1.0  0.18477  0.49445  0.13934  1.0000
  C   C105      1.0  0.17605  0.46634  0.19587  1.0000
  C   C106      1.0  0.04555  0.52271  0.05361  1.0000
  H   H180      1.0  0.05879  0.54980  0.10816  1.0000
  H   H181      1.0  0.15009  0.41570  0.21262  1.0000
  H   H182      1.0  0.03151  0.37071  0.20775  1.0000
  H   H183      1.0  0.04009  0.60891  0.03105  1.0000
  H   H184      1.0  0.01279  0.42452  0.96425  1.0000
  H   H185      1.0  0.22077  0.43578  0.17141  1.0000
  H   H186      1.0  0.21242  0.42945  0.23516  1.0000
  H   H187      1.0  0.03320  0.55006  0.87691  1.0000
  H   H188      1.0  0.21888  0.38214  0.21067  1.0000
  H   H189      1.0  0.05421  0.55220  0.96136  1.0000
  C   C107      1.0  0.21682  0.51746  0.84096  1.0000
  H   H190      1.0  0.13586  0.38641  0.27607  1.0000
  C   C108      1.0  0.00288  0.55633  0.11324  1.0000
  H   H191      1.0  0.17206  0.42736  0.25552  1.0000
  H   H192      1.0  0.01936  0.53092  0.92425  1.0000
  H   H193      1.0  0.24517  0.53445  0.59813  1.0000
  C   C109      1.0  0.17306  0.38819  0.24911  1.0000
  C   C110      1.0  0.02049  0.57659  0.09671  1.0000
  C   C111      1.0  0.06817  0.60199  0.08817  1.0000
  C   C112      1.0  0.19770  0.51246  0.00661  1.0000
  C   C113      1.0  0.02252  0.56582  0.00527  1.0000
  H   H194      1.0  0.15678  0.62183  0.88095  1.0000
  H   H195      1.0  0.09499  0.61888  0.03912  1.0000
  H   H196      1.0  0.06473  0.58982  0.01067  1.0000
  H   H197      1.0  0.21163  0.41519  0.08999  1.0000
  H   H198      1.0  0.17260  0.49593  0.86486  1.0000
  N   N7        1.0  0.03732  0.57048  0.05293  1.0000
  C   C114      1.0  0.06186  0.65719  0.43239  1.0000
  N   N8        1.0  0.12546  0.62793  0.46525  1.0000
  C   C115      1.0  0.11645  0.60237  0.47571  1.0000
  C   C116      1.0  0.10572  0.64305  0.43907  1.0000
  C   C117      1.0  0.14613  0.62532  0.42786  1.0000
  H   H199      1.0  0.16162  0.46403  0.22471  1.0000
  H   H200      1.0  0.15373  0.63548  0.52063  1.0000
  C   C118      1.0  0.13596  0.58332  0.49436  1.0000
  C   C119      1.0  0.15728  0.64962  0.40881  1.0000
  H   H201      1.0  0.14934  0.64780  0.61515  1.0000
  C   C120      1.0  0.00225  0.44220  0.96332  1.0000
  H   H202      1.0  0.16946  0.51136  0.77394  1.0000
  C   C121      1.0  0.12459  0.56077  0.51863  1.0000
  H   H203      1.0  0.09528  0.62930  0.10443  1.0000
  H   H204      1.0  0.10803  0.59463  0.44046  1.0000
  H   H205      1.0  0.10181  0.60277  0.50441  1.0000
  H   H206      1.0  0.19364  0.46795  0.21604  1.0000
  H   H207      1.0  0.10151  0.63480  0.40098  1.0000
  H   H208      1.0  0.14042  0.61461  0.39354  1.0000
  H   H209      1.0  0.16147  0.61467  0.44553  1.0000
  C   C122      1.0  0.10225  0.34711  0.23857  1.0000
  H   H210      1.0  0.20986  0.37053  0.06990  1.0000
  H   H211      1.0  0.00039  0.44909  0.09669  1.0000
  H   H212      1.0  0.20065  0.49385  0.02362  1.0000
  H   H213      1.0  0.14695  0.57673  0.46140  1.0000
  H   H214      1.0  0.14841  0.59151  0.52283  1.0000
  S   S32       1.0  0.24260  0.46021  0.73044  1.0000
  H   H215      1.0  0.00374  0.36233  0.17557  1.0000
  H   H216      1.0  0.07477  0.62980  0.48486  1.0000
  H   H217      1.0  0.16218  0.39874  0.12956  1.0000
  H   H218      1.0  0.19213  0.63204  0.39117  1.0000
  C   C123      1.0  0.00249  0.62796  0.93690  1.0000
  H   H219      1.0  0.04249  0.49458  0.87495  1.0000
  C   C124      1.0  0.04354  0.33511  0.13633  1.0000
  H   H220      1.0  0.20354  0.38892  0.01368  1.0000
  H   H221      1.0  0.13432  0.66091  0.50712  1.0000
  H   H222      1.0  0.11228  0.55173  0.49097  1.0000
  H   H223      1.0  0.13903  0.54729  0.52998  1.0000
  H   H224      1.0  0.11435  0.56615  0.55350  1.0000
  C   C125      1.0  0.07309  0.47017  0.86576  1.0000
  H   H225      1.0  0.22920  0.52040  0.76206  1.0000
  H   H226      1.0  0.08414  0.66076  0.49913  1.0000
  H   H227      1.0  0.19155  0.64336  0.76590  1.0000
  C   C126      1.0  0.01275  0.65878  0.00050  1.0000
  C   C127      1.0  0.10059  0.33805  0.01596  1.0000
  H   H228      1.0  0.14091  0.52623  0.78952  1.0000
  C   C128      1.0  0.19368  0.40678  0.08512  1.0000
  H   H229      1.0  0.15702  0.39786  0.32288  1.0000
  C   C129      1.0  0.24626  0.59543  0.52035  1.0000
  C   C130      1.0  0.24545  0.55136  0.57624  1.0000
  H   H230      1.0  0.07155  0.63980  0.06168  1.0000
  H   H231      1.0  0.00157  0.36111  0.35575  1.0000
  H   H232      1.0  0.14544  0.51166  0.88110  1.0000
  C   C131      1.0  0.16769  0.58314  0.88172  1.0000
  C   C132      1.0  0.05416  0.54913  0.06660  1.0000
  H   H233      1.0  0.19985  0.61156  0.75300  1.0000
  H   H234      1.0  0.02634  0.51989  0.06259  1.0000
  H   H235      1.0  0.24557  0.45378  0.92029  1.0000
  H   H236      1.0  0.18446  0.62990  0.70474  1.0000
  C   C133      1.0  0.23444  0.45251  0.88623  1.0000
  C   C134      1.0  0.00613  0.45530  0.01555  1.0000
  C   C135      1.0  0.23070  0.45513  0.79307  1.0000
  C   C136      1.0  0.19792  0.53878  0.83920  1.0000
  H   H237      1.0  0.03778  0.46874  0.83343  1.0000
  H   H238      1.0  0.07181  0.55089  0.04680  1.0000
  C   C137      1.0  0.23669  0.52148  0.80158  1.0000
  C   C138      1.0  0.01403  0.65453  0.15702  1.0000
  H   H239      1.0  0.05729  0.50477  0.12455  1.0000
  C   C139      1.0  0.11872  0.34782  0.19768  1.0000
  C   C140      1.0  0.03722  0.56294  0.95506  1.0000
  C   C141      1.0  0.01775  0.35621  0.20376  1.0000
  C   C142      1.0  0.15121  0.60428  0.86292  1.0000
  H   H240      1.0  0.22565  0.51667  0.87918  1.0000
  H   H241      1.0  0.10127  0.63831  0.56000  1.0000
  H   H242      1.0  0.24195  0.62399  0.78113  1.0000
  C   C143      1.0  0.18181  0.40089  0.13737  1.0000
  H   H243      1.0  0.13458  0.48606  0.74978  1.0000
  H   H244      1.0  0.04109  0.47130  0.95120  1.0000
  C   C144      1.0  0.17832  0.64427  0.37258  1.0000
  H   H245      1.0  0.07729  0.45053  0.85671  1.0000
  H   H246      1.0  0.00925  0.58128  0.99889  1.0000
  C   C145      1.0  0.04592  0.47444  0.87030  1.0000
  H   H247      1.0  0.00919  0.35358  0.24154  1.0000
  C   C146      1.0  0.18728  0.50983  0.95263  1.0000
  H   H248      1.0  0.24671  0.61245  0.49884  1.0000
  H   H249      1.0  0.19710  0.54775  0.93595  1.0000
  H   H250      1.0  0.19110  0.38667  0.26752  1.0000
  H   H251      1.0  0.13213  0.60102  0.87318  1.0000
  C   C147      1.0  0.08338  0.62381  0.07218  1.0000
  H   H252      1.0  0.15611  0.56041  0.81900  1.0000
  H   H253      1.0  0.12467  0.48556  0.81545  1.0000
  C   C148      1.0  0.12989  0.65167  0.60714  1.0000
  H   H254      1.0  0.01897  0.43029  0.85628  1.0000
  H   H255      1.0  0.16634  0.54305  0.95031  1.0000
  C   C149      1.0  0.19670  0.38370  0.05203  1.0000
  C   C150      1.0  0.06047  0.50317  0.08270  1.0000
  H   H256      1.0  0.08027  0.48185  0.83473  1.0000
  C   C151      1.0  0.08831  0.33532  0.06785  1.0000
  H   H257      1.0  0.19296  0.54228  0.79841  1.0000
  H   H258      1.0  0.14085  0.55483  0.87752  1.0000
  C   C152      1.0  0.02278  0.55020  0.91311  1.0000
  H   H259      1.0  0.17006  0.50604  0.19611  1.0000
  H   H260      1.0  0.04772  0.51898  0.01208  1.0000
  S   S33       1.0  0.24272  0.66381  0.57689  1.0000
  H   H261      1.0  0.11561  0.35119  0.01943  1.0000
  H   H262      1.0  0.08068  0.58701  0.10135  1.0000
  H   H263      1.0  0.03041  0.61916  0.88245  1.0000
  H   H264      1.0  0.08761  0.34530  0.98675  1.0000
  H   H265      1.0  0.22803  0.62431  0.68618  1.0000
  H   H266      1.0  0.18782  0.45007  0.12496  1.0000
  C   C153      1.0  0.15453  0.38435  0.29142  1.0000
  H   H267      1.0  0.15276  0.49003  0.14834  1.0000
  H   H268      1.0  0.04534  0.44231  0.92086  1.0000
  H   H269      1.0  0.15301  0.47085  0.79770  1.0000
  C   C154      1.0  0.08166  0.64698  0.46817  1.0000
  H   H270      1.0  0.17912  0.37452  0.04682  1.0000
  N   N9        1.0  0.00866  0.45659  0.91588  1.0000
  N   N10       1.0  0.17555  0.53581  0.87114  1.0000
  C   C155      1.0  0.16186  0.51300  0.85671  1.0000
  C   C156      1.0  0.18173  0.53540  0.92774  1.0000
  C   C157      1.0  0.15905  0.55790  0.86089  1.0000
  C   C158      1.0  0.05210  0.59313  0.04306  1.0000
  C   C159      1.0  0.15370  0.51103  0.79996  1.0000
  H   H271      1.0  0.08262  0.35406  0.08064  1.0000
  C   C160      1.0  0.03560  0.46046  0.91711  1.0000
  H   H272      1.0  0.02295  0.63673  0.14662  1.0000
  H   H273      1.0  0.00527  0.56003  0.90629  1.0000
  H   H274      1.0  0.00112  0.49168  0.87926  1.0000
  H   H275      1.0  0.01125  0.54934  0.00958  1.0000
  H   H276      1.0  0.07329  0.34864  0.56596  1.0000
  S   S34       1.0  0.22209  0.66468  0.45805  1.0000
  H   H277      1.0  0.00902  0.65390  0.19816  1.0000
  C   C161      1.0  0.03581  0.66084  0.97931  1.0000
  H   H278      1.0  0.18696  0.66185  0.36222  1.0000
  H   H279      1.0  0.23366  0.65550  0.78480  1.0000
  H   H280      1.0  0.04540  0.66181  0.45485  1.0000
  H   H281      1.0  0.24893  0.40566  0.26164  1.0000
  H   H282      1.0  0.03577  0.66568  0.81925  1.0000
  Fe  Fe17      1.0  0.16850  0.88111  0.23678  1.0000
  S   S35       1.0  0.18702  0.84636  0.26639  1.0000
  S   S36       1.0  0.18689  0.90563  0.17914  1.0000
  Fe  Fe18      1.0  0.12251  0.87162  0.29339  1.0000
  S   S37       1.0  0.13714  0.83686  0.32769  1.0000
  S   S38       1.0  0.08464  0.87993  0.31838  1.0000
  Fe  Fe19      1.0  0.17078  0.85745  0.34209  1.0000
  S   S39       1.0  0.18962  0.85150  0.41841  1.0000
  Fe  Fe20      1.0  0.15161  0.82825  0.24982  1.0000
  S   S40       1.0  0.14344  0.78852  0.23102  1.0000
  S   S41       1.0  0.15510  0.89350  0.31406  1.0000
  S   S42       1.0  0.13442  0.86190  0.21379  1.0000
  Fe  Fe21      1.0  0.19753  0.90297  0.76782  1.0000
  S   S43       1.0  0.19200  0.93516  0.71392  1.0000
  Fe  Fe22      1.0  0.14429  0.70128  0.99624  1.0000
  Fe  Fe23      1.0  0.14362  0.89971  0.78902  1.0000
  S   S44       1.0  0.13425  0.93147  0.73763  1.0000
  S   S45       1.0  0.11405  0.87989  0.83039  1.0000
  Fe  Fe24      1.0  0.16060  0.91409  0.68278  1.0000
  S   S46       1.0  0.14616  0.91476  0.60138  1.0000
  Fe  Fe25      1.0  0.16620  0.94931  0.77326  1.0000
  Fe  Fe26      1.0  0.19799  0.69630  0.48331  1.0000
  S   S47       1.0  0.16789  0.88068  0.73175  1.0000
  S   S48       1.0  0.17383  0.91879  0.82951  1.0000
  H   H283      1.0  0.20546  0.97938  0.96626  1.0000
  H   H284      1.0  0.22640  0.96611  0.38523  1.0000
  S   S49       1.0  0.11488  0.70682  0.93723  1.0000
  S   S50       1.0  0.16524  0.73482  0.02079  1.0000
  H   H285      1.0  0.14321  0.88502  0.99153  1.0000
  H   H286      1.0  0.21678  0.87628  0.87895  1.0000
  H   H287      1.0  0.20733  0.87341  0.03145  1.0000
  H   H288      1.0  0.07319  0.95751  0.92575  1.0000
  C   C162      1.0  0.01065  0.72944  0.81777  1.0000
  H   H289      1.0  0.08445  0.72137  0.39143  1.0000
  H   H290      1.0  0.01553  0.71179  0.94572  1.0000
  C   C163      1.0  0.09822  0.71858  0.42052  1.0000
  H   H291      1.0  0.07262  0.72549  0.29824  1.0000
  H   H292      1.0  0.09432  0.73403  0.25086  1.0000
  C   C164      1.0  0.16191  0.92804  0.97627  1.0000
  C   C165      1.0  0.22661  0.74157  0.22308  1.0000
  C   C166      1.0  0.12281  0.71797  0.40706  1.0000
  C   C167      1.0  0.04775  0.85602  0.56894  1.0000
  C   C168      1.0  0.04201  0.92267  0.83418  1.0000
  C   C169      1.0  0.04280  0.89729  0.84362  1.0000
  C   C170      1.0  0.06516  0.88446  0.84453  1.0000
  C   C171      1.0  0.08660  0.89677  0.83435  1.0000
  C   C172      1.0  0.08576  0.92222  0.82615  1.0000
  C   C173      1.0  0.06353  0.93509  0.82603  1.0000
  H   H293      1.0  0.02626  0.88763  0.85063  1.0000
  H   H294      1.0  0.06591  0.86490  0.85221  1.0000
  H   H295      1.0  0.10222  0.93206  0.82020  1.0000
  H   H296      1.0  0.06291  0.95460  0.81828  1.0000
  C   C174      1.0  0.06863  0.85295  0.30620  1.0000
  C   C175      1.0  0.07422  0.83882  0.26293  1.0000
  C   C176      1.0  0.06223  0.81686  0.25338  1.0000
  C   C177      1.0  0.04500  0.80853  0.28779  1.0000
  C   C178      1.0  0.03943  0.82247  0.33148  1.0000
  C   C179      1.0  0.05105  0.84489  0.34036  1.0000
  H   H297      1.0  0.08763  0.84494  0.23632  1.0000
  H   H298      1.0  0.03680  0.84597  0.49159  1.0000
  S   S51       1.0  0.23646  0.89000  0.77976  1.0000
  H   H299      1.0  0.04668  0.85575  0.37390  1.0000
  C   C180      1.0  0.15767  0.75047  0.07773  1.0000
  C   C181      1.0  0.16809  0.77332  0.08825  1.0000
  C   C182      1.0  0.16308  0.78575  0.13442  1.0000
  C   C183      1.0  0.14779  0.77527  0.17026  1.0000
  C   C184      1.0  0.13712  0.75264  0.15937  1.0000
  C   C185      1.0  0.14208  0.74022  0.11335  1.0000
  H   H300      1.0  0.18037  0.78114  0.06095  1.0000
  H   H301      1.0  0.17151  0.80301  0.14319  1.0000
  H   H302      1.0  0.12522  0.74453  0.18698  1.0000
  H   H303      1.0  0.13426  0.72251  0.10589  1.0000
  C   C186      1.0  0.17698  0.86799  0.47030  1.0000
  C   C187      1.0  0.15672  0.88337  0.46295  1.0000
  C   C188      1.0  0.14729  0.89718  0.50386  1.0000
  C   C189      1.0  0.15818  0.89599  0.55239  1.0000
  C   C190      1.0  0.17833  0.88042  0.56017  1.0000
  C   C191      1.0  0.18766  0.86637  0.51914  1.0000
  H   H304      1.0  0.14832  0.88471  0.42555  1.0000
  H   H305      1.0  0.13161  0.90909  0.49768  1.0000
  H   H306      1.0  0.18683  0.87939  0.59758  1.0000
  H   H307      1.0  0.20341  0.85454  0.52506  1.0000
  C   C192      1.0  0.18819  0.93769  0.19131  1.0000
  C   C193      1.0  0.17749  0.94839  0.23462  1.0000
  C   C194      1.0  0.18007  0.97370  0.24471  1.0000
  C   C195      1.0  0.20433  0.97770  0.16870  1.0000
  C   C196      1.0  0.20105  0.95264  0.15773  1.0000
  H   H308      1.0  0.16722  0.93721  0.26026  1.0000
  H   H309      1.0  0.24880  0.94342  0.18494  1.0000
  H   H310      1.0  0.20893  0.94483  0.12353  1.0000
  N   N11       1.0  0.05386  0.86504  0.66641  1.0000
  C   C197      1.0  0.05366  0.89239  0.65582  1.0000
  C   C198      1.0  0.04076  0.70138  0.85738  1.0000
  C   C199      1.0  0.04069  0.86109  0.71627  1.0000
  C   C200      1.0  0.07911  0.85403  0.67137  1.0000
  C   C201      1.0  0.09933  0.86574  0.63892  1.0000
  C   C202      1.0  0.06350  0.90866  0.69983  1.0000
  C   C203      1.0  0.03724  0.83382  0.73244  1.0000
  C   C204      1.0  0.08366  0.74077  0.05767  1.0000
  C   C205      1.0  0.12217  0.84940  0.63920  1.0000
  C   C206      1.0  0.07029  0.93422  0.68085  1.0000
  C   C207      1.0  0.02536  0.83205  0.78494  1.0000
  C   C208      1.0  0.04762  0.72797  0.20745  1.0000
  H   H311      1.0  0.06395  0.89660  0.62073  1.0000
  H   H312      1.0  0.05613  0.74638  0.20710  1.0000
  H   H313      1.0  0.03480  0.72896  0.23992  1.0000
  H   H314      1.0  0.16256  0.82480  0.05509  1.0000
  H   H315      1.0  0.05052  0.86978  0.74849  1.0000
  H   H316      1.0  0.08566  0.85517  0.71183  1.0000
  H   H317      1.0  0.07890  0.83393  0.66273  1.0000
  H   H318      1.0  0.10424  0.88389  0.65517  1.0000
  H   H319      1.0  0.09395  0.86892  0.59863  1.0000
  H   H320      1.0  0.04927  0.91121  0.72925  1.0000
  H   H321      1.0  0.07959  0.90000  0.71858  1.0000
  H   H322      1.0  0.18482  0.69063  0.28918  1.0000
  C   C209      1.0  0.05116  0.72209  0.11276  1.0000
  C   C210      1.0  0.17631  0.90563  0.99609  1.0000
  C   C211      1.0  0.03962  0.85229  0.62493  1.0000
  H   H323      1.0  0.16414  0.87538  0.91198  1.0000
  Fe  Fe27      1.0  0.21722  0.69547  0.59276  1.0000
  H   H324      1.0  0.11860  0.83124  0.62145  1.0000
  H   H325      1.0  0.13655  0.85842  0.61703  1.0000
  H   H326      1.0  0.19209  0.90658  0.40347  1.0000
  H   H327      1.0  0.03699  0.84004  0.81503  1.0000
  C   C212      1.0  0.01459  0.72553  0.91391  1.0000
  C   C213      1.0  0.19566  0.70298  0.76594  1.0000
  H   H328      1.0  0.03839  0.75561  0.88988  1.0000
  H   H329      1.0  0.00361  0.77125  0.75710  1.0000
  N   N12       1.0  0.01560  0.71248  0.86284  1.0000
  C   C214      1.0  0.04471  0.68345  0.81176  1.0000
  H   H330      1.0  0.10441  0.70941  0.54868  1.0000
  H   H331      1.0  0.00741  0.67031  0.03244  1.0000
  S   S52       1.0  0.21694  0.71190  0.67259  1.0000
  C   C215      1.0  0.20269  0.76260  0.28876  1.0000
  C   C216      1.0  0.18714  0.76281  0.33772  1.0000
  H   H332      1.0  0.05426  0.71616  0.85322  1.0000
  C   C217      1.0  0.03114  0.67572  0.14688  1.0000
  H   H333      1.0  0.17822  0.98723  0.03852  1.0000
  C   C218      1.0  0.18409  0.78896  0.35858  1.0000
  C   C219      1.0  0.14981  0.69958  0.25823  1.0000
  H   H334      1.0  0.00783  0.97645  0.74369  1.0000
  N   N13       1.0  0.20940  0.73764  0.26693  1.0000
  N   N14       1.0  0.17107  0.85988  0.02081  1.0000
  H   H335      1.0  0.08168  0.99138  0.77051  1.0000
  H   H336      1.0  0.05209  0.73388  0.93375  1.0000
  H   H337      1.0  0.21913  0.77347  0.29641  1.0000
  H   H338      1.0  0.19223  0.77368  0.26017  1.0000
  C   C220      1.0  0.19460  0.98006  0.42619  1.0000
  H   H339      1.0  0.16879  0.75615  0.32881  1.0000
  S   S53       1.0  0.05539  0.68338  0.00306  1.0000
  H   H340      1.0  0.15019  0.92279  0.94350  1.0000
  H   H341      1.0  0.17047  0.69105  0.64999  1.0000
  H   H342      1.0  0.16957  0.71632  0.31896  1.0000
  H   H343      1.0  0.04248  0.96953  0.92862  1.0000
  C   C221      1.0  0.19351  0.70156  0.71235  1.0000
  H   H344      1.0  0.15673  0.84621  0.84250  1.0000
  H   H345      1.0  0.17124  0.78912  0.39094  1.0000
  C   C222      1.0  0.23748  0.99437  0.89390  1.0000
  H   H346      1.0  0.17672  0.80137  0.32839  1.0000
  C   C223      1.0  0.06791  0.74435  0.10508  1.0000
  H   H347      1.0  0.12884  0.84658  0.67904  1.0000
  N   N15       1.0  0.03425  0.72370  0.15781  1.0000
  H   H348      1.0  0.24778  0.75202  0.60133  1.0000
  H   H349      1.0  0.14999  0.98408  0.37443  1.0000
  H   H350      1.0  0.19716  0.82815  0.09739  1.0000
  H   H351      1.0  0.02580  0.74996  0.00426  1.0000
  S   S54       1.0  0.12274  0.67581  0.04514  1.0000
  H   H352      1.0  0.05482  0.82364  0.73419  1.0000
  H   H353      1.0  0.07898  0.70313  0.19089  1.0000
  C   C224      1.0  0.24553  0.73170  0.33026  1.0000
  C   C225      1.0  0.13396  0.71163  0.49578  1.0000
  H   H354      1.0  0.23632  0.95128  0.27114  1.0000
  H   H355      1.0  0.22128  0.92193  0.27290  1.0000
  H   H356      1.0  0.09409  0.79215  0.33351  1.0000
  C   C226      1.0  0.01899  0.70091  0.16054  1.0000
  H   H357      1.0  0.06671  0.80606  0.21978  1.0000
  H   H358      1.0  0.21070  0.77489  0.18638  1.0000
  C   C227      1.0  0.15440  0.84353  0.05045  1.0000
  H   H359      1.0  0.06777  0.67425  0.41308  1.0000
  H   H360      1.0  0.12791  0.72031  0.36746  1.0000
  S   S55       1.0  0.03096  0.78054  0.27513  1.0000
  C   C228      1.0  0.03086  0.84295  0.53161  1.0000
  H   H361      1.0  0.04766  0.87577  0.55814  1.0000
  N   N16       1.0  0.11560  0.80067  0.48636  1.0000
  C   C229      1.0  0.10134  0.82468  0.48815  1.0000
  C   C230      1.0  0.10751  0.78358  0.52857  1.0000
  C   C231      1.0  0.14189  0.80644  0.49610  1.0000
  C   C232      1.0  0.11404  0.78853  0.43452  1.0000
  C   C233      1.0  0.08848  0.78315  0.41391  1.0000
  C   C234      1.0  0.10646  0.84349  0.44530  1.0000
  C   C235      1.0  0.15928  0.78384  0.50468  1.0000
  C   C236      1.0  0.08037  0.78440  0.54347  1.0000
  C   C237      1.0  0.07505  0.76558  0.58520  1.0000
  C   C238      1.0  0.08947  0.77596  0.35730  1.0000
  C   C239      1.0  0.09357  0.86815  0.45584  1.0000
  C   C240      1.0  0.18526  0.79207  0.51275  1.0000
  H   H362      1.0  0.10437  0.83379  0.52582  1.0000
  H   H363      1.0  0.08164  0.82165  0.48545  1.0000
  H   H364      1.0  0.11253  0.76413  0.51908  1.0000
  H   H365      1.0  0.11721  0.78779  0.56500  1.0000
  H   H366      1.0  0.14365  0.81868  0.53021  1.0000
  H   H367      1.0  0.14952  0.81690  0.46354  1.0000
  H   H368      1.0  0.12341  0.79977  0.40537  1.0000
  H   H369      1.0  0.12391  0.77049  0.43467  1.0000
  H   H370      1.0  0.07593  0.79922  0.41706  1.0000
  H   H371      1.0  0.08093  0.76746  0.43518  1.0000
  H   H372      1.0  0.12591  0.84699  0.44191  1.0000
  H   H373      1.0  0.09982  0.83659  0.40784  1.0000
  H   H374      1.0  0.15922  0.77119  0.47135  1.0000
  H   H375      1.0  0.15423  0.77311  0.53900  1.0000
  H   H376      1.0  0.07530  0.80269  0.55968  1.0000
  H   H377      1.0  0.06848  0.78076  0.51024  1.0000
  H   H378      1.0  0.05539  0.76591  0.59349  1.0000
  H   H379      1.0  0.08027  0.74671  0.57263  1.0000
  H   H380      1.0  0.08505  0.76992  0.62097  1.0000
  H   H381      1.0  0.10312  0.76106  0.35053  1.0000
  H   H382      1.0  0.07159  0.76927  0.34485  1.0000
  H   H383      1.0  0.03560  0.67512  0.10555  1.0000
  H   H384      1.0  0.09862  0.87540  0.49413  1.0000
  H   H385      1.0  0.09886  0.88184  0.42661  1.0000
  H   H386      1.0  0.07369  0.86609  0.45368  1.0000
  H   H387      1.0  0.19168  0.80218  0.47862  1.0000
  H   H388      1.0  0.18654  0.80422  0.54688  1.0000
  C   C241      1.0  0.20716  0.83757  0.06670  1.0000
  H   H389      1.0  0.04620  0.69130  0.89279  1.0000
  H   H390      1.0  0.04009  0.83201  0.63085  1.0000
  H   H391      1.0  0.13759  0.71586  0.25307  1.0000
  S   S56       1.0  0.01462  0.93965  0.83351  1.0000
  H   H392      1.0  0.08538  0.93275  0.65306  1.0000
  S   S57       1.0  0.18568  0.67776  0.55460  1.0000
  H   H393      1.0  0.17154  0.98193  0.27788  1.0000
  H   H394      1.0  0.21016  0.71686  0.33824  1.0000
  H   H395      1.0  0.09494  0.72371  0.06124  1.0000
  S   S58       1.0  0.06099  0.71662  0.49069  1.0000
  H   H396      1.0  0.05448  0.94363  0.66245  1.0000
  H   H397      1.0  0.11123  0.83369  0.10022  1.0000
  H   H398      1.0  0.20481  0.97235  0.87904  1.0000
  H   H399      1.0  0.15027  0.98690  0.69683  1.0000
  C   C242      1.0  0.03503  0.74408  0.92408  1.0000
  H   H400      1.0  0.08298  0.98827  0.85536  1.0000
  H   H401      1.0  0.24413  0.84951  0.05701  1.0000
  H   H402      1.0  0.21155  0.71092  0.78296  1.0000
  H   H403      1.0  0.17771  0.82802  0.97236  1.0000
  C   C243      1.0  0.12510  0.95595  0.35419  1.0000
  H   H404      1.0  0.23732  0.86556  0.96148  1.0000
  H   H405      1.0  0.15182  0.85098  0.08998  1.0000
  H   H406      1.0  0.04433  0.77339  0.97671  1.0000
  S   S59       1.0  0.16322  0.67032  0.95366  1.0000
  H   H407      1.0  0.03102  0.82278  0.53899  1.0000
  C   C244      1.0  0.16876  0.96416  0.49343  1.0000
  C   C245      1.0  0.14076  0.71445  0.44472  1.0000
  H   H408      1.0  0.02252  0.87039  0.71506  1.0000
  H   H409      1.0  0.23781  0.94260  0.90253  1.0000
  C   C246      1.0  0.07021  0.99765  0.92988  1.0000
  H   H410      1.0  0.13096  0.82844  0.99081  1.0000
  H   H411      1.0  0.00706  0.98298  0.10900  1.0000
  H   H412      1.0  0.15390  0.96901  0.59443  1.0000
  N   N17       1.0  0.18196  0.95735  0.44463  1.0000
  H   H413      1.0  0.05734  0.76175  0.09970  1.0000
  Fe  Fe28      1.0  0.03145  0.73057  0.43710  1.0000
  H   H414      1.0  0.17188  0.94323  0.36945  1.0000
  C   C247      1.0  0.06123  0.97194  0.94296  1.0000
  H   H415      1.0  0.15288  0.89161  0.05441  1.0000
  C   C248      1.0  0.09149  0.71565  0.47167  1.0000
  H   H416      1.0  0.02240  0.81243  0.79450  1.0000
  H   H417      1.0  0.06137  0.96935  0.98516  1.0000
  H   H418      1.0  0.03485  0.89910  0.64756  1.0000
  H   H419      1.0  0.09564  0.82124  0.04553  1.0000
  H   H420      1.0  0.23181  0.85486  0.12046  1.0000
  H   H421      1.0  0.18142  0.99559  0.42068  1.0000
  H   H422      1.0  0.17402  0.73901  0.23075  1.0000
  H   H423      1.0  0.19549  0.75151  0.36861  1.0000
  H   H424      1.0  0.06318  0.70551  0.11493  1.0000
  H   H425      1.0  0.05187  0.99621  0.85640  1.0000
  C   C249      1.0  0.19390  0.98835  0.21231  1.0000
  H   H426      1.0  0.02021  0.85820  0.62703  1.0000
  C   C250      1.0  0.16136  0.85587  0.92268  1.0000
  C   C251      1.0  0.17368  0.70754  0.28187  1.0000
  C   C252      1.0  0.19398  0.86218  0.05223  1.0000
  C   C253      1.0  0.15462  0.68243  0.72227  1.0000
  C   C254      1.0  0.02899  0.76102  0.96921  1.0000
  C   C255      1.0  0.17733  0.69386  0.79764  1.0000
  C   C256      1.0  0.23608  0.87818  0.88305  1.0000
  C   C257      1.0  0.15684  0.68336  0.77560  1.0000
  C   C258      1.0  0.15956  0.88526  0.01626  1.0000
  H   H427      1.0  0.04047  0.71969  0.07688  1.0000
  H   H428      1.0  0.20875  0.82501  0.03328  1.0000
  C   C259      1.0  0.20979  0.97726  0.37693  1.0000
  H   H429      1.0  0.09588  0.70374  0.27962  1.0000
  C   C260      1.0  0.06716  0.70860  0.22315  1.0000
  S   S60       1.0  0.02841  0.72102  0.35390  1.0000
  H   H430      1.0  0.11714  0.93899  0.37022  1.0000
  C   C261      1.0  0.17279  0.69150  0.69085  1.0000
  H   H431      1.0  0.23390  0.72345  0.20920  1.0000
  C   C262      1.0  0.21599  0.75571  0.17595  1.0000
  H   H432      1.0  0.15057  0.93611  0.00723  1.0000
  H   H433      1.0  0.13218  0.97263  0.42674  1.0000
  C   C263      1.0  0.14274  0.96727  0.39239  1.0000
  H   H434      1.0  0.02733  0.76327  0.15529  1.0000
  C   C264      1.0  0.18464  0.96709  0.54242  1.0000
  C   C265      1.0  0.22302  0.97512  0.86306  1.0000
  C   C266      1.0  0.24770  0.87217  0.92968  1.0000
  H   H435      1.0  0.18811  0.89868  0.96480  1.0000
  H   H436      1.0  0.11920  0.85671  0.01910  1.0000
  H   H437      1.0  0.01204  0.85027  0.53531  1.0000
  H   H438      1.0  0.14755  0.70963  0.52532  1.0000
  H   H439      1.0  0.15515  0.95001  0.50280  1.0000
  H   H440      1.0  0.22087  0.98109  0.82258  1.0000
  C   C267      1.0  0.16344  0.94870  0.40623  1.0000
  C   C268      1.0  0.10945  0.71182  0.50905  1.0000
  H   H441      1.0  0.24323  0.92952  0.32143  1.0000
  H   H442      1.0  0.16411  0.82040  0.88341  1.0000
  H   H443      1.0  0.24082  0.82418  0.10060  1.0000
  C   C269      1.0  0.17039  0.97948  0.58567  1.0000
  H   H444      1.0  0.19218  0.71329  0.21206  1.0000
  H   H445      1.0  0.07235  0.73937  0.02263  1.0000
  H   H446      1.0  0.14188  0.85382  0.93027  1.0000
  S   S61       1.0  0.22788  0.71658  0.52260  1.0000
  C   C270      1.0  0.20714  0.91910  0.41215  1.0000
  S   S62       1.0  0.17149  0.71379  0.42720  1.0000
  H   H447      1.0  0.09584  0.75664  0.05343  1.0000
  H   H448      1.0  0.18714  0.84204  0.86592  1.0000
  H   H449      1.0  0.08896  0.99857  0.94465  1.0000
  H   H450      1.0  0.06597  0.84783  0.56338  1.0000
  H   H451      1.0  0.19727  0.77565  0.51885  1.0000
  H   H452      1.0  0.19017  0.87231  0.08862  1.0000
  H   H453      1.0  0.19613  0.85322  0.95828  1.0000
  C   C271      1.0  0.12916  0.83916  0.02681  1.0000
  C   C272      1.0  0.18730  0.72505  0.24566  1.0000
  H   H454      1.0  0.02592  0.81621  0.35790  1.0000
  H   H455      1.0  0.21663  0.94430  0.47393  1.0000
  H   H456      1.0  0.02521  0.82429  0.70530  1.0000
  S   S63       1.0  0.02427  0.77124  0.42687  1.0000
  Fe  Fe29      1.0  0.01786  0.76096  0.34475  1.0000
  H   H457      1.0  0.01103  0.74632  0.10859  1.0000
  H   H458      1.0  0.07631  0.94556  0.71376  1.0000
  H   H459      1.0  0.20164  0.79605  0.37235  1.0000
  C   C273      1.0  0.17743  0.84852  0.96949  1.0000
  H   H460      1.0  0.12226  0.80560  0.07013  1.0000
  H   H461      1.0  0.14097  0.68636  0.28420  1.0000
  H   H462      1.0  0.00148  0.80770  0.64039  1.0000
  H   H463      1.0  0.08021  0.74646  0.13845  1.0000
  C   C274      1.0  0.23447  0.75721  0.13292  1.0000
  H   H464      1.0  0.18804  0.91204  0.02794  1.0000
  C   C275      1.0  0.16781  0.84011  0.87594  1.0000
  C   C276      1.0  0.08347  0.71859  0.26552  1.0000
  C   C277      1.0  0.11371  0.82401  0.06302  1.0000
  Fe  Fe30      1.0  0.09481  0.67885  0.98249  1.0000
  C   C278      1.0  0.23254  0.84192  0.08749  1.0000
  H   H465      1.0  0.20729  0.98677  0.45590  1.0000
  H   H466      1.0  0.11020  0.96935  0.34553  1.0000
  H   H467      1.0  0.24540  0.91500  0.43129  1.0000
  S   S64       1.0  0.13387  0.67020  0.81232  1.0000
  H   H468      1.0  0.19992  0.74649  0.16002  1.0000
  H   H469      1.0  0.13437  0.95126  0.31775  1.0000
  Fe  Fe31      1.0  0.13242  0.67434  0.89806  1.0000
  H   H470      1.0  0.15284  0.69053  0.22055  1.0000
  C   C279      1.0  0.23857  0.93134  0.28024  1.0000
  H   H471      1.0  0.17914  0.69472  0.83888  1.0000
  C   C280      1.0  0.22221  0.72134  0.30589  1.0000
  H   H472      1.0  0.03741  0.69145  0.77559  1.0000
  S   S65       1.0  0.16515  0.98796  0.80430  1.0000
  H   H473      1.0  0.02236  0.96134  0.06728  1.0000
  H   H474      1.0  0.19093  0.94873  0.55666  1.0000
  H   H475      1.0  0.21093  0.92894  0.37639  1.0000
  H   H476      1.0  0.19955  0.96848  0.34563  1.0000
  H   H477      1.0  0.17454  0.94226  0.96282  1.0000
  H   H478      1.0  0.22706  0.70323  0.28809  1.0000
  H   H479      1.0  0.00757  0.84189  0.78470  1.0000
  H   H480      1.0  0.21491  0.98875  0.14321  1.0000
  C   C281      1.0  0.19990  0.93669  0.45671  1.0000
  H   H481      1.0  0.23754  0.94137  0.02483  1.0000
  H   H482      1.0  0.22637  0.76748  0.10000  1.0000
  H   H483      1.0  0.22623  0.89273  0.46170  1.0000
  H   H484      1.0  0.24237  0.71254  0.40334  1.0000
  H   H485      1.0  0.08155  0.69437  0.79464  1.0000
  H   H486      1.0  0.22954  0.91109  0.00280  1.0000
  H   H487      1.0  0.23217  0.91134  0.09707  1.0000
  H   H488      1.0  0.15494  0.93169  0.42076  1.0000
  H   H489      1.0  0.23840  0.78337  0.58804  1.0000
  C   C282      1.0  0.22938  0.90328  0.42599  1.0000
  H   H490      1.0  0.02771  0.73749  0.80360  1.0000
  H   H491      1.0  0.23885  0.91292  0.17995  1.0000
  H   H492      1.0  0.04799  0.67214  0.16868  1.0000
  C   C283      1.0  0.01752  0.74579  0.14910  1.0000
  C   C284      1.0  0.23620  0.95008  0.86301  1.0000
  H   H493      1.0  0.23979  0.73843  0.11951  1.0000
  C   C285      1.0  0.00679  0.96390  0.09357  1.0000
  H   H494      1.0  0.24248  0.75222  0.23590  1.0000
  H   H495      1.0  0.05830  0.69205  0.23866  1.0000
  H   H496      1.0  0.00333  0.67821  0.89427  1.0000
  H   H497      1.0  0.19245  0.92419  0.48629  1.0000
  C   C286      1.0  0.24377  0.92181  0.02200  1.0000
  H   H498      1.0  0.13866  0.67469  0.70524  1.0000
  H   H499      1.0  0.00164  0.76553  0.85216  1.0000
  C   C287      1.0  0.24969  0.88558  0.84101  1.0000
  H   H500      1.0  0.15833  0.98177  0.48829  1.0000
  H   H501      1.0  0.23314  0.88991  0.39465  1.0000
  H   H502      1.0  0.24331  0.98596  0.93106  1.0000
  H   H503      1.0  0.22587  0.93689  0.83942  1.0000
  H   H504      1.0  0.20077  0.97826  0.53532  1.0000
  H   H505      1.0  0.18174  0.98005  0.62088  1.0000
  H   H506      1.0  0.00882  0.95085  0.12619  1.0000
  H   H507      1.0  0.24195  0.74987  0.34848  1.0000
  H   H508      1.0  0.01088  0.69928  0.19936  1.0000
  H   H509      1.0  0.01266  0.77256  0.96055  1.0000
  H   H510      1.0  0.12724  0.67149  0.59739  1.0000
  H   H511      1.0  0.16267  0.99316  0.97864  1.0000
  H   H512      1.0  0.24407  0.80888  0.92484  1.0000
  C   C288      1.0  0.07153  0.67747  0.80426  1.0000
  H   H513      1.0  0.00364  0.71869  0.78468  1.0000
  H   H514      1.0  0.07948  0.66914  0.83958  1.0000
  H   H515      1.0  0.00352  0.70259  0.13310  1.0000
  C   C289      1.0  0.24919  0.91110  0.07510  1.0000
  H   H516      1.0  0.16511  0.99868  0.57507  1.0000
  C   C290      1.0  0.20152  0.99882  0.97699  1.0000
  Fe  Fe32      1.0  0.47690  0.22964  0.85554  1.0000
  S   S66       1.0  0.45887  0.21923  0.92988  1.0000
  S   S67       1.0  0.46812  0.21955  0.77143  1.0000
  C   C291      1.0  0.46036  0.29445  0.14911  1.0000
  H   H517      1.0  0.49362  0.21994  0.16992  1.0000
  S   S68       1.0  0.27567  0.05891  0.08781  1.0000
  H   H518      1.0  0.38162  0.25524  0.28485  1.0000
  Fe  Fe33      1.0  0.46606  0.25832  0.95660  1.0000
  S   S69       1.0  0.44177  0.28665  0.99777  1.0000
  Fe  Fe34      1.0  0.25976  0.02172  0.09353  1.0000
  S   S70       1.0  0.48114  0.26956  0.88007  1.0000
  Fe  Fe35      1.0  0.44106  0.12128  0.46684  1.0000
  S   S71       1.0  0.45115  0.09964  0.53674  1.0000
  S   S72       1.0  0.46947  0.14123  0.42262  1.0000
  Fe  Fe36      1.0  0.38813  0.10651  0.46914  1.0000
  S   S73       1.0  0.39424  0.08446  0.54199  1.0000
  S   S74       1.0  0.35112  0.11001  0.42834  1.0000
  Fe  Fe37      1.0  0.41718  0.11613  0.57023  1.0000
  S   S75       1.0  0.41783  0.12932  0.65436  1.0000
  Fe  Fe38      1.0  0.42789  0.07024  0.50313  1.0000
  S   S76       1.0  0.44448  0.03195  0.49414  1.0000
  S   S77       1.0  0.40804  0.13939  0.50099  1.0000
  S   S78       1.0  0.42070  0.09069  0.42972  1.0000
  C   C292      1.0  0.30822  0.11317  0.04213  1.0000
  C   C293      1.0  0.40669  0.00323  0.52686  1.0000
  S   S79       1.0  0.31210  0.07074  0.21136  1.0000
  H   H519      1.0  0.45687  0.18310  0.35493  1.0000
  H   H520      1.0  0.27534  0.02791  0.89563  1.0000
  H   H521      1.0  0.30395  0.20941  0.05364  1.0000
  H   H522      1.0  0.27043  0.07224  0.96816  1.0000
  H   H523      1.0  0.48182  0.13077  0.71720  1.0000
  C   C294      1.0  0.34050  0.09682  0.36966  1.0000
  C   C295      1.0  0.35623  0.08729  0.33247  1.0000
  C   C296      1.0  0.34716  0.07912  0.28476  1.0000
  C   C297      1.0  0.32218  0.07954  0.27394  1.0000
  C   C298      1.0  0.30636  0.08827  0.31179  1.0000
  C   C299      1.0  0.31550  0.09714  0.35893  1.0000
  H   H524      1.0  0.37544  0.08659  0.34015  1.0000
  H   H525      1.0  0.35963  0.07239  0.25598  1.0000
  H   H526      1.0  0.28713  0.08883  0.30427  1.0000
  H   H527      1.0  0.30311  0.10441  0.38731  1.0000
  C   C300      1.0  0.44791  0.31627  0.16356  1.0000
  C   C301      1.0  0.30734  0.20921  0.09565  1.0000
  H   H528      1.0  0.46881  0.26869  0.08792  1.0000
  H   H529      1.0  0.39912  0.01961  0.54478  1.0000
  H   H530      1.0  0.34459  0.09788  0.03075  1.0000
  H   H531      1.0  0.32297  0.08951  0.98247  1.0000
  C   C302      1.0  0.29514  0.18726  0.12059  1.0000
  C   C303      1.0  0.38156  0.17103  0.38467  1.0000
  C   C304      1.0  0.40065  0.13796  0.30332  1.0000
  N   N18       1.0  0.29651  0.13915  0.12236  1.0000
  H   H532      1.0  0.36658  0.16894  0.35643  1.0000
  C   C305      1.0  0.44537  0.29814  0.06135  1.0000
  S   S80       1.0  0.44973  0.32622  0.22860  1.0000
  H   H533      1.0  0.31106  0.00895  0.08505  1.0000
  H   H534      1.0  0.45284  0.22660  0.43000  1.0000
  H   H535      1.0  0.47070  0.28422  0.17754  1.0000
  C   C306      1.0  0.45938  0.28561  0.09825  1.0000
  H   H536      1.0  0.33406  0.18217  0.41438  1.0000
  H   H537      1.0  0.39483  0.14793  0.26819  1.0000
  H   H538      1.0  0.49614  0.09247  0.67207  1.0000
  C   C307      1.0  0.45315  0.19474  0.73984  1.0000
  C   C308      1.0  0.44202  0.17579  0.76664  1.0000
  C   C309      1.0  0.43134  0.15607  0.73985  1.0000
  C   C310      1.0  0.43159  0.15487  0.68588  1.0000
  C   C311      1.0  0.44265  0.17388  0.65906  1.0000
  C   C312      1.0  0.45324  0.19364  0.68585  1.0000
  H   H539      1.0  0.44164  0.17628  0.80804  1.0000
  H   H540      1.0  0.42278  0.14160  0.76115  1.0000
  H   H541      1.0  0.44301  0.17336  0.61765  1.0000
  H   H542      1.0  0.46169  0.20815  0.66449  1.0000
  H   H543      1.0  0.47515  0.01439  0.59600  1.0000
  H   H544      1.0  0.29875  0.16318  0.05642  1.0000
  H   H545      1.0  0.41389  0.20576  0.41427  1.0000
  H   H546      1.0  0.29882  0.18841  0.16227  1.0000
  C   C313      1.0  0.34734  0.18105  0.44640  1.0000
  H   H547      1.0  0.40875  0.01186  0.39217  1.0000
  H   H548      1.0  0.34793  0.14784  0.26730  1.0000
  C   C314      1.0  0.44620  0.19850  0.37195  1.0000
  H   H549      1.0  0.47674  0.14830  0.53172  1.0000
  H   H550      1.0  0.34123  0.19374  0.47734  1.0000
  H   H551      1.0  0.33719  0.12373  0.19254  1.0000
  H   H552      1.0  0.42665  0.17628  0.42625  1.0000
  C   C315      1.0  0.49003  0.10924  0.65089  1.0000
  H   H553      1.0  0.38435  0.13184  0.32382  1.0000
  C   C316      1.0  0.41467  0.11489  0.28598  1.0000
  H   H554      1.0  0.37039  0.21966  0.33689  1.0000
  H   H555      1.0  0.34784  0.16200  0.46201  1.0000
  H   H556      1.0  0.40285  0.10334  0.26175  1.0000
  H   H557      1.0  0.41561  0.19581  0.28784  1.0000
  C   C317      1.0  0.31149  0.11810  0.10038  1.0000
  H   H558      1.0  0.40027  0.23007  0.35330  1.0000
  C   C318      1.0  0.37242  0.18824  0.42836  1.0000
  H   H559      1.0  0.31868  0.13516  0.27791  1.0000
  H   H560      1.0  0.43069  0.11999  0.26322  1.0000
  H   H561      1.0  0.40860  0.03055  0.33526  1.0000
  H   H562      1.0  0.48919  0.12314  0.87880  1.0000
  H   H563      1.0  0.32461  0.16323  0.09605  1.0000
  C   C319      1.0  0.42210  0.18952  0.39483  1.0000
  C   C320      1.0  0.30069  0.13914  0.17961  1.0000
  H   H564      1.0  0.42267  0.14269  0.37117  1.0000
  H   H565      1.0  0.32714  0.20845  0.10291  1.0000
  H   H566      1.0  0.46610  0.19657  0.44438  1.0000
  H   H567      1.0  0.37150  0.20780  0.41669  1.0000
  Fe  Fe39      1.0  0.49688  0.21078  0.95761  1.0000
  H   H568      1.0  0.26040  0.05670  0.88013  1.0000
  H   H569      1.0  0.47051  0.13854  0.83138  1.0000
  H   H570      1.0  0.28949  0.10754  0.03319  1.0000
  H   H571      1.0  0.38548  0.18590  0.28686  1.0000
  C   C321      1.0  0.32731  0.14161  0.19766  1.0000
  C   C322      1.0  0.49399  0.14967  0.51285  1.0000
  H   H572      1.0  0.43298  0.15831  0.31596  1.0000
  C   C323      1.0  0.38938  0.22059  0.32387  1.0000
  H   H573      1.0  0.38476  0.18670  0.46200  1.0000
  C   C324      1.0  0.41649  0.15437  0.33825  1.0000
  H   H574      1.0  0.49500  0.05362  0.60949  1.0000
  H   H575      1.0  0.49104  0.16384  0.76454  1.0000
  H   H576      1.0  0.30756  0.10064  0.12084  1.0000
  Fe  Fe40      1.0  0.27599  0.05954  0.17435  1.0000
  H   H577      1.0  0.38085  0.01760  0.35723  1.0000
  H   H578      1.0  0.33108  0.12117  0.10666  1.0000
  C   C325      1.0  0.30454  0.16268  0.09729  1.0000
  H   H579      1.0  0.37818  0.22839  0.24500  1.0000
  N   N19       1.0  0.40463  0.17792  0.35768  1.0000
  H   H580      1.0  0.32124  0.16726  0.26089  1.0000
  H   H581      1.0  0.49075  0.21894  0.10119  1.0000
  H   H582      1.0  0.44281  0.21267  0.34200  1.0000
  H   H583      1.0  0.38370  0.15254  0.40303  1.0000
  S   S81       1.0  0.26314  0.02046  0.17892  1.0000
  H   H584      1.0  0.25423  0.16486  0.15708  1.0000
  C   C326      1.0  0.43440  0.32912  0.12641  1.0000
  C   C327      1.0  0.39925  0.19431  0.31217  1.0000
  H   H585      1.0  0.40803  0.23900  0.26164  1.0000
  C   C328      1.0  0.27019  0.13441  0.11033  1.0000
  C   C329      1.0  0.48830  0.13874  0.85128  1.0000
  H   H586      1.0  0.28990  0.15390  0.19860  1.0000
  H   H587      1.0  0.29659  0.06346  0.93101  1.0000
  C   C330      1.0  0.46201  0.21007  0.41334  1.0000
  C   C331      1.0  0.32880  0.14841  0.25441  1.0000
  C   C332      1.0  0.38932  0.23668  0.27578  1.0000
  H   H588      1.0  0.26683  0.11423  0.11003  1.0000
  C   C333      1.0  0.28037  0.05644  0.95048  1.0000
  C   C334      1.0  0.26445  0.04344  0.91150  1.0000
  H   H589      1.0  0.47051  0.10751  0.64201  1.0000
  C   C335      1.0  0.43297  0.31996  0.07581  1.0000
  C   C336      1.0  0.40061  0.01413  0.35340  1.0000
  H   H590      1.0  0.47937  0.21573  0.39638  1.0000
  H   H591      1.0  0.48742  0.14838  0.66029  1.0000
  H   H592      1.0  0.32216  0.07517  0.04468  1.0000
  H   H593      1.0  0.31218  0.12974  0.01915  1.0000
  C   C337      1.0  0.32554  0.09266  0.02412  1.0000
  H   H594      1.0  0.29395  0.12169  0.19641  1.0000
  H   H595      1.0  0.42075  0.10377  0.31949  1.0000
  H   H596      1.0  0.29993  0.22667  0.11205  1.0000
  H   H597      1.0  0.33679  0.15597  0.17594  1.0000
  H   H598      1.0  0.35386  0.32745  0.81001  1.0000
  H   H599      1.0  0.28643  0.04328  0.98079  1.0000
  H   H600      1.0  0.48968  0.15621  0.87319  1.0000
  H   H601      1.0  0.49293  0.04733  0.54198  1.0000
  H   H602      1.0  0.26550  0.14071  0.07080  1.0000
  C   C338      1.0  0.42790  0.00471  0.49831  1.0000
  H   H603      1.0  0.27552  0.18959  0.11312  1.0000
  H   H604      1.0  0.48499  0.29955  0.29879  1.0000
  C   C339      1.0  0.49367  0.13230  0.68332  1.0000
  H   H605      1.0  0.48967  0.00077  0.51422  1.0000
  H   H606      1.0  0.32149  0.33162  0.80195  1.0000
  H   H607      1.0  0.42198  0.32975  0.04774  1.0000
  C   C340      1.0  0.49543  0.14704  0.45960  1.0000
  H   H608      1.0  0.49066  0.31959  0.35229  1.0000
  C   C341      1.0  0.49505  0.01466  0.59065  1.0000
  C   C342      1.0  0.49919  0.30992  0.31929  1.0000
  H   H609      1.0  0.50003  0.11048  0.61424  1.0000
  C   C343      1.0  0.25107  0.14535  0.14785  1.0000
  H   H610      1.0  0.25164  0.13485  0.18443  1.0000
  H   H611      1.0  0.42622  0.46377  0.47782  1.0000
  C   C344      1.0  0.49716  0.54724  0.32541  1.0000
  H   H612      1.0  0.38904  0.44343  0.31213  1.0000
  H   H613      1.0  0.28203  0.42560  0.68304  1.0000
  H   H614      1.0  0.33609  0.50036  0.39570  1.0000
  H   H615      1.0  0.32802  0.47916  0.53068  1.0000
  H   H616      1.0  0.49215  0.65903  0.92410  1.0000
  H   H617      1.0  0.37336  0.46480  0.27033  1.0000
  Fe  Fe41      1.0  0.37763  0.62890  0.27561  1.0000
  S   S82       1.0  0.38810  0.59508  0.22980  1.0000
  H   H618      1.0  0.26048  0.66029  0.84874  1.0000
  Fe  Fe42      1.0  0.42968  0.64591  0.28178  1.0000
  S   S83       1.0  0.44368  0.61319  0.23850  1.0000
  H   H619      1.0  0.36833  0.56064  0.02867  1.0000
  Fe  Fe43      1.0  0.41213  0.62048  0.18623  1.0000
  S   S84       1.0  0.42147  0.62048  0.10202  1.0000
  Fe  Fe44      1.0  0.41857  0.59132  0.28635  1.0000
  S   S85       1.0  0.43043  0.55716  0.32997  1.0000
  C   C345      1.0  0.37056  0.39709  0.71089  1.0000
  S   S86       1.0  0.40688  0.62360  0.33478  1.0000
  Fe  Fe45      1.0  0.29512  0.51297  0.61852  1.0000
  S   S87       1.0  0.27958  0.51874  0.69690  1.0000
  Fe  Fe46      1.0  0.32772  0.46986  0.65051  1.0000
  S   S88       1.0  0.31534  0.47209  0.73330  1.0000
  S   S89       1.0  0.36006  0.44681  0.62130  1.0000
  Fe  Fe47      1.0  0.27763  0.47738  0.70128  1.0000
  H   H620      1.0  0.39560  0.49713  0.46715  1.0000
  Fe  Fe48      1.0  0.31769  0.51338  0.72457  1.0000
  S   S90       1.0  0.33175  0.53940  0.78534  1.0000
  S   S91       1.0  0.28991  0.47200  0.61876  1.0000
  S   S92       1.0  0.33335  0.51055  0.64622  1.0000
  Fe  Fe49      1.0  0.44334  0.36354  0.26909  1.0000
  Fe  Fe50      1.0  0.44094  0.42015  0.27036  1.0000
  S   S93       1.0  0.44336  0.42288  0.35599  1.0000
  S   S94       1.0  0.43623  0.45353  0.21887  1.0000
  Fe  Fe51      1.0  0.47164  0.39266  0.34849  1.0000
  C   C346      1.0  0.34218  0.36482  0.78894  1.0000
  Fe  Fe52      1.0  0.41634  0.39279  0.35646  1.0000
  S   S95       1.0  0.38139  0.39658  0.40332  1.0000
  S   S96       1.0  0.47166  0.39257  0.26270  1.0000
  S   S97       1.0  0.41238  0.39127  0.27012  1.0000
  C   C347      1.0  0.36553  0.43396  0.55943  1.0000
  C   C348      1.0  0.38952  0.43010  0.54320  1.0000
  C   C349      1.0  0.39474  0.41900  0.49543  1.0000
  C   C350      1.0  0.37599  0.41110  0.46363  1.0000
  C   C351      1.0  0.35201  0.41459  0.48025  1.0000
  C   C352      1.0  0.34677  0.42608  0.52762  1.0000
  H   H621      1.0  0.40421  0.43576  0.56772  1.0000
  H   H622      1.0  0.41328  0.41624  0.48354  1.0000
  H   H623      1.0  0.33735  0.40842  0.45622  1.0000
  H   H624      1.0  0.32824  0.42854  0.53975  1.0000
  C   C353      1.0  0.43269  0.52890  0.29734  1.0000
  C   C354      1.0  0.42508  0.52647  0.24649  1.0000
  C   C355      1.0  0.42642  0.50328  0.22240  1.0000
  C   C356      1.0  0.43557  0.48258  0.24894  1.0000
  C   C357      1.0  0.44393  0.48533  0.29912  1.0000
  C   C358      1.0  0.44224  0.50832  0.32339  1.0000
  H   H625      1.0  0.41788  0.54235  0.22602  1.0000
  H   H626      1.0  0.42010  0.50126  0.18337  1.0000
  H   H627      1.0  0.45190  0.46981  0.31921  1.0000
  H   H628      1.0  0.44863  0.51024  0.36237  1.0000
  H   H629      1.0  0.45658  0.56835  0.15300  1.0000
  S   S98       1.0  0.39154  0.66097  0.83800  1.0000
  H   H630      1.0  0.46812  0.62554  0.34308  1.0000
  C   C359      1.0  0.27542  0.63188  0.69910  1.0000
  H   H631      1.0  0.41025  0.55596  0.86719  1.0000
  H   H632      1.0  0.48266  0.57312  0.41222  1.0000
  C   C360      1.0  0.40710  0.64380  0.06535  1.0000
  C   C361      1.0  0.37098  0.45104  0.30118  1.0000
  H   H633      1.0  0.38471  0.54469  0.11563  1.0000
  H   H634      1.0  0.38677  0.58623  0.04329  1.0000
  H   H635      1.0  0.28074  0.41397  0.74785  1.0000
  C   C362      1.0  0.34537  0.61916  0.73635  1.0000
  C   C363      1.0  0.34148  0.60093  0.69926  1.0000
  C   C364      1.0  0.33725  0.57645  0.71384  1.0000
  C   C365      1.0  0.33675  0.57004  0.76572  1.0000
  C   C366      1.0  0.34040  0.58834  0.80281  1.0000
  C   C367      1.0  0.34491  0.61278  0.78826  1.0000
  H   H636      1.0  0.34181  0.60569  0.65908  1.0000
  H   H637      1.0  0.33430  0.56257  0.68490  1.0000
  H   H638      1.0  0.33936  0.58361  0.84289  1.0000
  H   H639      1.0  0.34748  0.62677  0.81714  1.0000
  H   H640      1.0  0.46679  0.56296  0.24321  1.0000
  H   H641      1.0  0.48292  0.55073  0.13336  1.0000
  H   H642      1.0  0.37343  0.53858  0.94710  1.0000
  C   C368      1.0  0.48937  0.37045  0.09914  1.0000
  H   H643      1.0  0.34545  0.49909  0.28195  1.0000
  H   H644      1.0  0.29147  0.64152  0.59098  1.0000
  H   H645      1.0  0.33917  0.46781  0.33677  1.0000
  H   H646      1.0  0.40372  0.53213  0.03308  1.0000
  H   H647      1.0  0.36126  0.41222  0.78753  1.0000
  C   C369      1.0  0.34748  0.47796  0.45885  1.0000
  H   H648      1.0  0.35470  0.41492  0.30689  1.0000
  C   C370      1.0  0.28031  0.40874  0.70669  1.0000
  H   H649      1.0  0.40629  0.41268  0.78013  1.0000
  H   H650      1.0  0.49181  0.33955  0.93360  1.0000
  H   H651      1.0  0.37080  0.51695  0.86389  1.0000
  H   H652      1.0  0.40327  0.62179  0.91774  1.0000
  S   S99       1.0  0.33758  0.63181  0.29275  1.0000
  C   C371      1.0  0.28005  0.58952  0.66019  1.0000
  H   H653      1.0  0.48360  0.52164  0.24389  1.0000
  H   H654      1.0  0.48169  0.64719  0.19105  1.0000
  C   C372      1.0  0.39471  0.42759  0.76330  1.0000
  H   H655      1.0  0.40301  0.60725  0.53183  1.0000
  H   H656      1.0  0.33693  0.46209  0.44518  1.0000
  C   C373      1.0  0.46911  0.55291  0.16378  1.0000
  H   H657      1.0  0.39106  0.63842  0.52751  1.0000
  H   H658      1.0  0.33840  0.64471  0.97407  1.0000
  C   C374      1.0  0.40687  0.49212  0.43372  1.0000
  H   H659      1.0  0.34710  0.39311  0.61817  1.0000
  H   H660      1.0  0.34409  0.64319  0.50029  1.0000
  C   C375      1.0  0.39206  0.54968  0.87820  1.0000
  C   C376      1.0  0.37967  0.54280  0.55177  1.0000
  C   C377      1.0  0.29736  0.65953  0.87427  1.0000
  H   H661      1.0  0.32747  0.41758  0.68051  1.0000
  C   C378      1.0  0.32566  0.40111  0.70559  1.0000
  C   C379      1.0  0.48119  0.55855  0.21512  1.0000
  C   C380      1.0  0.39363  0.47416  0.39746  1.0000
  H   H662      1.0  0.40670  0.46878  0.36707  1.0000
  H   H663      1.0  0.36393  0.47088  0.47868  1.0000
  H   H664      1.0  0.29758  0.59460  0.64345  1.0000
  H   H665      1.0  0.33825  0.43665  0.26627  1.0000
  H   H666      1.0  0.26248  0.40065  0.69821  1.0000
  H   H667      1.0  0.44820  0.62082  0.93316  1.0000
  C   C381      1.0  0.40571  0.55138  0.04659  1.0000
  C   C382      1.0  0.30054  0.39012  0.69430  1.0000
  H   H668      1.0  0.31473  0.49824  0.48114  1.0000
  C   C383      1.0  0.34540  0.36092  0.73066  1.0000
  H   H669      1.0  0.42463  0.34584  0.13686  1.0000
  H   H670      1.0  0.39059  0.45681  0.41898  1.0000
  H   H671      1.0  0.28227  0.58404  0.49924  1.0000
  H   H672      1.0  0.28061  0.56948  0.66807  1.0000
  S   S100      1.0  0.39925  0.65460  0.22690  1.0000
  C   C384      1.0  0.35650  0.42999  0.27844  1.0000
  N   N20       1.0  0.37037  0.48377  0.37368  1.0000
  H   H673      1.0  0.42422  0.55751  0.03781  1.0000
  C   C385      1.0  0.36120  0.61174  0.97815  1.0000
  H   H674      1.0  0.42812  0.57354  0.95417  1.0000
  H   H675      1.0  0.29450  0.63605  0.69014  1.0000
  H   H676      1.0  0.38563  0.59878  0.44378  1.0000
  H   H677      1.0  0.36387  0.53790  0.57533  1.0000
  H   H678      1.0  0.32639  0.37700  0.79750  1.0000
  H   H679      1.0  0.48083  0.65420  0.01601  1.0000
  C   C386      1.0  0.32517  0.64695  0.34672  1.0000
  H   H680      1.0  0.44244  0.47476  0.42276  1.0000
  H   H681      1.0  0.28970  0.63276  0.33264  1.0000
  H   H682      1.0  0.41706  0.59858  0.99079  1.0000
  H   H683      1.0  0.35583  0.44710  0.37613  1.0000
  H   H684      1.0  0.38739  0.36896  0.63666  1.0000
  H   H685      1.0  0.42716  0.61403  0.45295  1.0000
  H   H686      1.0  0.28929  0.59853  0.73805  1.0000
  H   H687      1.0  0.41154  0.50933  0.41359  1.0000
  H   H688      1.0  0.34718  0.54138  0.24453  1.0000
  H   H689      1.0  0.43399  0.64237  0.00624  1.0000
  H   H690      1.0  0.33048  0.34929  0.71634  1.0000
  H   H691      1.0  0.32189  0.64106  0.61598  1.0000
  S   S101      1.0  0.44484  0.36236  0.35576  1.0000
  H   H692      1.0  0.39337  0.55155  0.57674  1.0000
  S   S102      1.0  0.29211  0.53842  0.55045  1.0000
  C   C387      1.0  0.36737  0.58823  0.94669  1.0000
  H   H693      1.0  0.29860  0.38533  0.65321  1.0000
  C   C388      1.0  0.38636  0.56865  0.02123  1.0000
  N   N21       1.0  0.38936  0.57363  0.96459  1.0000
  C   C389      1.0  0.35373  0.49492  0.41335  1.0000
  C   C390      1.0  0.38991  0.54906  0.93732  1.0000
  H   H694      1.0  0.35107  0.57651  0.94750  1.0000
  C   C391      1.0  0.41274  0.58705  0.95674  1.0000
  C   C392      1.0  0.41397  0.60470  0.90997  1.0000
  H   H695      1.0  0.35220  0.63616  0.91427  1.0000
  H   H696      1.0  0.37814  0.56182  0.86022  1.0000
  H   H697      1.0  0.48818  0.38721  0.12357  1.0000
  C   C393      1.0  0.31074  0.64312  0.58074  1.0000
  C   C394      1.0  0.43990  0.61212  0.89907  1.0000
  C   C395      1.0  0.36950  0.41815  0.75121  1.0000
  C   C396      1.0  0.33210  0.49170  0.49843  1.0000
  C   C397      1.0  0.35793  0.46247  0.34832  1.0000
  H   H698      1.0  0.36960  0.34187  0.64430  1.0000
  N   N22       1.0  0.26629  0.64829  0.74161  1.0000
  H   H699      1.0  0.33638  0.34353  0.85799  1.0000
  H   H700      1.0  0.29751  0.37347  0.71779  1.0000
  C   C398      1.0  0.30054  0.64420  0.35728  1.0000
  H   H701      1.0  0.33177  0.36556  0.63268  1.0000
  H   H702      1.0  0.36902  0.59383  0.90612  1.0000
  H   H703      1.0  0.37168  0.37447  0.54820  1.0000
  H   H704      1.0  0.40303  0.51092  0.87039  1.0000
  C   C399      1.0  0.37632  0.50350  0.33534  1.0000
  H   H705      1.0  0.37783  0.40594  0.67587  1.0000
  H   H706      1.0  0.40666  0.59653  0.87447  1.0000
  H   H707      1.0  0.30237  0.64778  0.77414  1.0000
  H   H708      1.0  0.31176  0.58981  0.36189  1.0000
  H   H709      1.0  0.35867  0.43403  0.73599  1.0000
  N   N23       1.0  0.34728  0.38395  0.69875  1.0000
  H   H710      1.0  0.39080  0.52497  0.81291  1.0000
  C   C400      1.0  0.40297  0.55090  0.10485  1.0000
  H   H711      1.0  0.25096  0.50693  0.80568  1.0000
  H   H712      1.0  0.43995  0.62562  0.86710  1.0000
  H   H713      1.0  0.45102  0.59577  0.88762  1.0000
  H   H714      1.0  0.31686  0.55953  0.38963  1.0000
  H   H715      1.0  0.37767  0.62203  0.98719  1.0000
  H   H716      1.0  0.33283  0.56861  0.33265  1.0000
  C   C401      1.0  0.48518  0.63412  0.33549  1.0000
  N   N24       1.0  0.35439  0.60452  0.49302  1.0000
  C   C402      1.0  0.37721  0.61329  0.46814  1.0000
  C   C403      1.0  0.33619  0.59727  0.45251  1.0000
  C   C404      1.0  0.34382  0.62591  0.52330  1.0000
  C   C405      1.0  0.35924  0.58364  0.53015  1.0000
  H   H717      1.0  0.32707  0.61882  0.93860  1.0000
  C   C406      1.0  0.33909  0.66169  0.37887  1.0000
  C   C407      1.0  0.31741  0.62314  0.54188  1.0000
  C   C408      1.0  0.34606  0.58517  0.40269  1.0000
  S   S103      1.0  0.34918  0.64999  0.71683  1.0000
  C   C409      1.0  0.38903  0.52400  0.85524  1.0000
  C   C410      1.0  0.37006  0.36035  0.62623  1.0000
  H   H718      1.0  0.37270  0.62873  0.44128  1.0000
  H   H719      1.0  0.32257  0.58484  0.46922  1.0000
  H   H720      1.0  0.32584  0.61386  0.43873  1.0000
  C   C411      1.0  0.34361  0.62884  0.94930  1.0000
  H   H721      1.0  0.35503  0.62951  0.55797  1.0000
  H   H722      1.0  0.36990  0.59013  0.56365  1.0000
  H   H723      1.0  0.34208  0.57722  0.54700  1.0000
  C   C412      1.0  0.28334  0.64561  0.78655  1.0000
  C   C413      1.0  0.36309  0.53265  0.26394  1.0000
  H   H724      1.0  0.40592  0.56946  0.12139  1.0000
  C   C414      1.0  0.48556  0.65798  0.31543  1.0000
  H   H725      1.0  0.31453  0.60507  0.56022  1.0000
  H   H726      1.0  0.30455  0.62504  0.50922  1.0000
  H   H727      1.0  0.35540  0.59918  0.37943  1.0000
  H   H728      1.0  0.35911  0.56990  0.41029  1.0000
  C   C415      1.0  0.41694  0.65044  0.01809  1.0000
  H   H729      1.0  0.35257  0.60666  0.01489  1.0000
  C   C416      1.0  0.32556  0.57513  0.36990  1.0000
  H   H730      1.0  0.37356  0.54736  0.28294  1.0000
  H   H731      1.0  0.36197  0.34916  0.72645  1.0000
  H   H732      1.0  0.38440  0.51957  0.35498  1.0000
  H   H733      1.0  0.27081  0.65392  0.40698  1.0000
  H   H734      1.0  0.25753  0.59765  0.72416  1.0000
  H   H735      1.0  0.48724  0.56509  0.31918  1.0000
  C   C417      1.0  0.35473  0.51387  0.30321  1.0000
  H   H736      1.0  0.45864  0.53574  0.16616  1.0000
  H   H737      1.0  0.43375  0.63609  0.50243  1.0000
  C   C418      1.0  0.37186  0.56023  0.50846  1.0000
  H   H738      1.0  0.34183  0.50769  0.51420  1.0000
  H   H739      1.0  0.36601  0.42241  0.24439  1.0000
  H   H740      1.0  0.37762  0.64978  0.11760  1.0000
  C   C419      1.0  0.34789  0.37640  0.64301  1.0000
  H   H741      1.0  0.35871  0.37282  0.80565  1.0000
  C   C420      1.0  0.27513  0.60377  0.70955  1.0000
  H   H742      1.0  0.35898  0.55016  0.48385  1.0000
  H   H743      1.0  0.34139  0.52341  0.32817  1.0000
  C   C421      1.0  0.49669  0.53624  0.23451  1.0000
  H   H744      1.0  0.32479  0.40855  0.74510  1.0000
  H   H745      1.0  0.39053  0.49678  0.30856  1.0000
  H   H746      1.0  0.28280  0.62655  0.80225  1.0000
  H   H747      1.0  0.40559  0.53754  0.95038  1.0000
  H   H748      1.0  0.38823  0.56448  0.48627  1.0000
  H   H749      1.0  0.43974  0.49368  0.47929  1.0000
  H   H750      1.0  0.36121  0.51232  0.42874  1.0000
  C   C422      1.0  0.41963  0.62982  0.47531  1.0000
  C   C423      1.0  0.39730  0.62216  0.50503  1.0000
  H   H751      1.0  0.38770  0.52559  0.53572  1.0000
  C   C424      1.0  0.43024  0.48030  0.45454  1.0000
  H   H752      1.0  0.37444  0.52343  0.23442  1.0000
  H   H753      1.0  0.40327  0.43462  0.72794  1.0000
  C   C425      1.0  0.26617  0.55750  0.54907  1.0000
  H   H754      1.0  0.41659  0.53793  0.12172  1.0000
  C   C426      1.0  0.28979  0.65619  0.39937  1.0000
  H   H755      1.0  0.26358  0.46159  0.83481  1.0000
  H   H756      1.0  0.41505  0.64524  0.44870  1.0000
  H   H757      1.0  0.49097  0.37632  0.05865  1.0000
  H   H758      1.0  0.26314  0.38486  0.21665  1.0000
  C   C427      1.0  0.38534  0.65479  0.08119  1.0000
  H   H759      1.0  0.39331  0.44297  0.79129  1.0000
  H   H760      1.0  0.38496  0.38363  0.72299  1.0000
  H   H761      1.0  0.31345  0.66170  0.56444  1.0000
  H   H762      1.0  0.49602  0.34214  0.27160  1.0000
  H   H763      1.0  0.29646  0.64048  0.88948  1.0000
  H   H764      1.0  0.48283  0.53350  0.32941  1.0000
  H   H765      1.0  0.47889  0.54062  0.42403  1.0000
  H   H766      1.0  0.26150  0.41738  0.20275  1.0000
  H   H767      1.0  0.35323  0.34758  0.55535  1.0000
  H   H768      1.0  0.26520  0.63575  0.66309  1.0000
  C   C428      1.0  0.26641  0.57937  0.52065  1.0000
  H   H769      1.0  0.26547  0.59346  0.63183  1.0000
  H   H770      1.0  0.49066  0.66004  0.10074  1.0000
  C   C429      1.0  0.25172  0.40186  0.22025  1.0000
  C   C430      1.0  0.37007  0.35654  0.56822  1.0000
  H   H771      1.0  0.38573  0.34461  0.55717  1.0000
  C   C431      1.0  0.33825  0.34031  0.81616  1.0000
  H   H772      1.0  0.35806  0.66398  0.37094  1.0000
  H   H773      1.0  0.47243  0.36009  0.10303  1.0000
  H   H774      1.0  0.49196  0.57527  0.20953  1.0000
  H   H775      1.0  0.49532  0.61881  0.16710  1.0000
  H   H776      1.0  0.31582  0.66274  0.85952  1.0000
  C   C432      1.0  0.27851  0.66345  0.83195  1.0000
  C   C433      1.0  0.49236  0.55540  0.42039  1.0000
  C   C434      1.0  0.49889  0.63642  0.18718  1.0000
  H   H777      1.0  0.45843  0.66356  0.62563  1.0000
  H   H778      1.0  0.49363  0.33303  0.17129  1.0000
  Fe  Fe53      1.0  0.37983  0.85553  0.98882  1.0000
  S   S104      1.0  0.35055  0.83583  0.03043  1.0000
  S   S105      1.0  0.40347  0.83488  0.93234  1.0000
  Fe  Fe54      1.0  0.36608  0.90479  0.03437  1.0000
  S   S106      1.0  0.33613  0.88913  0.07984  1.0000
  S   S107      1.0  0.37208  0.94508  0.04625  1.0000
  Fe  Fe55      1.0  0.36218  0.85834  0.09810  1.0000
  S   S108      1.0  0.36223  0.84233  0.17788  1.0000
  Fe  Fe56      1.0  0.32689  0.86840  0.00854  1.0000
  S   S109      1.0  0.28683  0.86450  0.99292  1.0000
  S   S110      1.0  0.39319  0.87575  0.05830  1.0000
  S   S111      1.0  0.35519  0.88634  0.96089  1.0000
  Fe  Fe57      1.0  0.43871  0.86651  0.42067  1.0000
  S   S112      1.0  0.40209  0.86526  0.45634  1.0000
  S   S113      1.0  0.44497  0.87019  0.33555  1.0000
  Fe  Fe58      1.0  0.46421  0.86918  0.52509  1.0000
  S   S114      1.0  0.42927  0.86864  0.56812  1.0000
  H   H779      1.0  0.46694  0.70571  0.59800  1.0000
  Fe  Fe59      1.0  0.41937  0.83875  0.51290  1.0000
  S   S115      1.0  0.40457  0.80122  0.53301  1.0000
  Fe  Fe60      1.0  0.41587  0.89527  0.50758  1.0000
  S   S116      1.0  0.39338  0.92967  0.52491  1.0000
  S   S117      1.0  0.45528  0.83784  0.47285  1.0000
  S   S118      1.0  0.45168  0.89777  0.46907  1.0000
  S   S119      1.0  0.40915  0.71852  0.85314  1.0000
  H   H780      1.0  0.41489  0.83572  0.78503  1.0000
  Fe  Fe61      1.0  0.38624  0.72767  0.78397  1.0000
  S   S120      1.0  0.38265  0.76767  0.76030  1.0000
  H   H781      1.0  0.25988  0.73363  0.30120  1.0000
  H   H782      1.0  0.27249  0.72182  0.38799  1.0000
  H   H783      1.0  0.41013  0.79836  0.15070  1.0000
  S   S121      1.0  0.35399  0.70719  0.81159  1.0000
  C   C435      1.0  0.32822  0.67403  0.42054  1.0000
  S   S122      1.0  0.40070  0.69616  0.73695  1.0000
  S   S123      1.0  0.29031  0.68798  0.48208  1.0000
  H   H784      1.0  0.27523  0.71321  0.65509  1.0000
  H   H785      1.0  0.46530  0.71753  0.85215  1.0000
  C   C436      1.0  0.39993  0.79215  0.59697  1.0000
  C   C437      1.0  0.39769  0.80942  0.63647  1.0000
  C   C438      1.0  0.39202  0.80163  0.68624  1.0000
  C   C439      1.0  0.38932  0.77654  0.69719  1.0000
  C   C440      1.0  0.39202  0.75920  0.65793  1.0000
  C   C441      1.0  0.39722  0.76704  0.60795  1.0000
  H   H786      1.0  0.39951  0.82884  0.62832  1.0000
  H   H787      1.0  0.38959  0.81507  0.71635  1.0000
  H   H788      1.0  0.38990  0.73983  0.66596  1.0000
  H   H789      1.0  0.39919  0.75359  0.57756  1.0000
  C   C442      1.0  0.42673  0.96056  0.48251  1.0000
  C   C443      1.0  0.40611  0.95870  0.51260  1.0000
  C   C444      1.0  0.39579  0.98022  0.53389  1.0000
  H   H790      1.0  0.27447  0.79538  0.86154  1.0000
  H   H791      1.0  0.43449  0.94444  0.46496  1.0000
  H   H792      1.0  0.37969  0.97903  0.55696  1.0000
  C   C445      1.0  0.34391  0.95995  0.03924  1.0000
  C   C446      1.0  0.32587  0.94867  0.01052  1.0000
  H   H793      1.0  0.32972  0.93171  0.99029  1.0000
  C   C447      1.0  0.27282  0.87425  0.93513  1.0000
  H   H794      1.0  0.42982  0.79590  0.06716  1.0000
  Fe  Fe62      1.0  0.37027  0.67459  0.77010  1.0000
  C   C448      1.0  0.27477  0.88803  0.84680  1.0000
  C   C449      1.0  0.28623  0.88288  0.89398  1.0000
  H   H795      1.0  0.31996  0.75962  0.39206  1.0000
  H   H796      1.0  0.28536  0.89397  0.81456  1.0000
  H   H797      1.0  0.30545  0.88517  0.89821  1.0000
  C   C450      1.0  0.38523  0.85050  0.22131  1.0000
  C   C451      1.0  0.40606  0.86217  0.20481  1.0000
  C   C452      1.0  0.42432  0.86797  0.24019  1.0000
  C   C453      1.0  0.42177  0.86238  0.29232  1.0000
  C   C454      1.0  0.40085  0.85091  0.30890  1.0000
  C   C455      1.0  0.38270  0.84488  0.27343  1.0000
  H   H798      1.0  0.40827  0.86648  0.16478  1.0000
  H   H799      1.0  0.44049  0.87681  0.22712  1.0000
  H   H800      1.0  0.39881  0.84631  0.34888  1.0000
  H   H801      1.0  0.36668  0.83575  0.28642  1.0000
  C   C456      1.0  0.43300  0.82728  0.95315  1.0000
  C   C457      1.0  0.44883  0.81477  0.91996  1.0000
  C   C458      1.0  0.47287  0.80966  0.93470  1.0000
  C   C459      1.0  0.30351  0.67145  0.43070  1.0000
  C   C460      1.0  0.44115  0.83414  0.00169  1.0000
  H   H802      1.0  0.44250  0.80942  0.88251  1.0000
  S   S124      1.0  0.36503  0.69600  0.95837  1.0000
  H   H803      1.0  0.42913  0.84341  0.02792  1.0000
  H   H804      1.0  0.26354  0.88011  0.15842  1.0000
  C   C461      1.0  0.37290  0.67146  0.04877  1.0000
  C   C462      1.0  0.46119  0.74237  0.95680  1.0000
  S   S125      1.0  0.45831  0.66908  0.80592  1.0000
  H   H805      1.0  0.45371  0.98454  0.45247  1.0000
  H   H806      1.0  0.27594  0.92730  0.26261  1.0000
  H   H807      1.0  0.42944  0.85384  0.73610  1.0000
  H   H808      1.0  0.38283  0.72387  0.09946  1.0000
  H   H809      1.0  0.36608  0.95067  0.27262  1.0000
  Fe  Fe63      1.0  0.37818  0.69539  0.87700  1.0000
  C   C463      1.0  0.35406  0.74631  0.06897  1.0000
  H   H810      1.0  0.34312  0.73012  0.05837  1.0000
  H   H811      1.0  0.34811  0.75310  0.10711  1.0000
  H   H812      1.0  0.35072  0.76097  0.03995  1.0000
  N   N25       1.0  0.31993  0.75986  0.55379  1.0000
  C   C464      1.0  0.31574  0.75293  0.49857  1.0000
  C   C465      1.0  0.29659  0.75701  0.58251  1.0000
  C   C466      1.0  0.32852  0.78607  0.55553  1.0000
  C   C467      1.0  0.33896  0.74338  0.57843  1.0000
  H   H813      1.0  0.46465  0.67558  0.93974  1.0000
  C   C468      1.0  0.33850  0.75131  0.46422  1.0000
  C   C469      1.0  0.33027  0.79793  0.60945  1.0000
  C   C470      1.0  0.27548  0.77469  0.56659  1.0000
  H   H814      1.0  0.44238  0.82820  0.13688  1.0000
  H   H815      1.0  0.43231  0.68340  0.63504  1.0000
  C   C471      1.0  0.33163  0.74483  0.40910  1.0000
  C   C472      1.0  0.33766  0.82485  0.60573  1.0000
  H   H816      1.0  0.30312  0.76649  0.48000  1.0000
  H   H817      1.0  0.30645  0.73507  0.49596  1.0000
  H   H818      1.0  0.28962  0.73810  0.57703  1.0000
  H   H819      1.0  0.29965  0.75879  0.62451  1.0000
  H   H820      1.0  0.31693  0.79828  0.53092  1.0000
  H   H821      1.0  0.34693  0.78720  0.53884  1.0000
  H   H822      1.0  0.35697  0.74700  0.56186  1.0000
  H   H823      1.0  0.34072  0.74781  0.61990  1.0000
  H   H824      1.0  0.44686  0.91386  0.63060  1.0000
  C   C473      1.0  0.48977  0.67134  0.00366  1.0000
  H   H825      1.0  0.34792  0.76914  0.46328  1.0000
  H   H826      1.0  0.35145  0.73689  0.47802  1.0000
  H   H827      1.0  0.34397  0.78803  0.63334  1.0000
  H   H828      1.0  0.31274  0.79775  0.62953  1.0000
  C   C474      1.0  0.40443  0.66697  0.98549  1.0000
  H   H829      1.0  0.42335  0.94410  0.99469  1.0000
  C   C475      1.0  0.42530  0.93953  0.30550  1.0000
  C   C476      1.0  0.25371  0.77145  0.60155  1.0000
  H   H830      1.0  0.42814  0.92091  0.28830  1.0000
  C   C477      1.0  0.33884  0.98221  0.06457  1.0000
  H   H831      1.0  0.46353  0.77147  0.01154  1.0000
  H   H832      1.0  0.27651  0.72400  0.72057  1.0000
  H   H833      1.0  0.35498  0.70551  0.64452  1.0000
  H   H834      1.0  0.30388  0.72100  0.68379  1.0000
  C   C478      1.0  0.29713  0.98053  0.03603  1.0000
  H   H835      1.0  0.32333  0.83605  0.58614  1.0000
  H   H836      1.0  0.34045  0.83245  0.64478  1.0000
  H   H837      1.0  0.35477  0.82647  0.58410  1.0000
  H   H838      1.0  0.25448  0.99677  0.87232  1.0000
  H   H839      1.0  0.45528  0.72299  0.95381  1.0000
  Fe  Fe64      1.0  0.25105  0.68325  0.50343  1.0000
  H   H840      1.0  0.45927  0.71814  0.71166  1.0000
  H   H841      1.0  0.32189  0.72716  0.40774  1.0000
  Fe  Fe65      1.0  0.42073  0.68515  0.80864  1.0000
  C   C479      1.0  0.25556  0.71437  0.37175  1.0000
  H   H842      1.0  0.26304  0.94549  0.10227  1.0000
  H   H843      1.0  0.48076  0.74297  0.94788  1.0000
  S   S126      1.0  0.45822  0.67351  0.30037  1.0000
  H   H844      1.0  0.28138  0.96459  0.20704  1.0000
  C   C480      1.0  0.28605  0.71276  0.69109  1.0000
  H   H845      1.0  0.48147  0.89812  0.92048  1.0000
  C   C481      1.0  0.46873  0.93583  0.33650  1.0000
  C   C482      1.0  0.43511  0.78116  0.09499  1.0000
  C   C483      1.0  0.46499  0.82873  0.01685  1.0000
  H   H846      1.0  0.46460  0.80667  0.16340  1.0000
  C   C484      1.0  0.30268  0.95924  0.00806  1.0000
  H   H847      1.0  0.39752  0.85758  0.74710  1.0000
  H   H848      1.0  0.33584  0.90045  0.39663  1.0000
  H   H849      1.0  0.45117  0.75378  0.92803  1.0000
  H   H850      1.0  0.48280  0.89157  0.77507  1.0000
  H   H851      1.0  0.35038  0.92424  0.20080  1.0000
  N   N26       1.0  0.39889  0.94402  0.31674  1.0000
  C   C485      1.0  0.43392  0.89945  0.90005  1.0000
  H   H852      1.0  0.41632  0.70449  0.07862  1.0000
  C   C486      1.0  0.47511  0.88296  0.89555  1.0000
  H   H853      1.0  0.26953  0.77071  0.52681  1.0000
  H   H854      1.0  0.43108  0.79166  0.77138  1.0000
  N   N27       1.0  0.46999  0.74839  0.66291  1.0000
  C   C487      1.0  0.46627  0.75642  0.60806  1.0000
  C   C488      1.0  0.45748  0.72423  0.67107  1.0000
  C   C489      1.0  0.45765  0.76756  0.69637  1.0000
  C   C490      1.0  0.47425  0.78305  0.59594  1.0000
  C   C491      1.0  0.45561  0.76090  0.75380  1.0000
  H   H855      1.0  0.45946  0.69637  0.15230  1.0000
  C   C492      1.0  0.44815  0.78315  0.78614  1.0000
  H   H856      1.0  0.44682  0.75544  0.59719  1.0000
  H   H857      1.0  0.47547  0.74357  0.58119  1.0000
  H   H858      1.0  0.43773  0.72666  0.66348  1.0000
  H   H859      1.0  0.43905  0.77167  0.68209  1.0000
  H   H860      1.0  0.46722  0.78536  0.69442  1.0000
  H   H861      1.0  0.45788  0.86320  0.80486  1.0000
  H   H862      1.0  0.33899  0.68576  0.44470  1.0000
  H   H863      1.0  0.43172  0.95268  0.27611  1.0000
  C   C493      1.0  0.31870  0.97150  0.19455  1.0000
  H   H864      1.0  0.44169  0.74671  0.75940  1.0000
  H   H865      1.0  0.37354  0.93904  0.16368  1.0000
  H   H866      1.0  0.25970  0.69586  0.35548  1.0000
  H   H867      1.0  0.26752  0.81612  0.97002  1.0000
  C   C494      1.0  0.44990  0.93371  0.62342  1.0000
  H   H868      1.0  0.46254  0.79709  0.78642  1.0000
  S   S127      1.0  0.26698  0.99055  0.03910  1.0000
  N   N28       1.0  0.32576  0.80736  0.86898  1.0000
  C   C495      1.0  0.32569  0.83465  0.85779  1.0000
  C   C496      1.0  0.30659  0.80237  0.90838  1.0000
  C   C497      1.0  0.34998  0.80068  0.89282  1.0000
  C   C498      1.0  0.32226  0.79177  0.82162  1.0000
  C   C499      1.0  0.30630  0.80289  0.77784  1.0000
  C   C500      1.0  0.34717  0.84372  0.82528  1.0000
  C   C501      1.0  0.35350  0.77367  0.91143  1.0000
  C   C502      1.0  0.30008  0.78322  0.73825  1.0000
  C   C503      1.0  0.34193  0.86930  0.80286  1.0000
  C   C504      1.0  0.37966  0.76870  0.92789  1.0000
  H   H869      1.0  0.32607  0.84523  0.89441  1.0000
  H   H870      1.0  0.30868  0.84075  0.83864  1.0000
  H   H871      1.0  0.30684  0.78257  0.91918  1.0000
  H   H872      1.0  0.31042  0.81285  0.94423  1.0000
  H   H873      1.0  0.35375  0.81300  0.92594  1.0000
  H   H874      1.0  0.36478  0.80372  0.86495  1.0000
  H   H875      1.0  0.33994  0.78727  0.80353  1.0000
  H   H876      1.0  0.31490  0.77356  0.83244  1.0000
  H   H877      1.0  0.31609  0.81760  0.75764  1.0000
  H   H878      1.0  0.28919  0.81123  0.79177  1.0000
  H   H879      1.0  0.36357  0.84506  0.84982  1.0000
  H   H880      1.0  0.35147  0.83084  0.79345  1.0000
  H   H881      1.0  0.34899  0.76036  0.88071  1.0000
  H   H882      1.0  0.34214  0.77003  0.94532  1.0000
  H   H883      1.0  0.31683  0.77508  0.72139  1.0000
  H   H884      1.0  0.28951  0.76838  0.75616  1.0000
  H   H885      1.0  0.28894  0.79171  0.70719  1.0000
  H   H886      1.0  0.35770  0.87539  0.78050  1.0000
  H   H887      1.0  0.32595  0.86896  0.77692  1.0000
  H   H888      1.0  0.33852  0.88288  0.83398  1.0000
  H   H889      1.0  0.38470  0.78151  0.95917  1.0000
  H   H890      1.0  0.38177  0.74946  0.94193  1.0000
  H   H891      1.0  0.39207  0.77121  0.89508  1.0000
  H   H892      1.0  0.47593  0.97377  0.61986  1.0000
  C   C505      1.0  0.31529  0.99238  0.06353  1.0000
  H   H893      1.0  0.37502  0.97205  0.34874  1.0000
  H   H894      1.0  0.33336  0.96697  0.16709  1.0000
  H   H895      1.0  0.37282  0.70486  0.58655  1.0000
  H   H896      1.0  0.39689  0.90513  0.33591  1.0000
  C   C506      1.0  0.46974  0.90721  0.77547  1.0000
  H   H897      1.0  0.42804  0.69196  0.16735  1.0000
  H   H898      1.0  0.48137  0.68701  0.02471  1.0000
  C   C507      1.0  0.29509  0.95978  0.17769  1.0000
  H   H899      1.0  0.41889  0.89232  0.78621  1.0000
  H   H900      1.0  0.47081  0.91799  0.31592  1.0000
  C   C508      1.0  0.47874  0.78652  0.53883  1.0000
  H   H901      1.0  0.31749  0.71012  0.59258  1.0000
  H   H902      1.0  0.48814  0.92749  0.61400  1.0000
  H   H903      1.0  0.39260  0.95980  0.24156  1.0000
  C   C509      1.0  0.43750  0.98342  0.47517  1.0000
  C   C510      1.0  0.41988  0.87415  0.80560  1.0000
  C   C511      1.0  0.38211  0.67709  0.00036  1.0000
  H   H904      1.0  0.45115  0.94334  0.66079  1.0000
  H   H905      1.0  0.45201  0.74080  0.12784  1.0000
  C   C512      1.0  0.36937  0.92286  0.18787  1.0000
  H   H906      1.0  0.47036  0.92665  0.55602  1.0000
  C   C513      1.0  0.42959  0.75235  0.02442  1.0000
  H   H907      1.0  0.46961  0.94554  0.75024  1.0000
  H   H908      1.0  0.48604  0.80514  0.53227  1.0000
  C   C514      1.0  0.25881  0.91949  0.24870  1.0000
  H   H909      1.0  0.27929  0.68299  0.81981  1.0000
  H   H910      1.0  0.45983  0.79648  0.60756  1.0000
  C   C515      1.0  0.28973  0.68621  0.70952  1.0000
  H   H911      1.0  0.42248  0.73689  0.15142  1.0000
  H   H912      1.0  0.28944  0.96845  0.14109  1.0000
  H   H913      1.0  0.40150  0.96661  0.38517  1.0000
  C   C516      1.0  0.41526  0.85404  0.76603  1.0000
  H   H914      1.0  0.46973  0.86787  0.92194  1.0000
  H   H915      1.0  0.45212  0.91163  0.97044  1.0000
  C   C517      1.0  0.39471  0.96802  0.34500  1.0000
  C   C518      1.0  0.28080  0.89014  0.15546  1.0000
  H   H916      1.0  0.44078  0.81898  0.20309  1.0000
  C   C519      1.0  0.48256  0.68933  0.80628  1.0000
  C   C520      1.0  0.39018  0.92334  0.35017  1.0000
  H   H917      1.0  0.38134  0.90480  0.25645  1.0000
  H   H918      1.0  0.37153  0.90595  0.16419  1.0000
  C   C521      1.0  0.29871  0.87919  0.19590  1.0000
  C   C522      1.0  0.29837  0.85104  0.19567  1.0000
  H   H919      1.0  0.42225  0.73458  0.01111  1.0000
  H   H920      1.0  0.25451  0.95156  0.84630  1.0000
  H   H921      1.0  0.46157  0.78476  0.51697  1.0000
  H   H922      1.0  0.31283  0.92786  0.14341  1.0000
  C   C523      1.0  0.49788  0.87412  0.86622  1.0000
  C   C524      1.0  0.26922  0.92585  0.10265  1.0000
  H   H923      1.0  0.28851  0.88442  0.11787  1.0000
  H   H924      1.0  0.28544  0.92475  0.07760  1.0000
  H   H925      1.0  0.44403  0.92562  0.82405  1.0000
  N   N29       1.0  0.27585  0.91771  0.15645  1.0000
  H   H926      1.0  0.40491  0.91802  0.21888  1.0000
  C   C525      1.0  0.48224  0.92937  0.75224  1.0000
  H   H927      1.0  0.45515  0.77943  0.09328  1.0000
  C   C526      1.0  0.33483  0.71520  0.57494  1.0000
  H   H928      1.0  0.45109  0.67416  0.68909  1.0000
  H   H929      1.0  0.43789  0.92574  0.37985  1.0000
  C   C527      1.0  0.45681  0.75240  0.01072  1.0000
  H   H930      1.0  0.31744  0.88469  0.18695  1.0000
  H   H931      1.0  0.29464  0.88552  0.23517  1.0000
  H   H932      1.0  0.31151  0.84368  0.22444  1.0000
  H   H933      1.0  0.28014  0.84442  0.20554  1.0000
  H   H934      1.0  0.30364  0.84379  0.15742  1.0000
  C   C528      1.0  0.29823  0.93143  0.17183  1.0000
  H   H935      1.0  0.36269  0.88324  0.37871  1.0000
  H   H936      1.0  0.28883  0.95043  0.98572  1.0000
  C   C529      1.0  0.48149  0.71203  0.83190  1.0000
  H   H937      1.0  0.35330  0.91827  0.31965  1.0000
  H   H938      1.0  0.29917  0.67588  0.67865  1.0000
  H   H939      1.0  0.44719  0.70819  0.06286  1.0000
  C   C530      1.0  0.46691  0.70187  0.63965  1.0000
  H   H940      1.0  0.27748  0.82741  0.87944  1.0000
  H   H941      1.0  0.45035  0.93495  0.92111  1.0000
  H   H942      1.0  0.39052  0.77705  0.06216  1.0000
  H   H943      1.0  0.35485  0.93946  0.37266  1.0000
  H   H944      1.0  0.39176  0.76497  0.12552  1.0000
  H   H945      1.0  0.47350  0.92472  0.85016  1.0000
  C   C531      1.0  0.48094  0.81666  0.98334  1.0000
  H   H946      1.0  0.38528  0.73122  0.03218  1.0000
  C   C532      1.0  0.28007  0.80811  0.89243  1.0000
  C   C533      1.0  0.44449  0.86985  0.83330  1.0000
  C   C534      1.0  0.38079  0.73870  0.07039  1.0000
  H   H947      1.0  0.47113  0.83400  0.05466  1.0000
  C   C535      1.0  0.39668  0.76073  0.08520  1.0000
  H   H948      1.0  0.35281  0.99100  0.08671  1.0000
  C   C536      1.0  0.38531  0.94514  0.26647  1.0000
  C   C537      1.0  0.26284  0.80414  0.93711  1.0000
  H   H949      1.0  0.41790  0.90670  0.87841  1.0000
  H   H950      1.0  0.36343  0.90472  0.43204  1.0000
  H   H951      1.0  0.40768  0.91586  0.98348  1.0000
  H   H952      1.0  0.32409  0.96494  0.23332  1.0000
  C   C538      1.0  0.46004  0.91312  0.83006  1.0000
  C   C539      1.0  0.35578  0.90129  0.39329  1.0000
  H   H953      1.0  0.30571  0.92472  0.20881  1.0000
  H   H954      1.0  0.28063  0.79429  0.56881  1.0000
  H   H955      1.0  0.42745  0.88334  0.92229  1.0000
  H   H956      1.0  0.40628  0.94028  0.93639  1.0000
  H   H957      1.0  0.39801  0.92481  0.38947  1.0000
  H   H958      1.0  0.35570  0.67934  0.06054  1.0000
  H   H959      1.0  0.42558  0.98930  0.31675  1.0000
  H   H960      1.0  0.47316  0.75383  0.76851  1.0000
  C   C540      1.0  0.44526  0.81254  0.16381  1.0000
  H   H961      1.0  0.30179  0.68664  0.74355  1.0000
  C   C541      1.0  0.49640  0.74623  0.67817  1.0000
  N   N30       1.0  0.42369  0.75710  0.08001  1.0000
  C   C542      1.0  0.44152  0.69181  0.13604  1.0000
  H   H962      1.0  0.25880  0.89942  0.25688  1.0000
  C   C543      1.0  0.43317  0.73697  0.11537  1.0000
  C   C544      1.0  0.25478  0.92391  0.19073  1.0000
  C   C545      1.0  0.38640  0.92118  0.23395  1.0000
  C   C546      1.0  0.42905  0.79115  0.14931  1.0000
  C   C547      1.0  0.43393  0.71016  0.09418  1.0000
  C   C548      1.0  0.44251  0.94035  0.35232  1.0000
  C   C549      1.0  0.36239  0.92200  0.35673  1.0000
  H   H963      1.0  0.46776  0.74135  0.03827  1.0000
  H   H964      1.0  0.44208  0.85386  0.85908  1.0000
  H   H965      1.0  0.34822  0.74282  0.38561  1.0000
  H   H966      1.0  0.48501  0.80004  0.90887  1.0000
  H   H967      1.0  0.44510  0.77686  0.82599  1.0000
  C   C550      1.0  0.41808  0.93060  0.96486  1.0000
  H   H968      1.0  0.49833  0.93424  0.77547  1.0000
  H   H969      1.0  0.33469  0.70887  0.53458  1.0000
  H   H970      1.0  0.42064  0.76667  0.99985  1.0000
  C   C551      1.0  0.44060  0.91967  0.93942  1.0000
  N   N31       1.0  0.45368  0.89146  0.86352  1.0000
  C   C552      1.0  0.35491  0.70078  0.60309  1.0000
  H   H971      1.0  0.44145  0.95843  0.37196  1.0000
  H   H972      1.0  0.44267  0.67290  0.11989  1.0000
  H   H973      1.0  0.48033  0.93498  0.37126  1.0000
  H   H974      1.0  0.43146  0.77658  0.17880  1.0000
  H   H975      1.0  0.40494  0.87356  0.83384  1.0000
  H   H976      1.0  0.35189  0.68069  0.59949  1.0000
  H   H977      1.0  0.49882  0.73254  0.70964  1.0000
  H   H978      1.0  0.47492  0.95097  0.31150  1.0000
  C   C553      1.0  0.47305  0.93659  0.59263  1.0000
  H   H979      1.0  0.26355  0.78458  0.94970  1.0000
  H   H980      1.0  0.48948  0.95949  0.48467  1.0000
  C   C554      1.0  0.40570  0.99128  0.32053  1.0000
  C   C555      1.0  0.48448  0.67472  0.94653  1.0000
  C   C556      1.0  0.45115  0.67945  0.64795  1.0000
  C   C557      1.0  0.47820  0.96416  0.58250  1.0000
  H   H981      1.0  0.45464  0.90229  0.74952  1.0000
  H   H982      1.0  0.29382  0.67265  0.90615  1.0000
  H   H983      1.0  0.25424  0.67545  0.68632  1.0000
  H   H984      1.0  0.46340  0.97158  0.55767  1.0000
  H   H985      1.0  0.43415  0.94139  0.60175  1.0000
  H   H986      1.0  0.49231  0.69211  0.93248  1.0000
  H   H987      1.0  0.26012  0.92055  0.99772  1.0000
  H   H988      1.0  0.48543  0.69655  0.65261  1.0000
  H   H989      1.0  0.25821  0.77675  0.64151  1.0000
  C   C558      1.0  0.26515  0.67445  0.72212  1.0000
  H   H990      1.0  0.49394  0.85858  0.84009  1.0000
  H   H991      1.0  0.25529  0.68676  0.74942  1.0000
  H   H992      1.0  0.49095  0.78782  0.61709  1.0000
  H   H993      1.0  0.25493  0.89164  0.06950  1.0000
  H   H994      1.0  0.31625  0.99187  0.19583  1.0000
  H   H995      1.0  0.48836  0.92477  0.71288  1.0000
  H   H996      1.0  0.39781  0.99489  0.28205  1.0000
  H   H997      1.0  0.41183  0.67148  0.94850  1.0000
  H   H998      1.0  0.49211  0.77269  0.52445  1.0000
  S   S128      1.0  0.49790  0.87324  0.57296  1.0000
  H   H999      1.0  0.25078  0.76701  0.14610  1.0000
  Fe  Fe66      1.0  0.69466  0.12650  0.95125  1.0000
  S   S129      1.0  0.66595  0.09846  0.94002  1.0000
  S   S130      1.0  0.71698  0.12380  0.87871  1.0000
  Fe  Fe67      1.0  0.67335  0.14108  0.05635  1.0000
  S   S131      1.0  0.64302  0.11440  0.05007  1.0000
  S   S132      1.0  0.67893  0.16379  0.12856  1.0000
  Fe  Fe68      1.0  0.67210  0.08854  0.02179  1.0000
  S   S133      1.0  0.67717  0.04996  0.05094  1.0000
  Fe  Fe69      1.0  0.64011  0.12738  0.96863  1.0000
  S   S134      1.0  0.60781  0.13456  0.91727  1.0000
  S   S135      1.0  0.70275  0.11427  0.03199  1.0000
  S   S136      1.0  0.66830  0.15632  0.97613  1.0000
  Fe  Fe70      1.0  0.59726  0.16109  0.50721  1.0000
  S   S137      1.0  0.63380  0.16232  0.54528  1.0000
  S   S138      1.0  0.56330  0.16207  0.55462  1.0000
  Fe  Fe71      1.0  0.61836  0.16055  0.39919  1.0000
  S   S139      1.0  0.65632  0.16288  0.42834  1.0000
  S   S140      1.0  0.60761  0.15413  0.31657  1.0000
  Fe  Fe72      1.0  0.64499  0.13444  0.48550  1.0000
  S   S141      1.0  0.66947  0.10082  0.49384  1.0000
  Fe  Fe73      1.0  0.64168  0.19059  0.48519  1.0000
  S   S142      1.0  0.65742  0.22817  0.50084  1.0000
  S   S143      1.0  0.60772  0.13063  0.45343  1.0000
  S   S144      1.0  0.60437  0.19092  0.45030  1.0000
  H   H1000     1.0  0.55140  0.15472  0.05698  1.0000
  S   S145      1.0  0.68907  0.26198  0.72393  1.0000
  H   H1001     1.0  0.59010  0.13754  0.02245  1.0000
  C   C559      1.0  0.56338  0.29441  0.87299  1.0000
  H   H1002     1.0  0.57061  0.17009  0.68398  1.0000
  C   C560      1.0  0.55073  0.29831  0.82701  1.0000
  C   C561      1.0  0.59655  0.28081  0.49234  1.0000
  H   H1003     1.0  0.65103  0.08866  0.69855  1.0000
  C   C562      1.0  0.66599  0.23701  0.56335  1.0000
  C   C563      1.0  0.67160  0.21961  0.60137  1.0000
  C   C564      1.0  0.67871  0.22742  0.65056  1.0000
  C   C565      1.0  0.67968  0.25264  0.66231  1.0000
  C   C566      1.0  0.67378  0.26997  0.62446  1.0000
  C   C567      1.0  0.66739  0.26220  0.57496  1.0000
  H   H1004     1.0  0.67076  0.20015  0.59266  1.0000
  H   H1005     1.0  0.68318  0.21389  0.67968  1.0000
  H   H1006     1.0  0.67454  0.28937  0.63311  1.0000
  H   H1007     1.0  0.66331  0.27577  0.54567  1.0000
  C   C568      1.0  0.53730  0.15621  0.51775  1.0000
  H   H1008     1.0  0.55106  0.16379  0.15629  1.0000
  C   C569      1.0  0.53875  0.15363  0.46450  1.0000
  H   H1009     1.0  0.66063  0.00802  0.75760  1.0000
  H   H1010     1.0  0.55597  0.15505  0.44558  1.0000
  C   C570      1.0  0.63622  0.03000  0.55319  1.0000
  C   C571      1.0  0.62358  0.05256  0.55780  1.0000
  C   C572      1.0  0.63305  0.07424  0.53733  1.0000
  C   C573      1.0  0.65564  0.07357  0.51373  1.0000
  C   C574      1.0  0.66816  0.05099  0.50854  1.0000
  C   C575      1.0  0.65830  0.02914  0.52736  1.0000
  H   H1011     1.0  0.60650  0.05333  0.57772  1.0000
  H   H1012     1.0  0.62326  0.09159  0.54149  1.0000
  H   H1013     1.0  0.68568  0.05054  0.49066  1.0000
  H   H1014     1.0  0.51415  0.29900  0.12515  1.0000
  C   C576      1.0  0.70721  0.04036  0.04079  1.0000
  C   C577      1.0  0.71780  0.02218  0.07219  1.0000
  C   C578      1.0  0.72394  0.20978  0.83807  1.0000
  H   H1015     1.0  0.51324  0.29683  0.33413  1.0000
  H   H1016     1.0  0.52596  0.13375  0.83418  1.0000
  C   C579      1.0  0.72081  0.05106  0.00197  1.0000
  C   C580      1.0  0.66666  0.01000  0.37247  1.0000
  C   C581      1.0  0.55191  0.15432  0.75093  1.0000
  H   H1017     1.0  0.71263  0.06491  0.97719  1.0000
  C   C582      1.0  0.70265  0.06129  0.82488  1.0000
  C   C583      1.0  0.66717  0.11099  0.64139  1.0000
  H   H1018     1.0  0.53261  0.22357  0.65008  1.0000
  C   C584      1.0  0.66035  0.15930  0.18260  1.0000
  C   C585      1.0  0.64030  0.14415  0.17999  1.0000
  C   C586      1.0  0.62472  0.14221  0.22192  1.0000
  C   C587      1.0  0.62923  0.15507  0.26737  1.0000
  C   C588      1.0  0.64977  0.16953  0.27106  1.0000
  C   C589      1.0  0.66518  0.17177  0.22861  1.0000
  H   H1019     1.0  0.63636  0.13436  0.14526  1.0000
  H   H1020     1.0  0.60902  0.13078  0.21892  1.0000
  H   H1021     1.0  0.65335  0.17965  0.30591  1.0000
  H   H1022     1.0  0.68069  0.18352  0.23111  1.0000
  C   C590      1.0  0.53718  0.16523  0.98299  1.0000
  C   C591      1.0  0.54112  0.16459  0.93022  1.0000
  C   C592      1.0  0.56267  0.15459  0.91072  1.0000
  C   C593      1.0  0.58050  0.14514  0.94387  1.0000
  C   C594      1.0  0.57647  0.14512  0.99674  1.0000
  C   C595      1.0  0.55465  0.15491  0.01623  1.0000
  H   H1023     1.0  0.52737  0.17140  0.90431  1.0000
  H   H1024     1.0  0.56565  0.15439  0.86987  1.0000
  C   C596      1.0  0.50877  0.13604  0.81247  1.0000
  H   H1025     1.0  0.70730  0.01379  0.10207  1.0000
  C   C597      1.0  0.72037  0.99966  0.60899  1.0000
  C   C598      1.0  0.74635  0.13437  0.86835  1.0000
  H   H1026     1.0  0.50388  0.00921  0.62731  1.0000
  H   H1027     1.0  0.53876  0.25846  0.49592  1.0000
  H   H1028     1.0  0.59675  0.29841  0.51397  1.0000
  C   C599      1.0  0.60422  0.18492  0.12401  1.0000
  H   H1029     1.0  0.55728  0.12895  0.24582  1.0000
  C   C600      1.0  0.52635  0.20828  0.12955  1.0000
  H   H1030     1.0  0.54587  0.29666  0.05806  1.0000
  C   C601      1.0  0.61697  0.18922  0.07325  1.0000
  H   H1031     1.0  0.55426  0.13690  0.77310  1.0000
  C   C602      1.0  0.52528  0.22627  0.68914  1.0000
  H   H1032     1.0  0.73874  0.00298  0.36561  1.0000
  H   H1033     1.0  0.69629  0.14342  0.34465  1.0000
  H   H1034     1.0  0.54796  0.26868  0.60003  1.0000
  H   H1035     1.0  0.57507  0.23845  0.64133  1.0000
  H   H1036     1.0  0.72213  0.23019  0.83970  1.0000
  S   S146      1.0  0.51445  0.21921  0.88273  1.0000
  C   C603      1.0  0.73222  0.13643  0.69074  1.0000
  H   H1037     1.0  0.60132  0.16482  0.12690  1.0000
  H   H1038     1.0  0.61668  0.19059  0.15505  1.0000
  H   H1039     1.0  0.54392  0.20461  0.46088  1.0000
  H   H1040     1.0  0.52317  0.22779  0.43657  1.0000
  H   H1041     1.0  0.59904  0.13594  0.75807  1.0000
  C   C604      1.0  0.57962  0.19913  0.12644  1.0000
  H   H1042     1.0  0.52024  0.00261  0.53226  1.0000
  H   H1043     1.0  0.71003  0.05630  0.72505  1.0000
  H   H1044     1.0  0.63461  0.17913  0.07323  1.0000
  H   H1045     1.0  0.60606  0.18205  0.04106  1.0000
  C   C605      1.0  0.52056  0.13487  0.69903  1.0000
  H   H1046     1.0  0.59875  0.20949  0.32130  1.0000
  C   C606      1.0  0.61383  0.32080  0.06371  1.0000
  H   H1047     1.0  0.53325  0.29017  0.82130  1.0000
  H   H1048     1.0  0.65281  0.10706  0.61286  1.0000
  C   C607      1.0  0.58584  0.30505  0.88047  1.0000
  H   H1049     1.0  0.56511  0.24071  0.25143  1.0000
  H   H1050     1.0  0.59568  0.30200  0.91589  1.0000
  H   H1051     1.0  0.62012  0.02539  0.78316  1.0000
  H   H1052     1.0  0.66821  0.01182  0.52380  1.0000
  H   H1053     1.0  0.67309  0.01756  0.62583  1.0000
  H   H1054     1.0  0.70163  0.02687  0.74663  1.0000
  H   H1055     1.0  0.62586  0.19063  0.65197  1.0000
  C   C608      1.0  0.58392  0.20861  0.21779  1.0000
  H   H1056     1.0  0.63851  0.03014  0.33316  1.0000
  H   H1057     1.0  0.51354  0.15673  0.58273  1.0000
  H   H1058     1.0  0.52379  0.20778  0.76120  1.0000
  C   C609      1.0  0.57254  0.22251  0.26412  1.0000
  C   C610      1.0  0.51485  0.15448  0.54176  1.0000
  H   H1059     1.0  0.64433  0.05252  0.72968  1.0000
  N   N32       1.0  0.57958  0.25233  0.56417  1.0000
  H   H1060     1.0  0.60774  0.01577  0.72198  1.0000
  H   H1061     1.0  0.66515  0.02385  0.29591  1.0000
  H   H1062     1.0  0.61678  0.26289  0.55214  1.0000
  C   C611      1.0  0.60033  0.25861  0.52939  1.0000
  C   C612      1.0  0.74211  0.01515  0.06567  1.0000
  H   H1063     1.0  0.72787  0.20274  0.87726  1.0000
  C   C613      1.0  0.60333  0.21590  0.60731  1.0000
  H   H1064     1.0  0.52907  0.13429  0.21144  1.0000
  H   H1065     1.0  0.53032  0.13761  0.28016  1.0000
  C   C614      1.0  0.61576  0.20832  0.65750  1.0000
  H   H1066     1.0  0.53831  0.30509  0.25229  1.0000
  H   H1067     1.0  0.55187  0.20368  0.72772  1.0000
  C   C615      1.0  0.57170  0.15361  0.70903  1.0000
  H   H1068     1.0  0.72828  0.01771  0.50321  1.0000
  H   H1069     1.0  0.55734  0.28463  0.54526  1.0000
  H   H1070     1.0  0.57918  0.28027  0.47136  1.0000
  S   S147      1.0  0.51084  0.17948  0.00756  1.0000
  H   H1071     1.0  0.60572  0.24218  0.50618  1.0000
  C   C616      1.0  0.59692  0.15246  0.73314  1.0000
  H   H1072     1.0  0.72497  0.03055  0.65954  1.0000
  H   H1073     1.0  0.68742  0.00435  0.68028  1.0000
  H   H1074     1.0  0.73848  0.00196  0.59183  1.0000
  H   H1075     1.0  0.61716  0.21671  0.57689  1.0000
  H   H1076     1.0  0.59057  0.20114  0.59777  1.0000
  H   H1077     1.0  0.53276  0.28031  0.16706  1.0000
  C   C617      1.0  0.54450  0.21497  0.17274  1.0000
  H   H1078     1.0  0.53156  0.17751  0.66129  1.0000
  H   H1079     1.0  0.72086  0.21003  0.73625  1.0000
  N   N33       1.0  0.52629  0.15699  0.73167  1.0000
  C   C618      1.0  0.54042  0.14044  0.24407  1.0000
  H   H1080     1.0  0.51993  0.21662  0.50116  1.0000
  H   H1081     1.0  0.69071  0.32591  0.59688  1.0000
  C   C619      1.0  0.56092  0.31278  0.78830  1.0000
  H   H1082     1.0  0.74153  0.23312  0.75171  1.0000
  C   C620      1.0  0.66909  0.09029  0.68109  1.0000
  S   S148      1.0  0.65226  0.30524  0.80942  1.0000
  C   C621      1.0  0.72667  0.01342  0.46182  1.0000
  H   H1083     1.0  0.60286  0.25369  0.63095  1.0000
  H   H1084     1.0  0.68454  0.11312  0.62095  1.0000
  H   H1085     1.0  0.52911  0.17833  0.23891  1.0000
  C   C622      1.0  0.58973  0.24102  0.61289  1.0000
  H   H1086     1.0  0.66243  0.12869  0.66063  1.0000
  H   H1087     1.0  0.53774  0.26644  0.07865  1.0000
  C   C623      1.0  0.56442  0.27460  0.57935  1.0000
  C   C624      1.0  0.51039  0.32887  0.28383  1.0000
  H   H1088     1.0  0.52666  0.11749  0.71821  1.0000
  H   H1089     1.0  0.72426  0.24656  0.58992  1.0000
  H   H1090     1.0  0.62034  0.20912  0.06752  1.0000
  H   H1091     1.0  0.66730  0.06293  0.62064  1.0000
  H   H1092     1.0  0.52136  0.18863  0.13133  1.0000
  C   C625      1.0  0.57723  0.29345  0.61457  1.0000
  H   H1093     1.0  0.55742  0.17250  0.27258  1.0000
  H   H1094     1.0  0.58288  0.08462  0.38464  1.0000
  H   H1095     1.0  0.69672  0.06954  0.64358  1.0000
  H   H1096     1.0  0.74692  0.08836  0.07732  1.0000
  H   H1097     1.0  0.66089  0.01501  0.41189  1.0000
  H   H1098     1.0  0.71887  0.03035  0.28298  1.0000
  H   H1099     1.0  0.71284  0.04404  0.83458  1.0000
  C   C626      1.0  0.73157  0.31674  0.64965  1.0000
  S   S149      1.0  0.55185  0.27711  0.92325  1.0000
  C   C627      1.0  0.73526  0.03797  0.26518  1.0000
  Fe  Fe74      1.0  0.68025  0.30135  0.74869  1.0000
  H   H1100     1.0  0.59587  0.19350  0.23311  1.0000
  H   H1101     1.0  0.59648  0.22206  0.20057  1.0000
  C   C628      1.0  0.56080  0.17225  0.18904  1.0000
  C   C629      1.0  0.53321  0.22140  0.47120  1.0000
  N   N34       1.0  0.62152  0.21802  0.86462  1.0000
  C   C630      1.0  0.61691  0.22614  0.81006  1.0000
  C   C631      1.0  0.62835  0.19089  0.86485  1.0000
  C   C632      1.0  0.59792  0.22111  0.89308  1.0000
  C   C633      1.0  0.64049  0.23306  0.89153  1.0000
  C   C634      1.0  0.66166  0.24244  0.85860  1.0000
  C   C635      1.0  0.60586  0.25253  0.80369  1.0000
  C   C636      1.0  0.59779  0.21159  0.94905  1.0000
  C   C637      1.0  0.65208  0.18321  0.83731  1.0000
  C   C638      1.0  0.65429  0.15527  0.83046  1.0000
  C   C639      1.0  0.67963  0.25668  0.89130  1.0000
  C   C640      1.0  0.60834  0.26177  0.74881  1.0000
  C   C641      1.0  0.57484  0.21999  0.97692  1.0000
  H   H1102     1.0  0.60432  0.21330  0.79077  1.0000
  H   H1103     1.0  0.63366  0.22506  0.78709  1.0000
  H   H1104     1.0  0.63086  0.18406  0.90469  1.0000
  H   H1105     1.0  0.61329  0.18002  0.84843  1.0000
  H   H1106     1.0  0.58308  0.21173  0.87214  1.0000
  H   H1107     1.0  0.59239  0.24094  0.89515  1.0000
  H   H1108     1.0  0.63208  0.24985  0.90922  1.0000
  H   H1109     1.0  0.64853  0.22240  0.92416  1.0000
  H   H1110     1.0  0.65500  0.25501  0.82820  1.0000
  H   H1111     1.0  0.67162  0.22737  0.83923  1.0000
  H   H1112     1.0  0.58626  0.25253  0.81266  1.0000
  H   H1113     1.0  0.61457  0.26581  0.82982  1.0000
  H   H1114     1.0  0.61353  0.21825  0.97107  1.0000
  H   H1115     1.0  0.59828  0.19121  0.94948  1.0000
  H   H1116     1.0  0.65353  0.19144  0.79874  1.0000
  H   H1117     1.0  0.66773  0.18872  0.86115  1.0000
  H   H1118     1.0  0.67157  0.15044  0.81109  1.0000
  H   H1119     1.0  0.65436  0.14584  0.86812  1.0000
  H   H1120     1.0  0.63914  0.14832  0.80694  1.0000
  H   H1121     1.0  0.68837  0.24438  0.92026  1.0000
  H   H1122     1.0  0.69384  0.26432  0.86643  1.0000
  H   H1123     1.0  0.67044  0.27238  0.91108  1.0000
  H   H1124     1.0  0.60092  0.28086  0.74573  1.0000
  H   H1125     1.0  0.62761  0.26193  0.73720  1.0000
  H   H1126     1.0  0.59798  0.24992  0.72253  1.0000
  H   H1127     1.0  0.57325  0.20993  0.01357  1.0000
  H   H1128     1.0  0.57541  0.23999  0.98545  1.0000
  H   H1129     1.0  0.55852  0.21617  0.95358  1.0000
  H   H1130     1.0  0.69430  0.06860  0.86049  1.0000
  H   H1131     1.0  0.71013  0.03755  0.59925  1.0000
  H   H1132     1.0  0.54990  0.22709  0.56721  1.0000
  S   S150      1.0  0.66424  0.33178  0.70045  1.0000
  H   H1133     1.0  0.53423  0.21543  0.20903  1.0000
  H   H1134     1.0  0.73289  0.01425  0.19772  1.0000
  H   H1135     1.0  0.68223  0.09615  0.71071  1.0000
  C   C642      1.0  0.71134  0.02418  0.63145  1.0000
  H   H1136     1.0  0.51788  0.32259  0.91086  1.0000
  H   H1137     1.0  0.61680  0.26479  0.42858  1.0000
  H   H1138     1.0  0.58299  0.23770  0.33786  1.0000
  C   C643      1.0  0.56353  0.23352  0.53932  1.0000
  H   H1139     1.0  0.67296  0.07390  0.77806  1.0000
  H   H1140     1.0  0.55604  0.16924  0.77873  1.0000
  H   H1141     1.0  0.59600  0.29666  0.60200  1.0000
  H   H1142     1.0  0.56301  0.31173  0.17613  1.0000
  C   C644      1.0  0.54999  0.24158  0.48987  1.0000
  N   N35       1.0  0.66141  0.07659  0.31409  1.0000
  C   C645      1.0  0.67044  0.10012  0.33771  1.0000
  C   C646      1.0  0.63436  0.07882  0.30798  1.0000
  C   C647      1.0  0.66855  0.05539  0.34889  1.0000
  C   C648      1.0  0.67233  0.07210  0.26203  1.0000
  C   C649      1.0  0.66839  0.09307  0.22234  1.0000
  C   C650      1.0  0.69823  0.10338  0.33730  1.0000
  C   C651      1.0  0.65853  0.02981  0.33405  1.0000
  C   C652      1.0  0.61981  0.08002  0.35850  1.0000
  C   C653      1.0  0.59281  0.08368  0.34782  1.0000
  C   C654      1.0  0.68343  0.08848  0.17428  1.0000
  C   C655      1.0  0.70517  0.12731  0.36387  1.0000
  H   H1143     1.0  0.67021  0.04335  0.80236  1.0000
  H   H1144     1.0  0.66482  0.10149  0.37849  1.0000
  H   H1145     1.0  0.66184  0.11661  0.31908  1.0000
  H   H1146     1.0  0.62941  0.09589  0.28626  1.0000
  H   H1147     1.0  0.62734  0.06343  0.28434  1.0000
  H   H1148     1.0  0.66323  0.05946  0.38920  1.0000
  H   H1149     1.0  0.68849  0.05309  0.35026  1.0000
  H   H1150     1.0  0.69198  0.06800  0.26557  1.0000
  H   H1151     1.0  0.66465  0.05541  0.24397  1.0000
  H   H1152     1.0  0.67343  0.11126  0.23782  1.0000
  H   H1153     1.0  0.64912  0.09401  0.21037  1.0000
  H   H1154     1.0  0.70765  0.08801  0.35766  1.0000
  H   H1155     1.0  0.70520  0.10423  0.29762  1.0000
  H   H1156     1.0  0.58580  0.06806  0.32501  1.0000
  H   H1157     1.0  0.68659  0.00732  0.37165  1.0000
  H   H1158     1.0  0.62220  0.06287  0.38125  1.0000
  H   H1159     1.0  0.62571  0.09564  0.38230  1.0000
  H   H1160     1.0  0.62328  0.30306  0.05479  1.0000
  H   H1161     1.0  0.72749  0.03392  0.36460  1.0000
  H   H1162     1.0  0.58928  0.10120  0.32677  1.0000
  H   H1163     1.0  0.70302  0.08864  0.18352  1.0000
  H   H1164     1.0  0.67891  0.07053  0.15659  1.0000
  H   H1165     1.0  0.67952  0.10328  0.14584  1.0000
  C   C656      1.0  0.54571  0.31803  0.15781  1.0000
  H   H1166     1.0  0.69979  0.12697  0.40479  1.0000
  H   H1167     1.0  0.72504  0.12952  0.36208  1.0000
  H   H1168     1.0  0.52149  0.04300  0.57539  1.0000
  H   H1169     1.0  0.63975  0.03959  0.66865  1.0000
  H   H1170     1.0  0.70892  0.02052  0.44780  1.0000
  N   N36       1.0  0.67746  0.04298  0.68920  1.0000
  C   C657      1.0  0.65157  0.03820  0.70335  1.0000
  C   C658      1.0  0.67803  0.06585  0.65627  1.0000
  C   C659      1.0  0.68629  0.02149  0.65688  1.0000
  C   C660      1.0  0.69402  0.04526  0.73524  1.0000
  C   C661      1.0  0.68299  0.05638  0.78499  1.0000
  C   C662      1.0  0.64695  0.01265  0.72769  1.0000
  C   C663      1.0  0.59141  0.22722  0.30583  1.0000
  Fe  Fe75      1.0  0.51684  0.25753  0.91327  1.0000
  H   H1171     1.0  0.56989  0.13703  0.68450  1.0000
  H   H1172     1.0  0.57420  0.21681  0.52823  1.0000
  H   H1173     1.0  0.54987  0.23435  0.16581  1.0000
  H   H1174     1.0  0.53279  0.24333  0.70584  1.0000
  N   N37       1.0  0.56687  0.19864  0.17745  1.0000
  H   H1175     1.0  0.70848  0.28684  0.43380  1.0000
  C   C664      1.0  0.70536  0.31663  0.48909  1.0000
  H   H1176     1.0  0.53093  0.13531  0.66262  1.0000
  C   C665      1.0  0.62185  0.01179  0.75150  1.0000
  H   H1177     1.0  0.58260  0.21856  0.11452  1.0000
  H   H1178     1.0  0.57762  0.16091  0.19335  1.0000
  C   C666      1.0  0.53308  0.29474  0.13692  1.0000
  C   C667      1.0  0.50970  0.15901  0.77721  1.0000
  H   H1179     1.0  0.55768  0.21229  0.28175  1.0000
  H   H1180     1.0  0.61072  0.15126  0.70250  1.0000
  C   C668      1.0  0.52279  0.31637  0.23713  1.0000
  C   C669      1.0  0.51027  0.33283  0.94411  1.0000
  C   C670      1.0  0.74906  0.21401  0.65589  1.0000
  H   H1181     1.0  0.74748  0.04331  0.18664  1.0000
  H   H1182     1.0  0.70670  0.20188  0.82472  1.0000
  H   H1183     1.0  0.54482  0.31579  0.62964  1.0000
  H   H1184     1.0  0.51491  0.17454  0.80243  1.0000
  H   H1185     1.0  0.56829  0.19082  0.09601  1.0000
  C   C671      1.0  0.50160  0.04124  0.57849  1.0000
  H   H1186     1.0  0.56308  0.24463  0.45867  1.0000
  C   C672      1.0  0.54640  0.16768  0.23858  1.0000
  C   C673      1.0  0.53194  0.20423  0.72320  1.0000
  C   C674      1.0  0.50302  0.22374  0.13340  1.0000
  H   H1187     1.0  0.70630  0.30328  0.52132  1.0000
  H   H1188     1.0  0.60652  0.23806  0.29040  1.0000
  H   H1189     1.0  0.55833  0.33179  0.94871  1.0000
  C   C675      1.0  0.58358  0.32328  0.79603  1.0000
  H   H1190     1.0  0.50679  0.24371  0.13087  1.0000
  H   H1191     1.0  0.71523  0.04236  0.19363  1.0000
  H   H1192     1.0  0.60217  0.20580  0.68801  1.0000
  C   C676      1.0  0.51780  0.14940  0.43545  1.0000
  H   H1193     1.0  0.60139  0.31783  0.09622  1.0000
  C   C677      1.0  0.59566  0.31979  0.84256  1.0000
  C   C678      1.0  0.61673  0.28167  0.45274  1.0000
  H   H1194     1.0  0.62874  0.22248  0.66987  1.0000
  H   H1195     1.0  0.60014  0.16924  0.75629  1.0000
  C   C679      1.0  0.74003  0.21281  0.74761  1.0000
  H   H1196     1.0  0.61395  0.29797  0.42747  1.0000
  H   H1197     1.0  0.63458  0.28308  0.47199  1.0000
  H   H1198     1.0  0.51901  0.14743  0.39430  1.0000
  H   H1199     1.0  0.58654  0.31564  0.00658  1.0000
  C   C680      1.0  0.52282  0.17987  0.69936  1.0000
  H   H1200     1.0  0.57805  0.28637  0.65453  1.0000
  H   H1201     1.0  0.55148  0.31550  0.75227  1.0000
  H   H1202     1.0  0.50533  0.22867  0.68654  1.0000
  H   H1203     1.0  0.67785  0.29543  0.44945  1.0000
  H   H1204     1.0  0.53411  0.21202  0.09128  1.0000
  H   H1205     1.0  0.50951  0.30311  0.22167  1.0000
  C   C681      1.0  0.69612  0.30270  0.44223  1.0000
  H   H1206     1.0  0.74518  0.18164  0.80178  1.0000
  C   C682      1.0  0.73060  0.16425  0.69958  1.0000
  H   H1207     1.0  0.74042  0.25249  0.67794  1.0000
  H   H1208     1.0  0.69538  0.31494  0.40811  1.0000
  H   H1209     1.0  0.56562  0.27932  0.10107  1.0000
  S   S151      1.0  0.70583  0.32618  0.79006  1.0000
  C   C683      1.0  0.56356  0.31820  0.61584  1.0000
  C   C684      1.0  0.54649  0.28371  0.09096  1.0000
  H   H1210     1.0  0.67119  0.32968  0.51421  1.0000
  H   H1211     1.0  0.71383  0.12874  0.69122  1.0000
  H   H1212     1.0  0.72376  0.32287  0.48057  1.0000
  H   H1213     1.0  0.57285  0.33094  0.64245  1.0000
  H   H1214     1.0  0.71537  0.07523  0.81057  1.0000
  H   H1215     1.0  0.73553  0.32071  0.56846  1.0000
  C   C685      1.0  0.74498  0.04365  0.99474  1.0000
  H   H1216     1.0  0.56303  0.32674  0.57717  1.0000
  H   H1217     1.0  0.50879  0.31997  0.97704  1.0000
  C   C686      1.0  0.59984  0.32990  0.01649  1.0000
  H   H1218     1.0  0.50565  0.11888  0.79064  1.0000
  H   H1219     1.0  0.74546  0.16234  0.92676  1.0000
  S   S152      1.0  0.68426  0.32920  0.93173  1.0000
  H   H1220     1.0  0.55116  0.32893  0.12421  1.0000
  H   H1221     1.0  0.72684  0.32818  0.68355  1.0000
  H   H1222     1.0  0.71957  0.30062  0.64803  1.0000
  S   S153      1.0  0.62535  0.00383  0.58483  1.0000
  H   H1223     1.0  0.72968  0.21029  0.64852  1.0000
  H   H1224     1.0  0.72053  0.16736  0.73571  1.0000
  H   H1225     1.0  0.71984  0.17244  0.66766  1.0000
  H   H1226     1.0  0.74748  0.04497  0.44342  1.0000
  H   H1227     1.0  0.61257  0.32870  0.84970  1.0000
  C   C687      1.0  0.74362  0.25066  0.59638  1.0000
  S   S154      1.0  0.50207  0.24843  0.99018  1.0000
  H   H1228     1.0  0.50332  0.18295  0.69049  1.0000
  C   C688      1.0  0.74430  0.20203  0.80205  1.0000
  C   C689      1.0  0.73265  0.03422  0.20735  1.0000
  H   H1229     1.0  0.74587  0.27084  0.59260  1.0000
  H   H1230     1.0  0.73578  0.05807  0.27243  1.0000
  C   C690      1.0  0.74372  0.02242  0.37397  1.0000
  H   H1231     1.0  0.74311  0.12731  0.72142  1.0000
  C   C691      1.0  0.74730  0.02516  0.43273  1.0000
  H   H1232     1.0  0.74055  0.13226  0.65302  1.0000
  C   C692      1.0  0.72923  0.33217  0.60083  1.0000
  H   H1233     1.0  0.61302  0.33116  0.98476  1.0000
  Fe  Fe76      1.0  0.67613  0.33267  0.84704  1.0000
  Fe  Fe77      1.0  0.62780  0.61253  0.24087  1.0000
  S   S155      1.0  0.62366  0.60466  0.32442  1.0000
  S   S156      1.0  0.63822  0.58147  0.18742  1.0000
  Fe  Fe78      1.0  0.59044  0.62896  0.31779  1.0000
  S   S157      1.0  0.55577  0.61519  0.35092  1.0000
  S   S158      1.0  0.65007  0.64626  0.25260  1.0000
  S   S159      1.0  0.59304  0.63407  0.23306  1.0000
  H   H1234     1.0  0.51845  0.58051  0.27175  1.0000
  S   S160      1.0  0.65952  0.36550  0.80648  1.0000
  H   H1235     1.0  0.55701  0.54640  0.22087  1.0000
  H   H1236     1.0  0.52403  0.56374  0.37718  1.0000
  H   H1237     1.0  0.50330  0.48866  0.27427  1.0000
  Fe  Fe79      1.0  0.68754  0.35723  0.74662  1.0000
  S   S161      1.0  0.71024  0.38491  0.70500  1.0000
  C   C693      1.0  0.54858  0.39627  0.18232  1.0000
  C   C694      1.0  0.55104  0.66452  0.07608  1.0000
  C   C695      1.0  0.54351  0.56181  0.21990  1.0000
  Fe  Fe80      1.0  0.64770  0.40962  0.17013  1.0000
  S   S162      1.0  0.66370  0.38111  0.22393  1.0000
  S   S163      1.0  0.64130  0.40926  0.08423  1.0000
  Fe  Fe81      1.0  0.63289  0.44440  0.25696  1.0000
  S   S164      1.0  0.64780  0.41906  0.31798  1.0000
  S   S165      1.0  0.61088  0.47815  0.27966  1.0000
  Fe  Fe82      1.0  0.67968  0.41336  0.26614  1.0000
  S   S166      1.0  0.71854  0.41843  0.29362  1.0000
  Fe  Fe83      1.0  0.63062  0.38919  0.27185  1.0000
  S   S167      1.0  0.60842  0.36002  0.30998  1.0000
  S   S168      1.0  0.66600  0.44144  0.20829  1.0000
  S   S169      1.0  0.61355  0.41486  0.21479  1.0000
  Fe  Fe84      1.0  0.72972  0.56695  0.63970  1.0000
  H   H1238     1.0  0.51166  0.33810  0.08837  1.0000
  S   S170      1.0  0.70229  0.59649  0.61284  1.0000
  Fe  Fe85      1.0  0.73519  0.52166  0.71062  1.0000
  S   S171      1.0  0.71677  0.49753  0.76835  1.0000
  S   S172      1.0  0.71964  0.52732  0.63225  1.0000
  C   C696      1.0  0.53342  0.38285  0.36956  1.0000
  C   C697      1.0  0.54500  0.36111  0.38647  1.0000
  C   C698      1.0  0.56784  0.35420  0.36755  1.0000
  C   C699      1.0  0.57990  0.36958  0.33357  1.0000
  C   C700      1.0  0.56874  0.39178  0.31803  1.0000
  C   C701      1.0  0.54535  0.39817  0.33520  1.0000
  H   H1239     1.0  0.69885  0.35353  0.62684  1.0000
  N   N38       1.0  0.57036  0.36509  0.98585  1.0000
  H   H1240     1.0  0.57805  0.40400  0.29264  1.0000
  H   H1241     1.0  0.53682  0.41528  0.32302  1.0000
  C   C702      1.0  0.67101  0.35040  0.97478  1.0000
  C   C703      1.0  0.65480  0.36870  0.95764  1.0000
  C   C704      1.0  0.64569  0.38636  0.99212  1.0000
  C   C705      1.0  0.65234  0.38568  0.04396  1.0000
  C   C706      1.0  0.66797  0.36696  0.06159  1.0000
  C   C707      1.0  0.67735  0.34938  0.02693  1.0000
  H   H1242     1.0  0.64965  0.36952  0.91769  1.0000
  H   H1243     1.0  0.63372  0.40093  0.97859  1.0000
  H   H1244     1.0  0.67322  0.36630  0.10157  1.0000
  H   H1245     1.0  0.67404  0.54498  0.55661  1.0000
  C   C708      1.0  0.71095  0.41632  0.72227  1.0000
  C   C709      1.0  0.72564  0.43211  0.69424  1.0000
  C   C710      1.0  0.72725  0.45712  0.70755  1.0000
  C   C711      1.0  0.71405  0.46655  0.74889  1.0000
  C   C712      1.0  0.69882  0.45095  0.77594  1.0000
  C   C713      1.0  0.69738  0.42582  0.76304  1.0000
  H   H1246     1.0  0.73593  0.42498  0.66220  1.0000
  H   H1247     1.0  0.61816  0.37451  0.60450  1.0000
  H   H1248     1.0  0.68786  0.45854  0.80629  1.0000
  H   H1249     1.0  0.68570  0.41390  0.78431  1.0000
  C   C714      1.0  0.70597  0.61397  0.46022  1.0000
  C   C715      1.0  0.71186  0.60432  0.50913  1.0000
  C   C716      1.0  0.69487  0.60532  0.54862  1.0000
  C   C717      1.0  0.67157  0.61489  0.53758  1.0000
  C   C718      1.0  0.66540  0.62365  0.48809  1.0000
  H   H1250     1.0  0.71962  0.61422  0.43080  1.0000
  H   H1251     1.0  0.72975  0.59679  0.51659  1.0000
  H   H1252     1.0  0.65827  0.61585  0.56771  1.0000
  C   C719      1.0  0.52912  0.63218  0.33685  1.0000
  H   H1253     1.0  0.57639  0.33711  0.38006  1.0000
  H   H1254     1.0  0.54244  0.56446  0.30189  1.0000
  C   C720      1.0  0.62924  0.55246  0.20952  1.0000
  C   C721      1.0  0.61165  0.55074  0.24740  1.0000
  C   C722      1.0  0.60533  0.52768  0.26664  1.0000
  C   C723      1.0  0.61710  0.50620  0.24935  1.0000
  C   C724      1.0  0.63421  0.50772  0.21034  1.0000
  C   C725      1.0  0.64009  0.53084  0.19008  1.0000
  H   H1255     1.0  0.60301  0.56721  0.26214  1.0000
  H   H1256     1.0  0.59161  0.52655  0.29566  1.0000
  H   H1257     1.0  0.64314  0.49120  0.19627  1.0000
  H   H1258     1.0  0.65359  0.53206  0.16047  1.0000
  H   H1259     1.0  0.52962  0.39557  0.16888  1.0000
  H   H1260     1.0  0.70039  0.47714  0.43040  1.0000
  C   C726      1.0  0.58757  0.35546  0.02675  1.0000
  H   H1261     1.0  0.70633  0.37346  0.34926  1.0000
  H   H1262     1.0  0.54574  0.39663  0.97771  1.0000
  H   H1263     1.0  0.73848  0.65551  0.74632  1.0000
  C   C727      1.0  0.55704  0.58566  0.21252  1.0000
  C   C728      1.0  0.68274  0.62376  0.44928  1.0000
  H   H1264     1.0  0.74418  0.46657  0.45617  1.0000
  C   C729      1.0  0.52963  0.65600  0.31630  1.0000
  N   N39       1.0  0.51285  0.54119  0.27997  1.0000
  H   H1265     1.0  0.70977  0.40727  0.09808  1.0000
  H   H1266     1.0  0.63305  0.39923  0.57194  1.0000
  H   H1267     1.0  0.71017  0.44414  0.49373  1.0000
  H   H1268     1.0  0.50298  0.36167  0.19454  1.0000
  H   H1269     1.0  0.50406  0.49815  0.34021  1.0000
  H   H1270     1.0  0.50735  0.52848  0.20205  1.0000
  H   H1271     1.0  0.56126  0.34268  0.24375  1.0000
  H   H1272     1.0  0.56399  0.36374  0.14593  1.0000
  C   C730      1.0  0.70439  0.43946  0.45412  1.0000
  N   N40       1.0  0.63682  0.51464  0.42835  1.0000
  C   C731      1.0  0.64761  0.53031  0.47008  1.0000
  C   C732      1.0  0.61076  0.52245  0.41815  1.0000
  C   C733      1.0  0.63697  0.48836  0.44758  1.0000
  C   C734      1.0  0.65133  0.51532  0.37963  1.0000
  C   C735      1.0  0.65597  0.54113  0.35696  1.0000
  C   C736      1.0  0.67415  0.52398  0.48520  1.0000
  C   C737      1.0  0.62517  0.46923  0.41146  1.0000
  C   C738      1.0  0.60379  0.55010  0.42561  1.0000
  C   C739      1.0  0.57817  0.55575  0.40632  1.0000
  C   C740      1.0  0.67328  0.53950  0.31166  1.0000
  C   C741      1.0  0.72459  0.37836  0.35935  1.0000
  C   C742      1.0  0.62237  0.44442  0.43824  1.0000
  H   H1273     1.0  0.63656  0.52910  0.50551  1.0000
  H   H1274     1.0  0.64697  0.55012  0.45955  1.0000
  H   H1275     1.0  0.60524  0.51702  0.37874  1.0000
  H   H1276     1.0  0.59837  0.51244  0.44403  1.0000
  H   H1277     1.0  0.62777  0.48753  0.48543  1.0000
  H   H1278     1.0  0.65574  0.48137  0.45428  1.0000
  H   H1279     1.0  0.66895  0.50540  0.38460  1.0000
  H   H1280     1.0  0.64210  0.50488  0.34883  1.0000
  H   H1281     1.0  0.66402  0.55378  0.38533  1.0000
  H   H1282     1.0  0.63878  0.54933  0.34240  1.0000
  H   H1283     1.0  0.67550  0.50617  0.50605  1.0000
  H   H1284     1.0  0.68590  0.52304  0.45115  1.0000
  H   H1285     1.0  0.63671  0.46610  0.37738  1.0000
  H   H1286     1.0  0.60697  0.47536  0.39811  1.0000
  H   H1287     1.0  0.60431  0.55481  0.46704  1.0000
  H   H1288     1.0  0.61615  0.56249  0.40543  1.0000
  H   H1289     1.0  0.57293  0.57495  0.41688  1.0000
  H   H1290     1.0  0.57728  0.55413  0.36397  1.0000
  H   H1291     1.0  0.56505  0.54313  0.42390  1.0000
  H   H1292     1.0  0.66698  0.52594  0.28305  1.0000
  H   H1293     1.0  0.67417  0.55780  0.29270  1.0000
  H   H1294     1.0  0.69169  0.53393  0.32458  1.0000
  H   H1295     1.0  0.52703  0.36671  0.92386  1.0000
  H   H1296     1.0  0.72526  0.46671  0.87522  1.0000
  H   H1297     1.0  0.64023  0.43671  0.45037  1.0000
  H   H1298     1.0  0.61050  0.44642  0.47218  1.0000
  H   H1299     1.0  0.61394  0.43118  0.41136  1.0000
  C   C743      1.0  0.68825  0.33851  0.50280  1.0000
  H   H1300     1.0  0.68985  0.33518  0.04043  1.0000
  H   H1301     1.0  0.54419  0.46920  0.28373  1.0000
  H   H1302     1.0  0.60150  0.37357  0.83975  1.0000
  C   C744      1.0  0.73806  0.63550  0.73779  1.0000
  H   H1303     1.0  0.74095  0.42056  0.92075  1.0000
  H   H1304     1.0  0.54541  0.47918  0.34985  1.0000
  C   C745      1.0  0.51032  0.54916  0.37783  1.0000
  C   C746      1.0  0.70284  0.34185  0.59296  1.0000
  C   C747      1.0  0.63598  0.38261  0.59623  1.0000
  H   H1305     1.0  0.54868  0.40513  0.22062  1.0000
  S   S173      1.0  0.50563  0.39202  0.39710  1.0000
  H   H1306     1.0  0.50460  0.66451  0.76128  1.0000
  H   H1307     1.0  0.54270  0.52254  0.31909  1.0000
  C   C748      1.0  0.73130  0.55569  0.41417  1.0000
  H   H1308     1.0  0.72598  0.55424  0.45493  1.0000
  H   H1309     1.0  0.72139  0.37997  0.93941  1.0000
  H   H1310     1.0  0.71578  0.51136  0.38506  1.0000
  H   H1311     1.0  0.71027  0.60771  0.73089  1.0000
  C   C749      1.0  0.52893  0.56276  0.27040  1.0000
  C   C750      1.0  0.51013  0.65439  0.10112  1.0000
  H   H1312     1.0  0.59764  0.40480  0.86266  1.0000
  C   C751      1.0  0.73485  0.39901  0.33697  1.0000
  H   H1313     1.0  0.57894  0.37310  0.20158  1.0000
  H   H1314     1.0  0.74602  0.44676  0.40208  1.0000
  C   C752      1.0  0.52864  0.51864  0.28965  1.0000
  C   C753      1.0  0.70329  0.41848  0.99571  1.0000
  H   H1315     1.0  0.71365  0.42205  0.44200  1.0000
  H   H1316     1.0  0.57446  0.44701  0.05021  1.0000
  H   H1317     1.0  0.74772  0.62531  0.76895  1.0000
  H   H1318     1.0  0.69096  0.42878  0.02198  1.0000
  H   H1319     1.0  0.54914  0.42889  0.06908  1.0000
  H   H1320     1.0  0.58818  0.41439  0.99064  1.0000
  H   H1321     1.0  0.58690  0.40384  0.05610  1.0000
  H   H1322     1.0  0.50583  0.63194  0.22610  1.0000
  C   C754      1.0  0.72283  0.49982  0.91981  1.0000
  H   H1323     1.0  0.73804  0.51750  0.29463  1.0000
  H   H1324     1.0  0.51101  0.63563  0.08360  1.0000
  C   C755      1.0  0.52612  0.35464  0.95786  1.0000
  C   C756      1.0  0.68430  0.54374  0.52023  1.0000
  C   C757      1.0  0.51525  0.49503  0.30566  1.0000
  H   H1325     1.0  0.53676  0.36382  0.24794  1.0000
  H   H1326     1.0  0.74173  0.49851  0.93413  1.0000
  H   H1327     1.0  0.69501  0.40015  0.99098  1.0000
  H   H1328     1.0  0.51680  0.36511  0.98873  1.0000
  C   C758      1.0  0.55864  0.38854  0.00597  1.0000
  N   N41       1.0  0.70478  0.43143  0.94478  1.0000
  C   C759      1.0  0.73815  0.36378  0.39429  1.0000
  C   C760      1.0  0.57590  0.40940  0.02216  1.0000
  C   C761      1.0  0.73374  0.50898  0.40381  1.0000
  C   C762      1.0  0.67996  0.43209  0.92063  1.0000
  C   C763      1.0  0.66046  0.44816  0.94817  1.0000
  C   C764      1.0  0.50910  0.34566  0.17098  1.0000
  H   H1329     1.0  0.71912  0.38015  0.06229  1.0000
  C   C765      1.0  0.63697  0.44918  0.91707  1.0000
  H   H1330     1.0  0.52755  0.36486  0.10809  1.0000
  H   H1331     1.0  0.71975  0.47996  0.32467  1.0000
  H   H1332     1.0  0.54756  0.38424  0.04010  1.0000
  C   C766      1.0  0.54712  0.35234  0.22004  1.0000
  C   C767      1.0  0.71358  0.47431  0.90606  1.0000
  H   H1333     1.0  0.64758  0.63146  0.48071  1.0000
  H   H1334     1.0  0.72218  0.48820  0.23034  1.0000
  H   H1335     1.0  0.68086  0.43819  0.88017  1.0000
  H   H1336     1.0  0.67269  0.41322  0.91832  1.0000
  H   H1337     1.0  0.66625  0.46741  0.95350  1.0000
  H   H1338     1.0  0.65633  0.44044  0.98638  1.0000
  C   C768      1.0  0.53317  0.47401  0.31790  1.0000
  H   H1339     1.0  0.69504  0.47696  0.89048  1.0000
  H   H1340     1.0  0.69927  0.38599  0.89003  1.0000
  H   H1341     1.0  0.55997  0.36432  0.87387  1.0000
  H   H1342     1.0  0.52310  0.45749  0.32967  1.0000
  H   H1343     1.0  0.62294  0.45972  0.93863  1.0000
  H   H1344     1.0  0.63983  0.45855  0.87981  1.0000
  H   H1345     1.0  0.63030  0.43035  0.90973  1.0000
  C   C769      1.0  0.65205  0.36360  0.56880  1.0000
  H   H1346     1.0  0.64237  0.35791  0.53342  1.0000
  H   H1347     1.0  0.68465  0.43646  0.45395  1.0000
  H   H1348     1.0  0.53176  0.55956  0.18580  1.0000
  H   H1349     1.0  0.73309  0.45614  0.96699  1.0000
  Fe  Fe86      1.0  0.63783  0.33734  0.76410  1.0000
  H   H1350     1.0  0.54416  0.60131  0.20604  1.0000
  H   H1351     1.0  0.70390  0.63159  0.77713  1.0000
  H   H1352     1.0  0.73003  0.50731  0.44564  1.0000
  H   H1353     1.0  0.71120  0.50866  0.94941  1.0000
  S   S174      1.0  0.59796  0.33926  0.74703  1.0000
  H   H1354     1.0  0.55336  0.64446  0.06753  1.0000
  H   H1355     1.0  0.72048  0.42604  0.86978  1.0000
  Fe  Fe87      1.0  0.64383  0.63943  0.33719  1.0000
  H   H1356     1.0  0.70351  0.53929  0.52926  1.0000
  H   H1357     1.0  0.56797  0.58959  0.24716  1.0000
  H   H1358     1.0  0.73618  0.63394  0.65547  1.0000
  H   H1359     1.0  0.67391  0.38669  0.52087  1.0000
  H   H1360     1.0  0.54676  0.66441  0.30856  1.0000
  H   H1361     1.0  0.68346  0.56186  0.50064  1.0000
  H   H1362     1.0  0.55853  0.39519  0.90005  1.0000
  H   H1363     1.0  0.56930  0.58398  0.17912  1.0000
  H   H1364     1.0  0.57804  0.35435  0.06401  1.0000
  H   H1365     1.0  0.53902  0.51370  0.25461  1.0000
  C   C770      1.0  0.71819  0.36974  0.52377  1.0000
  H   H1366     1.0  0.70333  0.45508  0.37907  1.0000
  C   C771      1.0  0.67691  0.37436  0.55462  1.0000
  C   C772      1.0  0.73968  0.48078  0.32917  1.0000
  S   S175      1.0  0.67738  0.63892  0.38942  1.0000
  H   H1367     1.0  0.72710  0.38661  0.59865  1.0000
  S   S176      1.0  0.60994  0.66355  0.33775  1.0000
  C   C773      1.0  0.51745  0.65144  0.15831  1.0000
  C   C774      1.0  0.73514  0.37878  0.86306  1.0000
  C   C775      1.0  0.55151  0.34573  0.97654  1.0000
  H   H1368     1.0  0.71378  0.37761  0.48535  1.0000
  H   H1369     1.0  0.55126  0.44013  0.00393  1.0000
  H   H1370     1.0  0.72237  0.51171  0.88513  1.0000
  H   H1371     1.0  0.68218  0.38666  0.58687  1.0000
  H   H1372     1.0  0.71486  0.55697  0.38970  1.0000
  C   C776      1.0  0.73798  0.46440  0.41594  1.0000
  S   S177      1.0  0.74194  0.56206  0.72247  1.0000
  C   C777      1.0  0.71031  0.46036  0.41736  1.0000
  H   H1373     1.0  0.71383  0.40755  0.55305  1.0000
  N   N42       1.0  0.69700  0.35575  0.54404  1.0000
  H   H1374     1.0  0.53506  0.64139  0.16181  1.0000
  H   H1375     1.0  0.51952  0.53151  0.38832  1.0000
  H   H1376     1.0  0.64435  0.38808  0.63324  1.0000
  H   H1377     1.0  0.53615  0.34948  0.41393  1.0000
  H   H1378     1.0  0.73434  0.43300  0.03809  1.0000
  H   H1379     1.0  0.55884  0.40810  0.15588  1.0000
  H   H1380     1.0  0.57768  0.39300  0.81406  1.0000
  C   C778      1.0  0.56170  0.43273  0.03720  1.0000
  H   H1381     1.0  0.74186  0.34763  0.60491  1.0000
  H   H1382     1.0  0.74760  0.50485  0.20651  1.0000
  C   C779      1.0  0.74788  0.49969  0.28903  1.0000
  C   C780      1.0  0.58479  0.36964  0.93813  1.0000
  C   C781      1.0  0.57071  0.37941  0.89073  1.0000
  C   C782      1.0  0.56063  0.37058  0.18491  1.0000
  C   C783      1.0  0.58800  0.38822  0.84944  1.0000
  C   C784      1.0  0.72656  0.39159  0.55752  1.0000
  H   H1383     1.0  0.60265  0.36833  0.03290  1.0000
  H   H1384     1.0  0.59978  0.38223  0.94634  1.0000
  H   H1385     1.0  0.59391  0.35237  0.92528  1.0000
  H   H1386     1.0  0.52381  0.33883  0.30693  1.0000
  H   H1387     1.0  0.70391  0.46638  0.98512  1.0000
  C   C785      1.0  0.71399  0.45706  0.95352  1.0000
  C   C786      1.0  0.71793  0.38987  0.90281  1.0000
  H   H1388     1.0  0.73880  0.46903  0.68590  1.0000
  C   C787      1.0  0.72183  0.41797  0.90894  1.0000
  H   H1389     1.0  0.73398  0.35728  0.51706  1.0000
  H   H1390     1.0  0.73024  0.34755  0.41024  1.0000
  C   C788      1.0  0.50687  0.62146  0.34681  1.0000
  C   C789      1.0  0.51114  0.35423  0.11456  1.0000
  H   H1391     1.0  0.54804  0.33530  0.01240  1.0000
  N   N43       1.0  0.53112  0.33344  0.19518  1.0000
  H   H1392     1.0  0.65411  0.34728  0.59405  1.0000
  H   H1393     1.0  0.59502  0.64753  0.03366  1.0000
  H   H1394     1.0  0.74123  0.39810  0.09552  1.0000
  C   C790      1.0  0.72748  0.41492  0.02533  1.0000
  H   H1395     1.0  0.62761  0.33434  0.07525  1.0000
  H   H1396     1.0  0.68395  0.34910  0.46713  1.0000
  C   C791      1.0  0.71169  0.62773  0.73880  1.0000
  H   H1397     1.0  0.73297  0.35850  0.86173  1.0000
  H   H1398     1.0  0.52364  0.65097  0.99985  1.0000
  C   C792      1.0  0.72410  0.39917  0.07319  1.0000
  H   H1399     1.0  0.73103  0.38643  0.82439  1.0000
  H   H1400     1.0  0.50214  0.55717  0.45743  1.0000
  H   H1401     1.0  0.70087  0.63811  0.70965  1.0000
  H   H1402     1.0  0.74147  0.40566  0.00152  1.0000
  H   H1403     1.0  0.50637  0.60329  0.36330  1.0000
  H   H1404     1.0  0.74147  0.57295  0.40951  1.0000
  C   C793      1.0  0.74734  0.53364  0.39903  1.0000
  C   C794      1.0  0.74193  0.49088  0.23483  1.0000
  N   N44       1.0  0.74639  0.48581  0.38420  1.0000
  H   H1405     1.0  0.74650  0.46220  0.31743  1.0000
  C   C795      1.0  0.74999  0.62946  0.68545  1.0000
  Fe  Fe88      1.0  0.65330  0.91411  0.59431  1.0000
  S   S178      1.0  0.65761  0.90110  0.51272  1.0000
  S   S179      1.0  0.65860  0.88549  0.65847  1.0000
  Fe  Fe89      1.0  0.63933  0.96656  0.55815  1.0000
  S   S180      1.0  0.64140  0.95689  0.47472  1.0000
  H   H1406     1.0  0.60795  0.67755  0.02707  1.0000
  Fe  Fe90      1.0  0.62276  0.92215  0.49867  1.0000
  S   S181      1.0  0.59179  0.90524  0.45452  1.0000
  Fe  Fe91      1.0  0.67611  0.93697  0.49613  1.0000
  S   S182      1.0  0.71297  0.94169  0.45710  1.0000
  S   S183      1.0  0.61794  0.93362  0.58035  1.0000
  S   S184      1.0  0.67478  0.94839  0.57967  1.0000
  Fe  Fe92      1.0  0.57640  0.81712  0.87206  1.0000
  S   S185      1.0  0.57535  0.81341  0.95826  1.0000
  S   S186      1.0  0.58383  0.85343  0.83055  1.0000
  Fe  Fe93      1.0  0.55461  0.76672  0.85786  1.0000
  S   S187      1.0  0.55115  0.75858  0.94169  1.0000
  S   S188      1.0  0.54574  0.74123  0.79327  1.0000
  Fe  Fe94      1.0  0.53841  0.79805  0.94682  1.0000
  C   C796      1.0  0.51468  0.73931  0.63521  1.0000
  Fe  Fe95      1.0  0.58820  0.77410  0.94833  1.0000
  S   S189      1.0  0.61719  0.75495  0.99746  1.0000
  S   S190      1.0  0.53814  0.80466  0.86205  1.0000
  S   S191      1.0  0.59295  0.77923  0.86292  1.0000
  H   H1407     1.0  0.52935  0.81994  0.66741  1.0000
  C   C797      1.0  0.57880  0.88225  0.98630  1.0000
  C   C798      1.0  0.54757  0.81851  0.55026  1.0000
  S   S192      1.0  0.60011  0.70291  0.21364  1.0000
  H   H1408     1.0  0.53397  0.97739  0.47609  1.0000
  C   C799      1.0  0.61792  0.76996  0.36959  1.0000
  H   H1409     1.0  0.50793  0.71898  0.02233  1.0000
  H   H1410     1.0  0.53506  0.81013  0.47348  1.0000
  C   C800      1.0  0.61691  0.85607  0.56785  1.0000
  H   H1411     1.0  0.63689  0.77615  0.36679  1.0000
  C   C801      1.0  0.61151  0.73944  0.05613  1.0000
  C   C802      1.0  0.59045  0.74402  0.08423  1.0000
  C   C803      1.0  0.58718  0.73233  0.13191  1.0000
  C   C804      1.0  0.60461  0.71558  0.15166  1.0000
  C   C805      1.0  0.62552  0.71075  0.12329  1.0000
  C   C806      1.0  0.62902  0.72281  0.07605  1.0000
  H   H1412     1.0  0.57695  0.75697  0.06973  1.0000
  H   H1413     1.0  0.57111  0.73642  0.15386  1.0000
  C   C807      1.0  0.55964  0.80553  0.59719  1.0000
  H   H1414     1.0  0.64544  0.71922  0.05481  1.0000
  C   C808      1.0  0.54491  0.80068  0.50536  1.0000
  C   C809      1.0  0.52320  0.69791  0.77860  1.0000
  C   C810      1.0  0.59933  0.77432  0.24370  1.0000
  C   C811      1.0  0.61948  0.76119  0.27591  1.0000
  H   H1415     1.0  0.53920  0.69239  0.75758  1.0000
  H   H1416     1.0  0.54601  0.75115  0.67913  1.0000
  H   H1417     1.0  0.56922  0.87096  0.95739  1.0000
  C   C812      1.0  0.60793  0.81010  0.41549  1.0000
  H   H1418     1.0  0.50072  0.74523  0.85058  1.0000
  H   H1419     1.0  0.53958  0.74377  0.36789  1.0000
  C   C813      1.0  0.71412  0.95456  0.30191  1.0000
  C   C814      1.0  0.70578  0.95051  0.35225  1.0000
  C   C815      1.0  0.72225  0.94733  0.39271  1.0000
  N   N45       1.0  0.56636  0.82206  0.64135  1.0000
  H   H1420     1.0  0.70117  0.95663  0.27092  1.0000
  H   H1421     1.0  0.68663  0.94948  0.35960  1.0000
  H   H1422     1.0  0.66435  0.69440  0.30946  1.0000
  C   C816      1.0  0.63629  0.87579  0.70255  1.0000
  C   C817      1.0  0.61660  0.89098  0.71596  1.0000
  C   C818      1.0  0.60060  0.88363  0.75465  1.0000
  C   C819      1.0  0.60370  0.86081  0.77970  1.0000
  C   C820      1.0  0.62296  0.84526  0.76528  1.0000
  C   C821      1.0  0.63919  0.85279  0.72708  1.0000
  H   H1423     1.0  0.61418  0.90877  0.69770  1.0000
  H   H1424     1.0  0.58586  0.89589  0.76565  1.0000
  H   H1425     1.0  0.62577  0.82778  0.78451  1.0000
  H   H1426     1.0  0.65441  0.84093  0.71716  1.0000
  C   C822      1.0  0.56564  0.89655  0.48785  1.0000
  C   C823      1.0  0.54607  0.88697  0.46051  1.0000
  C   C824      1.0  0.52492  0.88023  0.48608  1.0000
  C   C825      1.0  0.52344  0.88271  0.53927  1.0000
  C   C826      1.0  0.54295  0.89219  0.56663  1.0000
  C   C827      1.0  0.56396  0.89902  0.54103  1.0000
  H   H1427     1.0  0.54718  0.88497  0.41935  1.0000
  H   H1428     1.0  0.58977  0.78899  0.26547  1.0000
  H   H1429     1.0  0.54195  0.89407  0.60782  1.0000
  H   H1430     1.0  0.57894  0.90582  0.56272  1.0000
  C   C828      1.0  0.65620  0.85871  0.90268  1.0000
  C   C829      1.0  0.64528  0.83492  0.97882  1.0000
  C   C830      1.0  0.67028  0.82277  0.99019  1.0000
  C   C831      1.0  0.66777  0.79588  0.00637  1.0000
  H   H1431     1.0  0.65447  0.87378  0.03080  1.0000
  H   H1432     1.0  0.64764  0.84370  0.88015  1.0000
  H   H1433     1.0  0.67557  0.85325  0.90489  1.0000
  C   C832      1.0  0.58307  0.84226  0.62541  1.0000
  C   C833      1.0  0.56958  0.67847  0.04352  1.0000
  H   H1434     1.0  0.68225  0.82282  0.95638  1.0000
  H   H1435     1.0  0.51192  0.84899  0.92490  1.0000
  H   H1436     1.0  0.52917  0.82547  0.56001  1.0000
  H   H1437     1.0  0.50991  0.87287  0.46465  1.0000
  H   H1438     1.0  0.61266  0.88292  0.02676  1.0000
  H   H1439     1.0  0.68877  0.89140  0.94597  1.0000
  C   C834      1.0  0.60576  0.77358  0.71883  1.0000
  H   H1440     1.0  0.62230  0.80077  0.20555  1.0000
  H   H1441     1.0  0.58701  0.81917  0.71191  1.0000
  C   C835      1.0  0.73899  0.95554  0.29111  1.0000
  H   H1442     1.0  0.65597  0.89937  0.89284  1.0000
  H   H1443     1.0  0.57089  0.69768  0.05724  1.0000
  H   H1444     1.0  0.50177  0.69988  0.10676  1.0000
  H   H1445     1.0  0.58889  0.85313  0.65921  1.0000
  H   H1446     1.0  0.63594  0.83511  0.01632  1.0000
  H   H1447     1.0  0.51443  0.95925  0.40273  1.0000
  H   H1448     1.0  0.53536  0.84671  0.63080  1.0000
  H   H1449     1.0  0.58179  0.97523  0.63089  1.0000
  H   H1450     1.0  0.67912  0.83248  0.02246  1.0000
  H   H1451     1.0  0.51896  0.66962  0.17749  1.0000
  H   H1452     1.0  0.52070  0.75966  0.05028  1.0000
  H   H1453     1.0  0.59624  0.82703  0.41464  1.0000
  H   H1454     1.0  0.72193  0.98527  0.63917  1.0000
  H   H1455     1.0  0.59474  0.79394  0.17168  1.0000
  C   C836      1.0  0.52876  0.95794  0.48049  1.0000
  H   H1456     1.0  0.52640  0.94228  0.59412  1.0000
  H   H1457     1.0  0.57424  0.75934  0.31916  1.0000
  H   H1458     1.0  0.57553  0.79501  0.58268  1.0000
  H   H1459     1.0  0.69524  0.86394  0.98147  1.0000
  H   H1460     1.0  0.63489  0.82212  0.95391  1.0000
  C   C837      1.0  0.52237  0.71968  0.05186  1.0000
  C   C838      1.0  0.54322  0.83413  0.66036  1.0000
  H   H1461     1.0  0.61670  0.78725  0.73985  1.0000
  H   H1462     1.0  0.53985  0.71932  0.03167  1.0000
  H   H1463     1.0  0.58418  0.77044  0.65120  1.0000
  H   H1464     1.0  0.51592  0.75444  0.60693  1.0000
  H   H1465     1.0  0.52641  0.68285  0.98983  1.0000
  H   H1466     1.0  0.68908  0.70963  0.34023  1.0000
  C   C839      1.0  0.68520  0.88175  0.98252  1.0000
  H   H1467     1.0  0.50818  0.68747  0.29061  1.0000
  H   H1468     1.0  0.53459  0.78432  0.51696  1.0000
  H   H1469     1.0  0.61764  0.88671  0.92941  1.0000
  H   H1470     1.0  0.51351  0.87295  0.69405  1.0000
  C   C840      1.0  0.65760  0.87861  0.98991  1.0000
  H   H1471     1.0  0.58359  0.72990  0.29764  1.0000
  H   H1472     1.0  0.60907  0.79087  0.64545  1.0000
  H   H1473     1.0  0.62707  0.81582  0.41430  1.0000
  C   C841      1.0  0.57713  0.80701  0.68497  1.0000
  C   C842      1.0  0.74712  0.94878  0.38207  1.0000
  H   H1474     1.0  0.54707  0.79118  0.61073  1.0000
  C   C843      1.0  0.52026  0.69801  0.09041  1.0000
  C   C844      1.0  0.50244  0.99687  0.54660  1.0000
  H   H1475     1.0  0.67217  0.86529  0.80430  1.0000
  H   H1476     1.0  0.63576  0.88344  0.85121  1.0000
  C   C845      1.0  0.59435  0.78515  0.67086  1.0000
  C   C846      1.0  0.60202  0.79377  0.36948  1.0000
  H   H1477     1.0  0.61799  0.87277  0.59224  1.0000
  H   H1478     1.0  0.71554  0.89973  0.01878  1.0000
  C   C847      1.0  0.61901  0.86842  0.94855  1.0000
  H   H1479     1.0  0.56253  0.79866  0.70813  1.0000
  H   H1480     1.0  0.55210  0.83849  0.74256  1.0000
  H   H1481     1.0  0.60445  0.81932  0.57025  1.0000
  H   H1482     1.0  0.51931  0.92840  0.42754  1.0000
  H   H1483     1.0  0.62481  0.72111  0.37737  1.0000
  H   H1484     1.0  0.61779  0.75783  0.70786  1.0000
  H   H1485     1.0  0.53266  0.70169  0.12323  1.0000
  C   C848      1.0  0.60674  0.83450  0.59791  1.0000
  H   H1486     1.0  0.62606  0.74589  0.25066  1.0000
  H   H1487     1.0  0.60531  0.86044  0.53404  1.0000
  H   H1488     1.0  0.54465  0.94642  0.40835  1.0000
  H   H1489     1.0  0.54718  0.71346  0.34280  1.0000
  H   H1490     1.0  0.68699  0.91572  0.02719  1.0000
  C   C849      1.0  0.66926  0.70696  0.34130  1.0000
  C   C850      1.0  0.55043  0.72661  0.37467  1.0000
  H   H1491     1.0  0.60469  0.80024  0.45199  1.0000
  H   H1492     1.0  0.61936  0.77174  0.17201  1.0000
  H   H1493     1.0  0.50795  0.84622  0.73363  1.0000
  H   H1494     1.0  0.58579  0.76072  0.23120  1.0000
  H   H1495     1.0  0.62052  0.82882  0.62694  1.0000
  H   H1496     1.0  0.55834  0.83419  0.53663  1.0000
  C   C851      1.0  0.67270  0.88261  0.82688  1.0000
  H   H1497     1.0  0.66041  0.78485  0.97422  1.0000
  C   C852      1.0  0.54540  0.84981  0.70987  1.0000
  H   H1498     1.0  0.50201  0.74622  0.09863  1.0000
  C   C853      1.0  0.65391  0.88244  0.86953  1.0000
  H   H1499     1.0  0.63495  0.77388  0.27921  1.0000
  N   N46       1.0  0.64515  0.86039  0.95535  1.0000
  H   H1500     1.0  0.66478  0.69807  0.37830  1.0000
  C   C854      1.0  0.69596  0.89722  0.02561  1.0000
  H   H1501     1.0  0.66145  0.73988  0.29856  1.0000
  C   C855      1.0  0.54006  0.73488  0.65692  1.0000
  H   H1502     1.0  0.60080  0.85274  0.01589  1.0000
  C   C856      1.0  0.57731  0.73224  0.37896  1.0000
  H   H1503     1.0  0.58253  0.78965  0.37144  1.0000
  H   H1504     1.0  0.68574  0.78792  0.01706  1.0000
  C   C857      1.0  0.60377  0.87096  0.99814  1.0000
  H   H1505     1.0  0.57323  0.85586  0.60090  1.0000
  H   H1506     1.0  0.55299  0.73147  0.62523  1.0000
  H   H1507     1.0  0.58680  0.71450  0.38758  1.0000
  H   H1508     1.0  0.54047  0.71849  0.68229  1.0000
  H   H1509     1.0  0.52333  0.87234  0.76009  1.0000
  H   H1510     1.0  0.62336  0.71378  0.31097  1.0000
  H   H1511     1.0  0.60555  0.80473  0.33462  1.0000
  C   C858      1.0  0.62819  0.72859  0.33852  1.0000
  H   H1512     1.0  0.63536  0.85122  0.55418  1.0000
  H   H1513     1.0  0.54362  0.94762  0.50035  1.0000
  H   H1514     1.0  0.65561  0.79435  0.03989  1.0000
  N   N47       1.0  0.61271  0.75136  0.32822  1.0000
  C   C859      1.0  0.65596  0.73181  0.33562  1.0000
  H   H1515     1.0  0.66229  0.74390  0.36702  1.0000
  H   H1516     1.0  0.60962  0.85535  0.92274  1.0000
  H   H1517     1.0  0.59157  0.76656  0.74461  1.0000
  H   H1518     1.0  0.57970  0.74500  0.41170  1.0000
  H   H1519     1.0  0.53427  0.86026  0.88150  1.0000
  C   C860      1.0  0.58664  0.74365  0.32850  1.0000
  C   C861      1.0  0.60966  0.78589  0.19537  1.0000
  C   C862      1.0  0.52094  0.86096  0.72516  1.0000
  H   H1520     1.0  0.55777  0.86534  0.70418  1.0000
  H   H1521     1.0  0.61673  0.76128  0.40810  1.0000
  C   C863      1.0  0.52220  0.72071  0.80347  1.0000
  H   H1522     1.0  0.63923  0.69812  0.13817  1.0000
  H   H1523     1.0  0.56294  0.79457  0.49125  1.0000
  H   H1524     1.0  0.72744  0.99310  0.45705  1.0000
  C   C864      1.0  0.52197  0.96232  0.59798  1.0000
  H   H1525     1.0  0.64942  0.89743  0.98508  1.0000
  H   H1526     1.0  0.58041  0.90132  0.97148  1.0000
  C   C865      1.0  0.59477  0.66664  0.04897  1.0000
  H   H1527     1.0  0.51528  0.96457  0.63790  1.0000
  H   H1528     1.0  0.66885  0.89830  0.80052  1.0000
  C   C866      1.0  0.51775  0.86538  0.90327  1.0000
  H   H1529     1.0  0.56783  0.88288  0.02177  1.0000
  C   C867      1.0  0.56460  0.96512  0.63345  1.0000
  H   H1530     1.0  0.74224  0.97796  0.84566  1.0000
  H   H1531     1.0  0.55796  0.96642  0.67343  1.0000
  H   H1532     1.0  0.69111  0.88461  0.84321  1.0000
  H   H1533     1.0  0.54423  0.71803  0.41077  1.0000
  C   C868      1.0  0.51967  0.74458  0.07888  1.0000
  C   C869      1.0  0.54607  0.97641  0.59617  1.0000
  C   C870      1.0  0.50501  0.95506  0.51073  1.0000
  H   H1534     1.0  0.69391  0.88787  0.06316  1.0000
  H   H1535     1.0  0.53438  0.74698  0.10734  1.0000
  H   H1536     1.0  0.55420  0.97619  0.55761  1.0000
  H   H1537     1.0  0.50282  0.76381  0.69504  1.0000
  H   H1538     1.0  0.52241  0.88019  0.93077  1.0000
  C   C871      1.0  0.52655  0.94731  0.42652  1.0000
  H   H1539     1.0  0.56832  0.94548  0.62380  1.0000
  H   H1540     1.0  0.50948  0.72255  0.61413  1.0000
  S   S193      1.0  0.51043  0.80984  0.00452  1.0000
  C   C872      1.0  0.50361  0.68215  0.78061  1.0000
  C   C873      1.0  0.50159  0.72755  0.83144  1.0000
  H   H1541     1.0  0.65840  0.99216  0.36226  1.0000
  C   C874      1.0  0.50782  0.66905  0.30631  1.0000
  C   C875      1.0  0.51736  0.66929  0.01459  1.0000
  S   S194      1.0  0.74829  0.96015  0.22638  1.0000
  H   H1542     1.0  0.50543  0.88963  0.84429  1.0000
  H   H1543     1.0  0.50418  0.93495  0.51847  1.0000
  N   N48       1.0  0.52476  0.67218  0.07003  1.0000
  Fe  Fe96      1.0  0.61452  0.66742  0.25178  1.0000
  H   H1544     1.0  0.55717  0.66701  0.11645  1.0000
  H   H1545     1.0  0.56496  0.67849  0.00219  1.0000
  H   H1546     1.0  0.70783  0.99335  0.57851  1.0000
  H   H1547     1.0  0.54321  0.99597  0.60744  1.0000
  H   H1548     1.0  0.61886  0.99310  0.76725  1.0000
  N   N49       1.0  0.50253  0.96973  0.55969  1.0000
  H   H1549     1.0  0.64781  0.99808  0.69776  1.0000
  H   H1550     1.0  0.74915  0.67319  0.65500  1.0000
  H   H1551     1.0  0.60058  0.66622  0.08980  1.0000
  Fe  Fe97      1.0  0.85878  0.16546  0.24977  1.0000
  S   S195      1.0  0.84106  0.19825  0.28800  1.0000
  S   S196      1.0  0.83559  0.13949  0.20428  1.0000
  Fe  Fe98      1.0  0.90816  0.17835  0.28729  1.0000
  S   S197      1.0  0.89471  0.21193  0.32788  1.0000
  S   S198      1.0  0.94770  0.16978  0.29690  1.0000
  Fe  Fe99      1.0  0.86484  0.18844  0.35517  1.0000
  S   S199      1.0  0.85446  0.19573  0.43748  1.0000
  Fe  Fe100     1.0  0.87227  0.21953  0.25801  1.0000
  S   S200      1.0  0.86966  0.26028  0.23911  1.0000
  S   S201      1.0  0.87995  0.15385  0.31964  1.0000
  S   S202      1.0  0.88835  0.18758  0.21419  1.0000
  Fe  Fe101     1.0  0.86858  0.11930  0.68712  1.0000
  S   S203      1.0  0.87046  0.15677  0.72281  1.0000
  S   S204      1.0  0.86776  0.11071  0.60245  1.0000
  Fe  Fe102     1.0  0.87478  0.09277  0.78875  1.0000
  S   S205      1.0  0.87800  0.12815  0.83307  1.0000
  S   S206      1.0  0.87698  0.05640  0.83113  1.0000
  Fe  Fe103     1.0  0.84682  0.14149  0.78433  1.0000
  S   S207      1.0  0.81911  0.16620  0.82358  1.0000
  Fe  Fe104     1.0  0.90129  0.14060  0.76852  1.0000
  S   S208      1.0  0.93421  0.16422  0.77460  1.0000
  S   S209      1.0  0.84184  0.10517  0.74437  1.0000
  S   S210      1.0  0.90116  0.10402  0.72883  1.0000
  S   S211      1.0  0.89041  0.29954  0.01508  1.0000
  H   H1552     1.0  0.79832  0.10605  0.10020  1.0000
  C   C876      1.0  0.88607  0.03050  0.79463  1.0000
  H   H1553     1.0  0.91877  0.26104  0.28683  1.0000
  C   C877      1.0  0.88621  0.03127  0.74104  1.0000
  H   H1554     1.0  0.77399  0.10587  0.32046  1.0000
  H   H1555     1.0  0.87956  0.04758  0.72121  1.0000
  H   H1556     1.0  0.83863  0.27990  0.87619  1.0000
  H   H1557     1.0  0.80344  0.18380  0.67421  1.0000
  C   C878      1.0  0.96157  0.14743  0.78015  1.0000
  C   C879      1.0  0.96232  0.12464  0.80500  1.0000
  C   C880      1.0  0.99150  0.31275  0.63431  1.0000
  H   H1558     1.0  0.94600  0.11739  0.82120  1.0000
  C   C881      1.0  0.96369  0.19636  0.28197  1.0000
  H   H1559     1.0  0.90969  0.28411  0.73068  1.0000
  H   H1560     1.0  0.89453  0.00845  0.86116  1.0000
  C   C882      1.0  0.76374  0.28551  0.47824  1.0000
  C   C883      1.0  0.91125  0.17194  0.07632  1.0000
  C   C884      1.0  0.87497  0.27106  0.17660  1.0000
  C   C885      1.0  0.88087  0.29584  0.16928  1.0000
  C   C886      1.0  0.88580  0.30484  0.11997  1.0000
  C   C887      1.0  0.88421  0.28922  0.07759  1.0000
  C   C888      1.0  0.87742  0.26468  0.08472  1.0000
  C   C889      1.0  0.87306  0.25553  0.13415  1.0000
  H   H1561     1.0  0.88178  0.30807  0.20192  1.0000
  H   H1562     1.0  0.90263  0.05369  0.60620  1.0000
  H   H1563     1.0  0.87578  0.25263  0.05195  1.0000
  H   H1564     1.0  0.86798  0.23657  0.13942  1.0000
  C   C890      1.0  0.85878  0.17203  0.48290  1.0000
  C   C891      1.0  0.85818  0.17785  0.53527  1.0000
  C   C892      1.0  0.86108  0.15924  0.57240  1.0000
  C   C893      1.0  0.86432  0.13467  0.55728  1.0000
  C   C894      1.0  0.86490  0.12888  0.50493  1.0000
  C   C895      1.0  0.86235  0.14752  0.46780  1.0000
  H   H1565     1.0  0.85537  0.19680  0.54713  1.0000
  H   H1566     1.0  0.86049  0.16388  0.61260  1.0000
  H   H1567     1.0  0.86720  0.10988  0.49304  1.0000
  H   H1568     1.0  0.86253  0.14282  0.42756  1.0000
  C   C896      1.0  0.84044  0.10767  0.21454  1.0000
  C   C897      1.0  0.86208  0.09842  0.23562  1.0000
  C   C898      1.0  0.86590  0.07282  0.24077  1.0000
  C   C899      1.0  0.84823  0.05637  0.22442  1.0000
  C   C900      1.0  0.82641  0.06570  0.20443  1.0000
  C   C901      1.0  0.82252  0.09124  0.19972  1.0000
  H   H1569     1.0  0.87606  0.11092  0.24702  1.0000
  H   H1570     1.0  0.88279  0.06573  0.25645  1.0000
  H   H1571     1.0  0.81257  0.05329  0.19229  1.0000
  H   H1572     1.0  0.80547  0.09832  0.18505  1.0000
  C   C902      1.0  0.78238  0.13313  0.81505  1.0000
  C   C903      1.0  0.79160  0.15318  0.84176  1.0000
  C   C904      1.0  0.77823  0.16367  0.88212  1.0000
  C   C905      1.0  0.76971  0.05647  0.35062  1.0000
  H   H1573     1.0  0.79244  0.12503  0.78370  1.0000
  H   H1574     1.0  0.78496  0.17957  0.90216  1.0000
  H   H1575     1.0  0.98238  0.17474  0.74122  1.0000
  C   C906      1.0  0.93141  0.14748  0.63600  1.0000
  H   H1576     1.0  0.97558  0.17094  0.41088  1.0000
  C   C907      1.0  0.98789  0.06292  0.67158  1.0000
  C   C908      1.0  0.80196  0.20402  0.68037  1.0000
  C   C909      1.0  0.84087  0.30141  0.33258  1.0000
  H   H1577     1.0  0.97360  0.17140  0.06365  1.0000
  C   C910      1.0  0.82673  0.21264  0.69827  1.0000
  H   H1578     1.0  0.92725  0.05431  0.77153  1.0000
  H   H1579     1.0  0.90096  0.26100  0.46349  1.0000
  H   H1580     1.0  0.75888  0.20480  0.62383  1.0000
  H   H1581     1.0  0.93357  0.04331  0.86190  1.0000
  C   C911      1.0  0.99090  0.01194  0.72603  1.0000
  C   C912      1.0  0.89455  0.00918  0.81981  1.0000
  H   H1582     1.0  0.92282  0.26279  0.80747  1.0000
  H   H1583     1.0  0.95786  0.21109  0.05413  1.0000
  H   H1584     1.0  0.79295  0.21647  0.31374  1.0000
  C   C913      1.0  0.75174  0.24227  0.64981  1.0000
  H   H1585     1.0  0.77357  0.23721  0.27802  1.0000
  H   H1586     1.0  0.84054  0.20758  0.66919  1.0000
  H   H1587     1.0  0.82656  0.23297  0.70338  1.0000
  H   H1588     1.0  0.83195  0.20363  0.73506  1.0000
  C   C914      1.0  0.89401  0.27165  0.73245  1.0000
  C   C915      1.0  0.88046  0.27377  0.68137  1.0000
  H   H1589     1.0  0.83694  0.00570  0.36487  1.0000
  N   N50       1.0  0.94248  0.15716  0.48921  1.0000
  C   C916      1.0  0.93277  0.17835  0.45702  1.0000
  C   C917      1.0  0.93146  0.13307  0.47249  1.0000
  C   C918      1.0  0.93481  0.16204  0.54383  1.0000
  C   C919      1.0  0.98426  0.11139  0.80948  1.0000
  C   C920      1.0  0.78648  0.01361  0.35758  1.0000
  C   C921      1.0  0.94250  0.20417  0.47069  1.0000
  C   C922      1.0  0.94190  0.14164  0.58328  1.0000
  C   C923      1.0  0.92481  0.13024  0.41505  1.0000
  C   C924      1.0  0.91661  0.10417  0.40283  1.0000
  C   C925      1.0  0.93631  0.22294  0.42896  1.0000
  H   H1590     1.0  0.91265  0.17947  0.45958  1.0000
  H   H1591     1.0  0.93647  0.17530  0.41572  1.0000
  H   H1592     1.0  0.94338  0.11712  0.48344  1.0000
  H   H1593     1.0  0.91421  0.13003  0.49305  1.0000
  H   H1594     1.0  0.91480  0.16498  0.54547  1.0000
  H   H1595     1.0  0.94277  0.17931  0.55858  1.0000
  H   H1596     1.0  0.78300  0.23033  0.72983  1.0000
  H   H1597     1.0  0.89051  0.32390  0.11458  1.0000
  C   C926      1.0  0.78517  0.23548  0.31276  1.0000
  H   H1598     1.0  0.93169  0.21135  0.13980  1.0000
  H   H1599     1.0  0.93438  0.21102  0.50693  1.0000
  H   H1600     1.0  0.97443  0.01754  0.65196  1.0000
  H   H1601     1.0  0.87699  0.11943  0.09877  1.0000
  H   H1602     1.0  0.93513  0.12340  0.57151  1.0000
  H   H1603     1.0  0.90957  0.14304  0.40560  1.0000
  C   C927      1.0  0.92738  0.31242  0.30229  1.0000
  C   C928      1.0  0.94234  0.30571  0.44056  1.0000
  H   H1604     1.0  0.90070  0.09945  0.42632  1.0000
  H   H1605     1.0  0.91133  0.10305  0.36176  1.0000
  H   H1606     1.0  0.96182  0.14020  0.58774  1.0000
  H   H1607     1.0  0.91645  0.22455  0.42393  1.0000
  C   C929      1.0  0.94429  0.28941  0.30682  1.0000
  C   C930      1.0  0.84557  0.32880  0.32503  1.0000
  H   H1608     1.0  0.75556  0.00450  0.28083  1.0000
  H   H1609     1.0  0.76145  0.20882  0.81855  1.0000
  H   H1610     1.0  0.94510  0.02638  0.77870  1.0000
  H   H1611     1.0  0.95329  0.01328  0.70094  1.0000
  C   C931      1.0  0.94514  0.04666  0.78317  1.0000
  N   N51       1.0  0.81380  0.09711  0.00153  1.0000
  C   C932      1.0  0.81405  0.12439  0.99054  1.0000
  C   C933      1.0  0.78964  0.09081  0.02369  1.0000
  C   C934      1.0  0.83417  0.09094  0.03848  1.0000
  C   C935      1.0  0.81769  0.08210  0.95351  1.0000
  C   C936      1.0  0.79966  0.08723  0.90893  1.0000
  C   C937      1.0  0.83597  0.13329  0.95913  1.0000
  C   C938      1.0  0.83331  0.06536  0.06480  1.0000
  C   C939      1.0  0.78274  0.10434  0.07397  1.0000
  H   H1612     1.0  0.79664  0.09845  0.36886  1.0000
  C   C940      1.0  0.80745  0.07348  0.86047  1.0000
  C   C941      1.0  0.83803  0.16130  0.96107  1.0000
  C   C942      1.0  0.85714  0.05938  0.09243  1.0000
  H   H1613     1.0  0.81371  0.13494  0.02718  1.0000
  H   H1614     1.0  0.79723  0.13052  0.97014  1.0000
  H   H1615     1.0  0.75245  0.10871  0.80660  1.0000
  H   H1616     1.0  0.78853  0.07059  0.02964  1.0000
  H   H1617     1.0  0.83539  0.10499  0.06945  1.0000
  H   H1618     1.0  0.85183  0.09165  0.01859  1.0000
  H   H1619     1.0  0.83634  0.08442  0.93872  1.0000
  H   H1620     1.0  0.81633  0.06216  0.96218  1.0000
  H   H1621     1.0  0.79847  0.10706  0.89964  1.0000
  H   H1622     1.0  0.82537  0.07979  0.84762  1.0000
  H   H1623     1.0  0.85326  0.12536  0.97371  1.0000
  H   H1624     1.0  0.83404  0.12780  0.91834  1.0000
  H   H1625     1.0  0.83004  0.05043  0.03692  1.0000
  H   H1626     1.0  0.81860  0.06513  0.09348  1.0000
  H   H1627     1.0  0.96090  0.26987  0.92371  1.0000
  H   H1628     1.0  0.96465  0.18887  0.14637  1.0000
  H   H1629     1.0  0.85881  0.01964  0.00231  1.0000
  H   H1630     1.0  0.78133  0.08101  0.91879  1.0000
  H   H1631     1.0  0.95342  0.31359  0.61151  1.0000
  C   C943      1.0  0.96481  0.05899  0.75060  1.0000
  H   H1632     1.0  0.94195  0.16625  0.15970  1.0000
  H   H1633     1.0  0.80845  0.05330  0.86746  1.0000
  H   H1634     1.0  0.82105  0.17040  0.94762  1.0000
  H   H1635     1.0  0.84201  0.16750  0.00075  1.0000
  H   H1636     1.0  0.85288  0.16712  0.93565  1.0000
  H   H1637     1.0  0.85822  0.24761  0.84502  1.0000
  H   H1638     1.0  0.87210  0.05732  0.06455  1.0000
  H   H1639     1.0  0.86154  0.07414  0.12024  1.0000
  H   H1640     1.0  0.77595  0.12329  0.06496  1.0000
  H   H1641     1.0  0.81479  0.25167  0.27351  1.0000
  H   H1642     1.0  0.94237  0.03119  0.60501  1.0000
  H   H1643     1.0  0.96946  0.17759  0.88683  1.0000
  H   H1644     1.0  0.94265  0.25112  0.32962  1.0000
  H   H1645     1.0  0.79670  0.27326  0.30810  1.0000
  C   C944      1.0  0.87816  0.24872  0.84900  1.0000
  C   C945      1.0  0.94827  0.05209  0.84017  1.0000
  C   C946      1.0  0.98161  0.15499  0.43454  1.0000
  H   H1646     1.0  0.91928  0.13247  0.09123  1.0000
  H   H1647     1.0  0.80686  0.05951  0.32275  1.0000
  H   H1648     1.0  0.99607  0.15559  0.14295  1.0000
  C   C947      1.0  0.89556  0.01109  0.71302  1.0000
  H   H1649     1.0  0.77076  0.24779  0.65499  1.0000
  H   H1650     1.0  0.77477  0.09540  0.99623  1.0000
  C   C948      1.0  0.75972  0.12395  0.82802  1.0000
  C   C949      1.0  0.91370  0.27567  0.83442  1.0000
  C   C950      1.0  0.92547  0.27089  0.88768  1.0000
  C   C951      1.0  0.95296  0.27251  0.88487  1.0000
  H   H1651     1.0  0.88007  0.28794  0.90811  1.0000
  H   H1652     1.0  0.88173  0.24619  0.89072  1.0000
  H   H1653     1.0  0.90860  0.22589  0.81908  1.0000
  H   H1654     1.0  0.91923  0.28481  0.91601  1.0000
  H   H1655     1.0  0.92121  0.25228  0.90214  1.0000
  H   H1656     1.0  0.96928  0.32036  0.24158  1.0000
  H   H1657     1.0  0.75052  0.30996  0.65435  1.0000
  C   C952      1.0  0.94329  0.05771  0.66863  1.0000
  S   S212      1.0  0.79067  0.00825  0.16787  1.0000
  C   C953      1.0  0.75825  0.02457  0.28624  1.0000
  H   H1658     1.0  0.99259  0.05413  0.63432  1.0000
  C   C954      1.0  0.99857  0.22220  0.29401  1.0000
  H   H1659     1.0  0.97780  0.17032  0.51095  1.0000
  N   N52       1.0  0.82127  0.27090  0.39747  1.0000
  C   C955      1.0  0.82391  0.25221  0.35501  1.0000
  C   C956      1.0  0.83890  0.26432  0.43994  1.0000
  C   C957      1.0  0.79620  0.26847  0.41899  1.0000
  C   C958      1.0  0.82452  0.29725  0.37987  1.0000
  H   H1660     1.0  0.91775  0.05681  0.54572  1.0000
  C   C959      1.0  0.80514  0.25457  0.31037  1.0000
  C   C960      1.0  0.79082  0.28344  0.46834  1.0000
  C   C961      1.0  0.86597  0.26376  0.42599  1.0000
  C   C962      1.0  0.88168  0.25906  0.47355  1.0000
  C   C963      1.0  0.98506  0.09113  0.66215  1.0000
  H   H1661     1.0  0.88441  0.31093  0.86106  1.0000
  H   H1662     1.0  0.82350  0.23316  0.37101  1.0000
  H   H1663     1.0  0.84206  0.25305  0.33740  1.0000
  H   H1664     1.0  0.83719  0.27777  0.47189  1.0000
  H   H1665     1.0  0.83465  0.24596  0.45639  1.0000
  H   H1666     1.0  0.79253  0.24879  0.42784  1.0000
  H   H1667     1.0  0.78246  0.27443  0.39004  1.0000
  H   H1668     1.0  0.94004  0.13447  0.38958  1.0000
  N   N53       1.0  0.96654  0.05062  0.69564  1.0000
  H   H1669     1.0  0.95562  0.14545  0.07291  1.0000
  H   H1670     1.0  0.91743  0.08205  0.59062  1.0000
  H   H1671     1.0  0.79787  0.30232  0.46545  1.0000
  H   H1672     1.0  0.79937  0.27422  0.50208  1.0000
  H   H1673     1.0  0.87018  0.24907  0.39773  1.0000
  H   H1674     1.0  0.87125  0.28169  0.41036  1.0000
  H   H1675     1.0  0.92963  0.21562  0.02238  1.0000
  H   H1676     1.0  0.93595  0.21113  0.23197  1.0000
  H   H1677     1.0  0.87746  0.27284  0.50387  1.0000
  C   C964      1.0  0.91854  0.06166  0.58701  1.0000
  H   H1678     1.0  0.93147  0.09053  0.41013  1.0000
  H   H1679     1.0  0.80679  0.30624  0.37003  1.0000
  H   H1680     1.0  0.81992  0.31946  0.90015  1.0000
  H   H1681     1.0  0.97331  0.13305  0.15719  1.0000
  H   H1682     1.0  0.93761  0.16563  0.65008  1.0000
  H   H1683     1.0  0.93750  0.13317  0.66390  1.0000
  C   C965      1.0  0.88860  0.22598  0.82022  1.0000
  H   H1684     1.0  0.75733  0.10158  0.13668  1.0000
  H   H1685     1.0  0.79413  0.07719  0.82930  1.0000
  H   H1686     1.0  0.94307  0.30723  0.11264  1.0000
  C   C966      1.0  0.84807  0.29686  0.86491  1.0000
  C   C967      1.0  0.92997  0.26656  0.32016  1.0000
  H   H1687     1.0  0.89593  0.01191  0.67161  1.0000
  C   C968      1.0  0.87593  0.29278  0.86758  1.0000
  H   H1688     1.0  0.85067  0.01525  0.88592  1.0000
  C   C969      1.0  0.93513  0.17121  0.99829  1.0000
  H   H1689     1.0  0.95219  0.15153  0.90616  1.0000
  H   H1690     1.0  0.85565  0.04182  0.11379  1.0000
  H   H1691     1.0  0.89639  0.18254  0.05672  1.0000
  H   H1692     1.0  0.90997  0.17737  0.11703  1.0000
  N   N54       1.0  0.76489  0.02956  0.34138  1.0000
  C   C970      1.0  0.95686  0.17949  0.96553  1.0000
  H   H1693     1.0  0.79792  0.21303  0.64309  1.0000
  H   H1694     1.0  0.91897  0.29446  0.82177  1.0000
  H   H1695     1.0  0.90113  0.25253  0.73599  1.0000
  H   H1696     1.0  0.81114  0.02205  0.29363  1.0000
  S   S213      1.0  0.85411  0.02436  0.22813  1.0000
  H   H1697     1.0  0.77322  0.02925  0.26041  1.0000
  C   C971      1.0  0.95363  0.17186  0.90953  1.0000
  H   H1698     1.0  0.96583  0.04444  0.85425  1.0000
  N   N55       1.0  0.88656  0.27362  0.83161  1.0000
  H   H1699     1.0  0.88127  0.22553  0.78060  1.0000
  H   H1700     1.0  0.97095  0.09514  0.63279  1.0000
  H   H1701     1.0  0.84189  0.30228  0.82593  1.0000
  H   H1702     1.0  0.98043  0.15655  0.20320  1.0000
  H   H1703     1.0  0.88864  0.20094  0.88574  1.0000
  H   H1704     1.0  0.77353  0.23820  0.34671  1.0000
  H   H1705     1.0  0.80544  0.10373  0.30366  1.0000
  S   S214      1.0  0.94375  0.33025  0.95767  1.0000
  C   C972      1.0  0.75615  0.17543  0.70274  1.0000
  H   H1706     1.0  0.93718  0.18079  0.89263  1.0000
  C   C973      1.0  0.88152  0.13918  0.10252  1.0000
  C   C974      1.0  0.78229  0.21032  0.72069  1.0000
  C   C975      1.0  0.92734  0.22041  0.10297  1.0000
  H   H1707     1.0  0.85938  0.27140  0.77158  1.0000
  H   H1708     1.0  0.97618  0.13803  0.50754  1.0000
  H   H1709     1.0  0.92282  0.33229  0.17880  1.0000
  C   C976      1.0  0.75573  0.02595  0.02706  1.0000
  H   H1710     1.0  0.95372  0.28546  0.27048  1.0000
  H   H1711     1.0  0.91135  0.14768  0.63442  1.0000
  H   H1712     1.0  0.84547  0.31294  0.94147  1.0000
  H   H1713     1.0  0.91830  0.17832  0.97911  1.0000
  N   N56       1.0  0.75690  0.20317  0.70676  1.0000
  H   H1714     1.0  0.95813  0.29207  0.33705  1.0000
  H   H1715     1.0  0.96050  0.25801  0.85913  1.0000
  H   H1716     1.0  0.75535  0.05186  0.96455  1.0000
  H   H1717     1.0  0.87490  0.29962  0.77294  1.0000
  H   H1718     1.0  0.82795  0.02323  0.93215  1.0000
  H   H1719     1.0  0.97742  0.13769  0.41411  1.0000
  H   H1720     1.0  0.89298  0.26943  0.64938  1.0000
  C   C977      1.0  0.94202  0.05148  0.61076  1.0000
  H   H1721     1.0  0.97881  0.28950  0.04127  1.0000
  C   C978      1.0  0.87754  0.27936  0.77792  1.0000
  C   C979      1.0  0.98287  0.15699  0.76010  1.0000
  H   H1722     1.0  0.93074  0.30184  0.20187  1.0000
  H   H1723     1.0  0.93460  0.28907  0.42564  1.0000
  C   C980      1.0  0.95359  0.21391  0.24849  1.0000
  C   C981      1.0  0.96626  0.23522  0.23660  1.0000
  H   H1724     1.0  0.86121  0.20082  0.84748  1.0000
  C   C982      1.0  0.80495  0.00602  0.31566  1.0000
  H   H1725     1.0  0.94329  0.24128  0.43976  1.0000
  H   H1726     1.0  0.76598  0.16652  0.73541  1.0000
  H   H1727     1.0  0.94468  0.21728  0.39207  1.0000
  C   C983      1.0  0.75582  0.15400  0.89607  1.0000
  H   H1728     1.0  0.90739  0.22109  0.09912  1.0000
  H   H1729     1.0  0.90198  0.13834  0.03345  1.0000
  H   H1730     1.0  0.94717  0.07224  0.84739  1.0000
  C   C984      1.0  0.97028  0.02303  0.69209  1.0000
  H   H1731     1.0  0.98489  0.09391  0.82925  1.0000
  H   H1732     1.0  0.86622  0.15054  0.08703  1.0000
  H   H1733     1.0  0.95832  0.24881  0.21097  1.0000
  H   H1734     1.0  0.97397  0.17079  0.97949  1.0000
  C   C985      1.0  0.95888  0.16975  0.13879  1.0000
  C   C986      1.0  0.90485  0.14422  0.07370  1.0000
  H   H1735     1.0  0.87306  0.29278  0.67573  1.0000
  H   H1736     1.0  0.98000  0.10110  0.69763  1.0000
  H   H1737     1.0  0.76064  0.29580  0.51438  1.0000
  H   H1738     1.0  0.97888  0.29278  0.42953  1.0000
  H   H1739     1.0  0.96904  0.30254  0.15389  1.0000
  H   H1740     1.0  0.87887  0.24020  0.48863  1.0000
  H   H1741     1.0  0.93171  0.25711  0.07018  1.0000
  C   C987      1.0  0.93836  0.20653  0.05631  1.0000
  H   H1742     1.0  0.93914  0.07770  0.67366  1.0000
  H   H1743     1.0  0.78400  0.06692  0.27495  1.0000
  C   C988      1.0  0.79128  0.09575  0.32819  1.0000
  C   C989      1.0  0.98852  0.23963  0.26010  1.0000
  H   H1744     1.0  0.92721  0.25661  0.13846  1.0000
  H   H1745     1.0  0.83163  0.30863  0.41190  1.0000
  C   C990      1.0  0.88120  0.20207  0.84619  1.0000
  H   H1746     1.0  0.86539  0.26060  0.67998  1.0000
  H   H1747     1.0  0.79662  0.02255  0.38929  1.0000
  H   H1748     1.0  0.92789  0.04823  0.68646  1.0000
  H   H1749     1.0  0.96237  0.20377  0.47474  1.0000
  H   H1750     1.0  0.86625  0.04222  0.95438  1.0000
  H   H1751     1.0  0.98444  0.27919  0.59516  1.0000
  H   H1752     1.0  0.95882  0.19979  0.96620  1.0000
  H   H1753     1.0  0.76611  0.16898  0.66816  1.0000
  N   N57       1.0  0.93530  0.17886  0.05402  1.0000
  H   H1754     1.0  0.93485  0.15077  0.99475  1.0000
  H   H1755     1.0  0.91796  0.26993  0.35344  1.0000
  H   H1756     1.0  0.95727  0.05939  0.58949  1.0000
  H   H1757     1.0  0.91938  0.31511  0.34088  1.0000
  H   H1758     1.0  0.78820  0.20079  0.75656  1.0000
  C   C991      1.0  0.93614  0.24688  0.10601  1.0000
  C   C992      1.0  0.78889  0.06833  0.31607  1.0000
  H   H1759     1.0  0.77602  0.05931  0.39070  1.0000
  C   C993      1.0  0.96973  0.15521  0.48811  1.0000
  H   H1760     1.0  0.88839  0.18605  0.82414  1.0000
  C   C994      1.0  0.83990  0.31737  0.90147  1.0000
  H   H1761     1.0  0.91181  0.30773  0.27713  1.0000
  C   C995      1.0  0.96753  0.30779  0.44277  1.0000
  H   H1762     1.0  0.88375  0.14323  0.14397  1.0000
  C   C996      1.0  0.95619  0.16562  0.08031  1.0000
  H   H1763     1.0  0.98789  0.30379  0.67170  1.0000
  H   H1764     1.0  0.75466  0.24130  0.56648  1.0000
  C   C997      1.0  0.98636  0.20034  0.30417  1.0000
  H   H1765     1.0  0.95594  0.24694  0.11279  1.0000
  H   H1766     1.0  0.85855  0.29167  0.33577  1.0000
  H   H1767     1.0  0.80198  0.00370  0.88198  1.0000
  H   H1768     1.0  0.96030  0.07897  0.75204  1.0000
  H   H1769     1.0  0.75581  0.26696  0.48159  1.0000
  H   H1770     1.0  0.99428  0.18680  0.32995  1.0000
  H   H1771     1.0  0.83205  0.29479  0.29708  1.0000
  H   H1772     1.0  0.99931  0.06228  0.90041  1.0000
  H   H1773     1.0  0.95819  0.29092  0.87055  1.0000
  H   H1774     1.0  0.99236  0.21879  0.53563  1.0000
  S   S215      1.0  0.83699  0.32890  0.52174  1.0000
  H   H1775     1.0  0.75271  0.06768  0.34731  1.0000
  H   H1776     1.0  0.98260  0.05694  0.77045  1.0000
  C   C998      1.0  0.93801  0.31992  0.19073  1.0000
  C   C999      1.0  0.95392  0.31549  0.14395  1.0000
  C   C1000     1.0  0.97840  0.15263  0.16162  1.0000
  C   C1001     1.0  0.86406  0.02223  0.96171  1.0000
  S   S216      1.0  0.78633  0.01780  0.01973  1.0000
  C   C1002     1.0  0.97782  0.32927  0.46161  1.0000
  C   C1003     1.0  0.84473  0.01219  0.92580  1.0000
  H   H1777     1.0  0.99006  0.27246  0.09612  1.0000
  C   C1004     1.0  0.95254  0.33174  0.23500  1.0000
  H   H1778     1.0  0.98767  0.01558  0.76725  1.0000
  H   H1779     1.0  0.76439  0.01629  0.44631  1.0000
  C   C1005     1.0  0.76295  0.09080  0.10244  1.0000
  H   H1780     1.0  0.76971  0.07236  0.11524  1.0000
  H   H1781     1.0  0.99753  0.30155  0.55547  1.0000
  C   C1006     1.0  0.92713  0.32518  0.45634  1.0000
  H   H1782     1.0  0.75768  0.00617  0.85936  1.0000
  S   S217      1.0  0.89582  0.32287  0.44531  1.0000
  H   H1783     1.0  0.97243  0.33056  0.32703  1.0000
  C   C1007     1.0  0.99536  0.28189  0.06030  1.0000
  C   C1008     1.0  0.96839  0.32656  0.61787  1.0000
  H   H1784     1.0  0.88165  0.01265  0.95498  1.0000
  C   C1009     1.0  0.99911  0.29294  0.59417  1.0000
  H   H1785     1.0  0.99844  0.26302  0.51470  1.0000
  H   H1786     1.0  0.75468  0.29580  0.44650  1.0000
  H   H1787     1.0  0.85724  0.33125  0.29105  1.0000
  H   H1788     1.0  0.75019  0.00126  0.09041  1.0000
  C   C1010     1.0  0.93731  0.34644  0.47683  1.0000
  H   H1789     1.0  0.97838  0.64091  0.99607  1.0000
  H   H1790     1.0  0.76608  0.62452  0.49715  1.0000
  Fe  Fe105     1.0  0.85196  0.39748  0.52189  1.0000
  S   S218      1.0  0.81896  0.38311  0.55986  1.0000
  S   S219      1.0  0.86027  0.43747  0.53166  1.0000
  H   H1791     1.0  0.90550  0.41768  0.59885  1.0000
  C   C1011     1.0  0.76594  0.63069  0.57924  1.0000
  Fe  Fe106     1.0  0.81468  0.36037  0.48852  1.0000
  H   H1792     1.0  0.98301  0.43693  0.96280  1.0000
  S   S220      1.0  0.87742  0.36936  0.55639  1.0000
  S   S221      1.0  0.84611  0.37704  0.44792  1.0000
  Fe  Fe107     1.0  0.94965  0.60131  0.95831  1.0000
  S   S222      1.0  0.95841  0.59327  0.04008  1.0000
  S   S223      1.0  0.98145  0.60854  0.90773  1.0000
  Fe  Fe108     1.0  0.89545  0.59590  0.97271  1.0000
  S   S224      1.0  0.90037  0.58835  0.05773  1.0000
  S   S225      1.0  0.85692  0.59655  0.93902  1.0000
  Fe  Fe109     1.0  0.92759  0.61908  0.05894  1.0000
  S   S226      1.0  0.93404  0.65348  0.10906  1.0000
  Fe  Fe110     1.0  0.93114  0.56335  0.03214  1.0000
  S   S227      1.0  0.94258  0.52550  0.06205  1.0000
  S   S228      1.0  0.91997  0.62860  0.97590  1.0000
  S   S229      1.0  0.92489  0.56932  0.94807  1.0000
  S   S230      1.0  0.77764  0.35165  0.45447  1.0000
  H   H1793     1.0  0.85781  0.47771  0.65593  1.0000
  Fe  Fe111     1.0  0.90929  0.39199  0.98252  1.0000
  S   S231      1.0  0.94404  0.38978  0.93968  1.0000
  S   S232      1.0  0.89019  0.42937  0.98235  1.0000
  Fe  Fe112     1.0  0.92829  0.35704  0.90023  1.0000
  H   H1794     1.0  0.84832  0.45370  0.03680  1.0000
  Fe  Fe113     1.0  0.95584  0.36335  0.00113  1.0000
  H   H1795     1.0  0.78502  0.44869  0.40115  1.0000
  S   S233      1.0  0.89254  0.36084  0.93884  1.0000
  S   S234      1.0  0.92180  0.36730  0.04752  1.0000
  H   H1796     1.0  0.87370  0.37742  0.28233  1.0000
  S   S235      1.0  0.77261  0.51262  0.68349  1.0000
  C   C1012     1.0  0.88370  0.35164  0.79585  1.0000
  Fe  Fe114     1.0  0.77879  0.55339  0.69036  1.0000
  S   S236      1.0  0.81581  0.56574  0.71879  1.0000
  H   H1797     1.0  0.87290  0.44086  0.64416  1.0000
  C   C1013     1.0  0.84592  0.58773  0.87753  1.0000
  C   C1014     1.0  0.86127  0.57927  0.83867  1.0000
  C   C1015     1.0  0.85165  0.57212  0.79083  1.0000
  C   C1016     1.0  0.82660  0.57310  0.78124  1.0000
  C   C1017     1.0  0.81121  0.58148  0.82014  1.0000
  C   C1018     1.0  0.82085  0.58880  0.86787  1.0000
  H   H1798     1.0  0.88057  0.57844  0.84534  1.0000
  H   H1799     1.0  0.86377  0.56603  0.76081  1.0000
  H   H1800     1.0  0.79195  0.58270  0.81321  1.0000
  H   H1801     1.0  0.80881  0.59545  0.89753  1.0000
  H   H1802     1.0  0.77745  0.49162  0.43259  1.0000
  H   H1803     1.0  0.94484  0.62332  0.20093  1.0000
  H   H1804     1.0  0.99969  0.45478  0.83472  1.0000
  C   C1019     1.0  0.92845  0.49885  0.03822  1.0000
  C   C1020     1.0  0.93786  0.47539  0.05123  1.0000
  C   C1021     1.0  0.92676  0.45387  0.03323  1.0000
  C   C1022     1.0  0.90596  0.45571  0.00269  1.0000
  C   C1023     1.0  0.89681  0.47914  0.98923  1.0000
  C   C1024     1.0  0.90798  0.50064  0.00672  1.0000
  H   H1805     1.0  0.95361  0.47388  0.07580  1.0000
  H   H1806     1.0  0.93389  0.43589  0.04410  1.0000
  H   H1807     1.0  0.88102  0.48054  0.96519  1.0000
  H   H1808     1.0  0.90069  0.51862  0.99635  1.0000
  H   H1809     1.0  0.84944  0.65026  0.75746  1.0000
  H   H1810     1.0  0.99888  0.36579  0.93089  1.0000
  H   H1811     1.0  0.75669  0.41621  0.56587  1.0000
  H   H1812     1.0  0.75391  0.53682  0.35974  1.0000
  C   C1025     1.0  0.83298  0.45432  0.53259  1.0000
  C   C1026     1.0  0.83198  0.47819  0.55297  1.0000
  C   C1027     1.0  0.80976  0.49104  0.55623  1.0000
  C   C1028     1.0  0.78874  0.48024  0.53766  1.0000
  C   C1029     1.0  0.78990  0.45656  0.51652  1.0000
  C   C1030     1.0  0.81196  0.44364  0.51397  1.0000
  H   H1813     1.0  0.84833  0.48666  0.56644  1.0000
  H   H1814     1.0  0.80897  0.50947  0.57210  1.0000
  H   H1815     1.0  0.77378  0.44797  0.50249  1.0000
  H   H1816     1.0  0.81272  0.42556  0.49668  1.0000
  C   C1031     1.0  0.76177  0.37009  0.40860  1.0000
  C   C1032     1.0  0.77204  0.39072  0.38612  1.0000
  H   H1817     1.0  0.81594  0.45218  0.04471  1.0000
  H   H1818     1.0  0.83449  0.46151  0.75687  1.0000
  C   C1033     1.0  0.96263  0.34838  0.47972  1.0000
  H   H1819     1.0  0.79030  0.39565  0.39618  1.0000
  H   H1820     1.0  0.82663  0.45272  0.37444  1.0000
  H   H1821     1.0  0.92574  0.36161  0.48908  1.0000
  C   C1034     1.0  0.91157  0.41009  0.63644  1.0000
  C   C1035     1.0  0.88934  0.34374  0.69063  1.0000
  H   H1822     1.0  0.84785  0.41554  0.89583  1.0000
  C   C1036     1.0  0.94608  0.66020  0.17113  1.0000
  H   H1823     1.0  0.83174  0.42986  0.00531  1.0000
  H   H1824     1.0  0.93821  0.50794  0.91881  1.0000
  C   C1037     1.0  0.78899  0.46471  0.37647  1.0000
  H   H1825     1.0  0.87733  0.39499  0.65480  1.0000
  H   H1826     1.0  0.78901  0.42140  0.64708  1.0000
  C   C1038     1.0  0.96731  0.36994  0.31731  1.0000
  H   H1827     1.0  0.99503  0.47253  0.01795  1.0000
  H   H1828     1.0  0.96113  0.47361  0.88003  1.0000
  H   H1829     1.0  0.79719  0.39065  0.66929  1.0000
  H   H1830     1.0  0.84908  0.39055  0.85036  1.0000
  H   H1831     1.0  0.83226  0.51487  0.66833  1.0000
  H   H1832     1.0  0.75175  0.40559  0.50112  1.0000
  C   C1039     1.0  0.77339  0.48761  0.39166  1.0000
  H   H1833     1.0  0.76473  0.50327  0.84110  1.0000
  H   H1834     1.0  0.86060  0.39950  0.76005  1.0000
  N   N58       1.0  0.77330  0.64236  0.67414  1.0000
  C   C1040     1.0  0.94921  0.64224  0.20923  1.0000
  N   N59       1.0  0.82379  0.51279  0.94367  1.0000
  C   C1041     1.0  0.80468  0.50440  0.90657  1.0000
  C   C1042     1.0  0.82774  0.49363  0.98536  1.0000
  C   C1043     1.0  0.81444  0.53606  0.96944  1.0000
  C   C1044     1.0  0.84718  0.51884  0.91724  1.0000
  C   C1045     1.0  0.85581  0.50149  0.87349  1.0000
  C   C1046     1.0  0.79646  0.52357  0.86565  1.0000
  C   C1047     1.0  0.83053  0.54618  0.01334  1.0000
  C   C1048     1.0  0.82725  0.46597  0.97015  1.0000
  C   C1049     1.0  0.83100  0.44952  0.01723  1.0000
  C   C1050     1.0  0.88036  0.50920  0.85320  1.0000
  Fe  Fe115     1.0  0.90865  0.33577  0.99909  1.0000
  C   C1051     1.0  0.81927  0.56957  0.03658  1.0000
  H   H1835     1.0  0.78824  0.49903  0.92791  1.0000
  H   H1836     1.0  0.81087  0.48752  0.88593  1.0000
  H   H1837     1.0  0.84513  0.49666  0.00587  1.0000
  H   H1838     1.0  0.81349  0.49580  0.01517  1.0000
  H   H1839     1.0  0.79605  0.53317  0.98524  1.0000
  H   H1840     1.0  0.81238  0.55136  0.94131  1.0000
  H   H1841     1.0  0.84594  0.53759  0.90005  1.0000
  H   H1842     1.0  0.86213  0.52008  0.94568  1.0000
  H   H1843     1.0  0.84298  0.50201  0.84067  1.0000
  H   H1844     1.0  0.85790  0.48230  0.88655  1.0000
  H   H1845     1.0  0.78544  0.53857  0.88351  1.0000
  H   H1846     1.0  0.81218  0.53185  0.84677  1.0000
  H   H1847     1.0  0.84870  0.55076  0.99888  1.0000
  H   H1848     1.0  0.83286  0.53264  0.04489  1.0000
  H   H1849     1.0  0.80957  0.46112  0.95311  1.0000
  H   H1850     1.0  0.84166  0.46100  0.94292  1.0000
  H   H1851     1.0  0.89714  0.39928  0.70852  1.0000
  C   C1052     1.0  0.86302  0.41959  0.76589  1.0000
  C   C1053     1.0  0.83266  0.63942  0.75694  1.0000
  H   H1852     1.0  0.89416  0.50862  0.88427  1.0000
  H   H1853     1.0  0.88630  0.49641  0.82233  1.0000
  H   H1854     1.0  0.87918  0.52814  0.83718  1.0000
  H   H1855     1.0  0.85486  0.33638  0.35921  1.0000
  C   C1054     1.0  0.90968  0.34523  0.72289  1.0000
  H   H1856     1.0  0.83032  0.42844  0.81215  1.0000
  H   H1857     1.0  0.81631  0.58393  0.00675  1.0000
  H   H1858     1.0  0.80176  0.56551  0.05490  1.0000
  H   H1859     1.0  0.83166  0.57704  0.06610  1.0000
  H   H1860     1.0  0.95304  0.38446  0.32116  1.0000
  H   H1861     1.0  0.97899  0.37563  0.39614  1.0000
  H   H1862     1.0  0.85415  0.51141  0.71923  1.0000
  Fe  Fe116     1.0  0.84399  0.35336  0.58919  1.0000
  C   C1055     1.0  0.79190  0.40962  0.68152  1.0000
  H   H1863     1.0  0.95898  0.34954  0.21979  1.0000
  H   H1864     1.0  0.84780  0.33519  0.89015  1.0000
  H   H1865     1.0  0.95878  0.63498  0.28831  1.0000
  C   C1056     1.0  0.89016  0.40782  0.67263  1.0000
  C   C1057     1.0  0.99625  0.64211  0.97985  1.0000
  C   C1058     1.0  0.99623  0.48155  0.91463  1.0000
  H   H1866     1.0  0.88260  0.42176  0.77472  1.0000
  H   H1867     1.0  0.78067  0.50336  0.37010  1.0000
  N   N60       1.0  0.85611  0.43352  0.71747  1.0000
  H   H1868     1.0  0.78904  0.60717  0.53173  1.0000
  C   C1059     1.0  0.87786  0.43339  0.68263  1.0000
  C   C1060     1.0  0.83590  0.42104  0.68913  1.0000
  C   C1061     1.0  0.81125  0.42038  0.71649  1.0000
  C   C1062     1.0  0.84294  0.47690  0.68401  1.0000
  C   C1063     1.0  0.86612  0.34578  0.71116  1.0000
  H   H1869     1.0  0.76320  0.53350  0.42537  1.0000
  H   H1870     1.0  0.80016  0.64053  0.61371  1.0000
  H   H1871     1.0  0.75566  0.64835  0.57502  1.0000
  H   H1872     1.0  0.89527  0.34771  0.34042  1.0000
  H   H1873     1.0  0.83308  0.42947  0.65055  1.0000
  H   H1874     1.0  0.84084  0.40144  0.68120  1.0000
  C   C1064     1.0  0.78086  0.51186  0.82419  1.0000
  C   C1065     1.0  0.86336  0.34952  0.76391  1.0000
  H   H1875     1.0  0.97589  0.58232  0.14424  1.0000
  H   H1876     1.0  0.82646  0.47022  0.66448  1.0000
  H   H1877     1.0  0.82832  0.33921  0.31869  1.0000
  H   H1878     1.0  0.96426  0.51931  0.88622  1.0000
  H   H1879     1.0  0.77457  0.52632  0.79682  1.0000
  H   H1880     1.0  0.87671  0.38900  0.34669  1.0000
  H   H1881     1.0  0.76517  0.38510  0.54851  1.0000
  H   H1882     1.0  0.91994  0.39157  0.62989  1.0000
  C   C1066     1.0  0.90693  0.34916  0.77564  1.0000
  H   H1883     1.0  0.82292  0.50399  0.73009  1.0000
  H   H1884     1.0  0.89200  0.44567  0.69828  1.0000
  H   H1885     1.0  0.78300  0.64322  0.75489  1.0000
  C   C1067     1.0  0.75878  0.40479  0.34981  1.0000
  H   H1886     1.0  0.79361  0.61657  0.72172  1.0000
  C   C1068     1.0  0.90528  0.36332  0.32432  1.0000
  H   H1887     1.0  0.86537  0.46858  0.75028  1.0000
  C   C1069     1.0  0.98682  0.37528  0.35715  1.0000
  C   C1070     1.0  0.95713  0.64894  0.25886  1.0000
  C   C1071     1.0  0.88683  0.38378  0.31157  1.0000
  C   C1072     1.0  0.84986  0.46007  0.72997  1.0000
  H   H1888     1.0  0.81996  0.47523  0.42325  1.0000
  C   C1073     1.0  0.95684  0.34385  0.32483  1.0000
  H   H1889     1.0  0.92543  0.42224  0.65323  1.0000
  H   H1890     1.0  0.87604  0.40744  0.86571  1.0000
  H   H1891     1.0  0.85652  0.44559  0.82893  1.0000
  C   C1074     1.0  0.85018  0.42724  0.81640  1.0000
  H   H1892     1.0  0.79140  0.49768  0.80264  1.0000
  H   H1893     1.0  0.92693  0.37173  0.25733  1.0000
  H   H1894     1.0  0.92759  0.34330  0.70694  1.0000
  H   H1895     1.0  0.91733  0.37033  0.35481  1.0000
  S   S237      1.0  0.76714  0.56138  0.60847  1.0000
  Fe  Fe117     1.0  0.75761  0.52147  0.60572  1.0000
  H   H1896     1.0  0.82154  0.48455  0.35680  1.0000
  H   H1897     1.0  0.81265  0.40821  0.75053  1.0000
  S   S238      1.0  0.93282  0.35018  0.81523  1.0000
  H   H1898     1.0  0.89604  0.40035  0.29710  1.0000
  C   C1075     1.0  0.77928  0.62526  0.52931  1.0000
  H   H1899     1.0  0.78593  0.45973  0.33580  1.0000
  H   H1900     1.0  0.97549  0.37193  0.27908  1.0000
  H   H1901     1.0  0.96139  0.40012  0.81956  1.0000
  H   H1902     1.0  0.96148  0.47140  0.94914  1.0000
  C   C1076     1.0  0.81589  0.46972  0.38316  1.0000
  H   H1903     1.0  0.96419  0.51701  0.95539  1.0000
  H   H1904     1.0  0.96511  0.43305  0.88400  1.0000
  H   H1905     1.0  0.88133  0.35491  0.83614  1.0000
  H   H1906     1.0  0.76761  0.50257  0.29098  1.0000
  C   C1077     1.0  0.79066  0.63690  0.71779  1.0000
  C   C1078     1.0  0.83778  0.50333  0.70175  1.0000
  C   C1079     1.0  0.96833  0.48173  0.91583  1.0000
  H   H1907     1.0  0.76709  0.42025  0.33152  1.0000
  H   H1908     1.0  0.80485  0.43904  0.72809  1.0000
  C   C1080     1.0  0.85618  0.40903  0.85954  1.0000
  H   H1909     1.0  0.79234  0.63995  0.52102  1.0000
  C   C1081     1.0  0.95824  0.50813  0.91922  1.0000
  H   H1910     1.0  0.97044  0.36503  0.49473  1.0000
  H   H1911     1.0  0.82465  0.64560  0.67788  1.0000
  C   C1082     1.0  0.91946  0.35509  0.27586  1.0000
  C   C1083     1.0  0.78355  0.63118  0.62573  1.0000
  H   H1912     1.0  0.99733  0.65671  0.13347  1.0000
  H   H1913     1.0  0.77458  0.40862  0.70256  1.0000
  H   H1914     1.0  0.84543  0.35104  0.78002  1.0000
  H   H1915     1.0  0.97319  0.55101  0.16567  1.0000
  Fe  Fe118     1.0  0.86882  0.34738  0.48642  1.0000
  S   S239      1.0  0.76111  0.49653  0.53779  1.0000
  C   C1084     1.0  0.75157  0.40013  0.54213  1.0000
  H   H1916     1.0  0.89166  0.34050  0.65008  1.0000
  H   H1917     1.0  0.90575  0.34821  0.24832  1.0000
  C   C1085     1.0  0.98183  0.42407  0.86941  1.0000
  C   C1086     1.0  0.98628  0.56553  0.15615  1.0000
  H   H1918     1.0  0.78958  0.61171  0.63288  1.0000
  S   S240      1.0  0.84025  0.34286  0.67240  1.0000
  H   H1919     1.0  0.75421  0.38251  0.87330  1.0000
  C   C1087     1.0  0.81562  0.64914  0.71496  1.0000
  H   H1920     1.0  0.98682  0.40837  0.89478  1.0000
  H   H1921     1.0  0.99125  0.55040  0.08105  1.0000
  H   H1922     1.0  0.99242  0.40344  0.80109  1.0000
  H   H1923     1.0  0.94861  0.34335  0.36351  1.0000
  H   H1924     1.0  0.99466  0.39356  0.34952  1.0000
  C   C1088     1.0  0.97631  0.41341  0.81651  1.0000
  H   H1925     1.0  0.99692  0.56980  0.19113  1.0000
  N   N61       1.0  0.93905  0.33576  0.28449  1.0000
  S   S241      1.0  0.99192  0.36532  0.04126  1.0000
  H   H1926     1.0  0.97059  0.42827  0.78951  1.0000
  H   H1927     1.0  0.97963  0.43317  0.05555  1.0000
  H   H1928     1.0  0.96293  0.33991  0.64812  1.0000
  H   H1929     1.0  0.82413  0.64080  0.79529  1.0000
  H   H1930     1.0  0.83778  0.61992  0.74917  1.0000
  H   H1931     1.0  0.95850  0.66249  0.84494  1.0000
  H   H1932     1.0  0.97153  0.33703  0.58212  1.0000
  H   H1933     1.0  0.75160  0.47319  0.22648  1.0000
  H   H1934     1.0  0.75268  0.61588  0.58468  1.0000
  H   H1935     1.0  0.75282  0.60914  0.68349  1.0000
  C   C1089     1.0  0.99866  0.43887  0.06003  1.0000
  H   H1936     1.0  0.96109  0.66576  0.91364  1.0000
  H   H1937     1.0  0.96131  0.33311  0.12987  1.0000
  Fe  Fe119     1.0  0.82872  0.95172  0.12154  1.0000
  S   S242      1.0  0.82306  0.96005  0.20577  1.0000
  S   S243      1.0  0.85109  0.91847  0.09482  1.0000
  H   H1938     1.0  0.92257  0.69479  0.49491  1.0000
  C   C1090     1.0  0.98153  0.77228  0.17771  1.0000
  C   C1091     1.0  0.93326  0.97942  0.93229  1.0000
  H   H1939     1.0  0.98932  0.92031  0.07061  1.0000
  Fe  Fe120     1.0  0.78403  0.96838  0.18563  1.0000
  H   H1940     1.0  0.87366  0.77788  0.35775  1.0000
  H   H1941     1.0  0.92546  0.90439  0.18154  1.0000
  S   S244      1.0  0.78911  0.95657  0.10300  1.0000
  Fe  Fe121     1.0  0.98179  0.92054  0.80261  1.0000
  S   S245      1.0  0.97320  0.91990  0.71862  1.0000
  H   H1942     1.0  0.95165  0.79341  0.28810  1.0000
  Fe  Fe122     1.0  0.93360  0.89833  0.83194  1.0000
  S   S246      1.0  0.92142  0.89508  0.74952  1.0000
  S   S247      1.0  0.91331  0.88415  0.90122  1.0000
  Fe  Fe123     1.0  0.95948  0.88157  0.73164  1.0000
  S   S248      1.0  0.97590  0.84824  0.68790  1.0000
  Fe  Fe124     1.0  0.93624  0.93347  0.74291  1.0000
  S   S249      1.0  0.91792  0.96579  0.70205  1.0000
  S   S250      1.0  0.97042  0.88177  0.81528  1.0000
  S   S251      1.0  0.94615  0.93701  0.82579  1.0000
  H   H1943     1.0  0.94227  0.82135  0.32000  1.0000
  C   C1092     1.0  0.80021  0.98458  0.89664  1.0000
  H   H1944     1.0  0.84078  0.94127  0.72970  1.0000
  S   S252      1.0  0.97835  0.75499  0.35351  1.0000
  S   S253      1.0  0.95834  0.78762  0.47987  1.0000
  Fe  Fe125     1.0  0.98899  0.71548  0.36789  1.0000
  H   H1945     1.0  0.96402  0.70809  0.83592  1.0000
  Fe  Fe126     1.0  0.82969  0.99938  0.18293  1.0000
  H   H1946     1.0  0.82278  0.94765  0.99990  1.0000
  H   H1947     1.0  0.91781  0.96016  0.99506  1.0000
  C   C1093     1.0  0.90387  0.98906  0.79177  1.0000
  H   H1948     1.0  0.98158  0.73307  0.17139  1.0000
  H   H1949     1.0  0.77462  0.95332  0.32419  1.0000
  H   H1950     1.0  0.76020  0.71706  0.63062  1.0000
  C   C1094     1.0  0.96006  0.69137  0.23247  1.0000
  H   H1951     1.0  0.92350  0.80880  0.27011  1.0000
  H   H1952     1.0  0.96372  0.71037  0.24139  1.0000
  H   H1953     1.0  0.94919  0.69886  0.15419  1.0000
  H   H1954     1.0  0.75026  0.98540  0.91081  1.0000
  C   C1095     1.0  0.97075  0.83224  0.62899  1.0000
  C   C1096     1.0  0.95141  0.83807  0.59605  1.0000
  C   C1097     1.0  0.94799  0.82441  0.55047  1.0000
  C   C1098     1.0  0.96405  0.80506  0.53661  1.0000
  C   C1099     1.0  0.98358  0.79949  0.56916  1.0000
  C   C1100     1.0  0.81112  0.94071  0.96863  1.0000
  H   H1955     1.0  0.93890  0.85286  0.60598  1.0000
  H   H1956     1.0  0.93275  0.82887  0.52580  1.0000
  S   S254      1.0  0.97054  0.68131  0.33531  1.0000
  H   H1957     1.0  0.90588  0.67898  0.24437  1.0000
  C   C1101     1.0  0.89543  0.89594  0.95245  1.0000
  C   C1102     1.0  0.88922  0.87915  0.99053  1.0000
  C   C1103     1.0  0.87575  0.88665  0.03316  1.0000
  C   C1104     1.0  0.86795  0.91116  0.03888  1.0000
  C   C1105     1.0  0.87418  0.92838  0.00113  1.0000
  C   C1106     1.0  0.88781  0.92075  0.95765  1.0000
  H   H1958     1.0  0.89493  0.86001  0.98714  1.0000
  H   H1959     1.0  0.87121  0.87321  0.06197  1.0000
  H   H1960     1.0  0.86873  0.94744  0.00603  1.0000
  H   H1961     1.0  0.89248  0.93392  0.92850  1.0000
  C   C1107     1.0  0.98297  0.95985  0.06517  1.0000
  H   H1962     1.0  0.77768  0.95326  0.87366  1.0000
  C   C1108     1.0  0.82268  0.94503  0.91537  1.0000
  H   H1963     1.0  0.91026  0.97278  0.81155  1.0000
  C   C1109     1.0  0.93622  0.96458  0.98175  1.0000
  H   H1964     1.0  0.89711  0.72905  0.46255  1.0000
  H   H1965     1.0  0.90139  0.76934  0.28713  1.0000
  H   H1966     1.0  0.81388  0.94735  0.80278  1.0000
  C   C1110     1.0  0.75621  0.98647  0.87027  1.0000
  H   H1967     1.0  0.98709  0.85564  0.98013  1.0000
  H   H1968     1.0  0.76007  0.94633  0.41295  1.0000
  H   H1969     1.0  0.88888  0.77300  0.41720  1.0000
  S   S255      1.0  0.99266  0.72189  0.45333  1.0000
  C   C1111     1.0  0.98671  0.81280  0.61515  1.0000
  C   C1112     1.0  0.84262  0.76637  0.43698  1.0000
  H   H1970     1.0  0.90728  0.80107  0.35706  1.0000
  H   H1971     1.0  0.93503  0.78599  0.37553  1.0000
  C   C1113     1.0  0.84010  0.98460  0.93690  1.0000
  H   H1972     1.0  0.82180  0.97640  0.36084  1.0000
  H   H1973     1.0  0.79469  0.90546  0.95099  1.0000
  H   H1974     1.0  0.82602  0.75666  0.44824  1.0000
  C   C1114     1.0  0.98242  0.93374  0.04149  1.0000
  H   H1975     1.0  0.99333  0.78735  0.19097  1.0000
  H   H1976     1.0  0.86397  0.95890  0.75986  1.0000
  H   H1977     1.0  0.97615  0.77564  0.13722  1.0000
  H   H1978     1.0  0.91923  0.70083  0.32147  1.0000
  C   C1115     1.0  0.80784  0.91322  0.97858  1.0000
  H   H1979     1.0  0.99705  0.73535  0.91929  1.0000
  C   C1116     1.0  0.98065  0.86621  0.94609  1.0000
  N   N62       1.0  0.82452  0.97152  0.89822  1.0000
  C   C1117     1.0  0.95595  0.67543  0.87758  1.0000
  H   H1980     1.0  0.91979  0.93501  0.15695  1.0000
  C   C1118     1.0  0.83694  0.97294  0.84666  1.0000
  Fe  Fe127     1.0  0.98524  0.76222  0.43773  1.0000
  H   H1981     1.0  0.86223  0.73256  0.42321  1.0000
  H   H1982     1.0  0.81217  0.93409  0.88754  1.0000
  N   N63       1.0  0.95856  0.92551  0.01992  1.0000
  C   C1119     1.0  0.93865  0.92662  0.05921  1.0000
  C   C1120     1.0  0.95132  0.94044  0.97301  1.0000
  C   C1121     1.0  0.96170  0.89887  0.00373  1.0000
  C   C1122     1.0  0.95172  0.68477  0.18313  1.0000
  H   H1983     1.0  0.84238  0.93429  0.82337  1.0000
  C   C1123     1.0  0.94304  0.91160  0.10905  1.0000
  H   H1984     1.0  0.96273  0.85937  0.93390  1.0000
  C   C1124     1.0  0.99806  0.69153  0.86356  1.0000
  Fe  Fe128     1.0  0.79868  0.99578  0.08809  1.0000
  H   H1985     1.0  0.78048  0.99573  0.37373  1.0000
  H   H1986     1.0  0.97253  0.90338  0.92285  1.0000
  C   C1125     1.0  0.97897  0.89378  0.95804  1.0000
  H   H1987     1.0  0.92159  0.92000  0.04170  1.0000
  H   H1988     1.0  0.80381  0.68130  0.64153  1.0000
  H   H1989     1.0  0.85694  0.97375  0.85173  1.0000
  H   H1990     1.0  0.93997  0.92921  0.94681  1.0000
  H   H1991     1.0  0.94386  0.89105  0.99341  1.0000
  H   H1992     1.0  0.96882  0.88743  0.03599  1.0000
  H   H1993     1.0  0.83599  0.97390  0.73962  1.0000
  H   H1994     1.0  0.78099  0.68003  0.59310  1.0000
  H   H1995     1.0  0.91700  0.72120  0.26692  1.0000
  H   H1996     1.0  0.92373  0.99719  0.94038  1.0000
  H   H1997     1.0  0.94447  0.89156  0.10087  1.0000
  H   H1998     1.0  0.95972  0.91746  0.12893  1.0000
  H   H1999     1.0  0.82535  0.90298  0.97528  1.0000
  C   C1126     1.0  0.97102  0.69848  0.87063  1.0000
  C   C1127     1.0  0.93574  0.80400  0.30265  1.0000
  H   H2000     1.0  0.93451  0.94582  0.07131  1.0000
  H   H2001     1.0  0.94229  0.69710  0.44062  1.0000
  C   C1128     1.0  0.84414  0.95681  0.75635  1.0000
  H   H2002     1.0  0.85794  0.97485  0.94051  1.0000
  H   H2003     1.0  0.83964  0.98703  0.30818  1.0000
  C   C1129     1.0  0.92241  0.78921  0.34308  1.0000
  C   C1130     1.0  0.88088  0.76315  0.38382  1.0000
  H   H2004     1.0  0.83719  0.78367  0.41682  1.0000
  H   H2005     1.0  0.88250  0.67928  0.29182  1.0000
  H   H2006     1.0  0.85286  0.77102  0.47231  1.0000
  H   H2007     1.0  0.99593  0.78452  0.55948  1.0000
  H   H2008     1.0  0.83181  0.98438  0.97559  1.0000
  N   N64       1.0  0.90018  0.74783  0.35700  1.0000
  C   C1131     1.0  0.88885  0.72771  0.32548  1.0000
  C   C1132     1.0  0.85795  0.74977  0.40211  1.0000
  C   C1133     1.0  0.91327  0.76450  0.32045  1.0000
  C   C1134     1.0  0.91846  0.73759  0.39495  1.0000
  C   C1135     1.0  0.90902  0.71921  0.43495  1.0000
  H   H2009     1.0  0.95111  0.98348  0.91542  1.0000
  H   H2010     1.0  0.99639  0.93365  0.01109  1.0000
  H   H2011     1.0  0.99874  0.68098  0.82708  1.0000
  C   C1136     1.0  0.92980  0.70766  0.46604  1.0000
  H   H2012     1.0  0.97603  0.74638  0.84450  1.0000
  C   C1137     1.0  0.75546  0.95283  0.33172  1.0000
  H   H2013     1.0  0.87575  0.73604  0.29751  1.0000
  H   H2014     1.0  0.87806  0.71532  0.34957  1.0000
  S   S256      1.0  0.83839  0.99024  0.10114  1.0000
  H   H2015     1.0  0.93993  0.72218  0.48651  1.0000
  H   H2016     1.0  0.76824  0.67845  0.70818  1.0000
  H   H2017     1.0  0.92939  0.75480  0.30421  1.0000
  H   H2018     1.0  0.93391  0.72861  0.37466  1.0000
  H   H2019     1.0  0.92664  0.75271  0.41748  1.0000
  H   H2020     1.0  0.89917  0.70393  0.41672  1.0000
  C   C1138     1.0  0.99457  0.74730  0.18316  1.0000
  C   C1139     1.0  0.89284  0.69104  0.26536  1.0000
  H   H2021     1.0  0.96820  0.96307  0.09295  1.0000
  C   C1140     1.0  0.76790  0.66973  0.66953  1.0000
  C   C1141     1.0  0.99279  0.98399  0.71965  1.0000
  C   C1142     1.0  0.90652  0.71065  0.29516  1.0000
  H   H2022     1.0  0.99754  0.89985  0.96668  1.0000
  H   H2023     1.0  0.80095  0.91055  0.01803  1.0000
  C   C1143     1.0  0.90485  0.99010  0.73829  1.0000
  C   C1144     1.0  0.96253  0.67354  0.27094  1.0000
  H   H2024     1.0  0.99365  0.86290  0.91447  1.0000
  H   H2025     1.0  0.84100  0.93613  0.91611  1.0000
  C   C1145     1.0  0.92200  0.91529  0.14614  1.0000
  H   H2026     1.0  0.90489  0.90895  0.12853  1.0000
  C   C1146     1.0  0.83320  0.95131  0.80862  1.0000
  H   H2027     1.0  0.84661  0.74490  0.36844  1.0000
  H   H2028     1.0  0.79309  0.94986  0.97151  1.0000
  H   H2029     1.0  0.96502  0.77255  0.20165  1.0000
  H   H2030     1.0  0.78519  0.97412  0.82224  1.0000
  C   C1147     1.0  0.78440  0.68480  0.63380  1.0000
  C   C1148     1.0  0.78042  0.97279  0.86330  1.0000
  C   C1149     1.0  0.82714  0.99300  0.33910  1.0000
  H   H2031     1.0  0.79303  0.98682  0.93600  1.0000
  H   H2032     1.0  0.97577  0.97540  0.73215  1.0000
  H   H2033     1.0  0.83173  0.99041  0.82659  1.0000
  C   C1150     1.0  0.98698  0.76491  0.77617  1.0000
  H   H2034     1.0  0.78360  0.71855  0.67931  1.0000
  H   H2035     1.0  0.94436  0.97664  0.01088  1.0000
  H   H2036     1.0  0.81344  0.66932  0.72096  1.0000
  H   H2037     1.0  0.79097  0.72277  0.61282  1.0000
  H   H2038     1.0  0.96792  0.71024  0.90472  1.0000
  H   H2039     1.0  0.98180  0.97388  0.03432  1.0000
  H   H2040     1.0  0.92234  0.96908  0.90410  1.0000
  H   H2041     1.0  0.79663  0.99292  0.28836  1.0000
  C   C1151     1.0  0.77941  0.71247  0.63965  1.0000
  H   H2042     1.0  0.97515  0.78130  0.78372  1.0000
  H   H2043     1.0  0.99632  0.97894  0.67910  1.0000
  H   H2044     1.0  0.96759  0.94506  0.95031  1.0000
  H   H2045     1.0  0.93650  0.68070  0.87983  1.0000
  H   H2046     1.0  0.99892  0.74447  0.22424  1.0000
  H   H2047     1.0  0.97720  0.75241  0.74988  1.0000
  H   H2048     1.0  0.88032  0.69975  0.23696  1.0000
  C   C1152     1.0  0.99316  0.75181  0.82660  1.0000
