data_image0
_chemical_formula_structural       CHSHCHCSH2CSC2HSH2CHFeC2HC4HCHCSCH2CHC2H4CFeSHFeH2C3HSNCH8SCH4CHC3HCHCHCH2FeCHC2H2NHC2SH9CH6CS2CHFeC2H2C2SHSCH2SCH2SH5C2HFeH2CH2CHCSCH2CH4C2SCSH3FeH3CHC2HCHC2HSH2CH2CHCHCHSH5CNH3FeHCH10CH2CH3NH2SH4CH3C2H3C3H5C2HC2H2CHCHCHFeHCNCH2CHCFeCH2FeH3CHC2HCH4CSC3HCSH8CH2C2SH2CSHCSC2H3SHCH8CH6CH3CH2C2H4CH2C4HNHSC3HNH4CHCHCH10C3H5C2HCSHC2FeC2H4CH2FeCH5CSCH2SC3H3CHCNH8C2FeS2H2CH3CH3FeHCHFeH5SFeSC2H3CHC2SH3NH2C3HCH2SH3S2H2C2FeCH2FeHCHS2CH3CSHCH3CH2CHCFeCHC2HCHCFeHFeCHCH2FeCHFeCHCSFeCHCH2CHSCH2CH4CSCHSH2S2CNH2CHS2CHCH4SH3FeSHSC2HCHFeHC2H2CH2CSHCHCHCH3CHC4H3FeH2CHCHSH2CHCH2CFeS2H2NHFeH2CHNHCH2CSH5CHC2H3CHC5HC2HCSHCH2C2HCH2C2HC3H4CHSH10C3HC2SCH3CH6C2NHC2H2CHCHCFeHCH4FeNCH4C2H3CH2CHCHC2H6CH3CHCHCH2C2H7CHC2H2SC2H2CH2CHCHCHCH4CH2NH3CHCHC3H2CH4C2SH4CH4SC2H3CH2CH5CHCHNH3CHCH3C
_chemical_formula_sum              "C288 H512 S64 Fe32 N16"
_cell_length_a       20.0391
_cell_length_b       11.8809
_cell_length_c       43.9055
_cell_angle_alpha    82.2048
_cell_angle_beta     87.8969
_cell_angle_gamma    79.255

_space_group_name_H-M_alt    "P 1"
_space_group_IT_number       1

loop_
  _space_group_symop_operation_xyz
  'x, y, z'

loop_
  _atom_site_type_symbol
  _atom_site_label
  _atom_site_symmetry_multiplicity
  _atom_site_fract_x
  _atom_site_fract_y
  _atom_site_fract_z
  _atom_site_occupancy
  C   C1        1.0  0.32220  0.77082  0.37615  1.0000
  H   H1        1.0  0.34802  0.98046  0.34288  1.0000
  S   S1        1.0  0.11246  0.65772  0.35730  1.0000
  H   H2        1.0  0.40205  0.64315  0.23561  1.0000
  C   C2        1.0  0.37381  0.75420  0.27076  1.0000
  H   H3        1.0  0.22312  0.08583  0.35438  1.0000
  C   C3        1.0  0.36213  0.67757  0.25080  1.0000
  S   S2        1.0  0.44732  0.74961  0.40041  1.0000
  H   H4        1.0  0.36748  0.02236  0.20442  1.0000
  H   H5        1.0  0.27949  0.99048  0.16900  1.0000
  C   C4        1.0  0.25962  0.92871  0.41483  1.0000
  S   S3        1.0  0.48380  0.74723  0.18721  1.0000
  C   C5        1.0  0.15078  0.92363  0.17037  1.0000
  C   C6        1.0  0.25223  0.81276  0.37425  1.0000
  H   H6        1.0  0.22261  0.78416  0.35786  1.0000
  S   S4        1.0  0.16857  0.63881  0.27163  1.0000
  H   H7        1.0  0.48559  0.96006  0.22030  1.0000
  H   H8        1.0  0.26362  0.10326  0.30339  1.0000
  C   C7        1.0  0.32144  0.79739  0.29036  1.0000
  H   H9        1.0  0.05304  0.95730  0.23609  1.0000
  Fe  Fe1       1.0  0.09634  0.71560  0.30688  1.0000
  C   C8        1.0  0.35791  0.05834  0.32773  1.0000
  C   C9        1.0  0.22074  0.89024  0.39388  1.0000
  H   H10       1.0  0.12756  0.73276  0.20783  1.0000
  C   C10       1.0  0.29880  0.64301  0.25086  1.0000
  C   C11       1.0  0.40774  0.04377  0.18773  1.0000
  C   C12       1.0  0.10129  0.94923  0.22244  1.0000
  C   C13       1.0  0.25793  0.76400  0.29015  1.0000
  H   H11       1.0  0.21781  0.79800  0.30524  1.0000
  C   C14       1.0  0.13424  0.09572  0.25355  1.0000
  H   H12       1.0  0.22502  0.76251  0.18008  1.0000
  C   C15       1.0  0.24679  0.68563  0.27073  1.0000
  S   S5        1.0  0.45333  0.79655  0.27149  1.0000
  C   C16       1.0  0.02876  0.99143  0.17720  1.0000
  H   H13       1.0  0.47120  0.02500  0.27398  1.0000
  H   H14       1.0  0.17074  0.02660  0.26704  1.0000
  C   C17       1.0  0.47316  0.04251  0.20479  1.0000
  H   H15       1.0  0.32776  0.84488  0.17191  1.0000
  C   C18       1.0  0.12653  0.06572  0.22132  1.0000
  C   C19       1.0  0.08231  0.78826  0.19614  1.0000
  H   H16       1.0  0.39248  0.10040  0.33973  1.0000
  H   H17       1.0  0.03911  0.08062  0.17091  1.0000
  H   H18       1.0  0.08098  0.75567  0.17358  1.0000
  H   H19       1.0  0.33011  0.85576  0.30595  1.0000
  C   C20       1.0  0.32981  0.88746  0.41656  1.0000
  Fe  Fe2       1.0  0.08075  0.84544  0.36192  1.0000
  S   S6        1.0  0.13286  0.93925  0.39244  1.0000
  H   H20       1.0  0.22805  0.86132  0.20719  1.0000
  Fe  Fe3       1.0  0.00134  0.65300  0.35842  1.0000
  H   H21       1.0  0.38315  0.02977  0.30657  1.0000
  H   H22       1.0  0.34684  0.71176  0.36075  1.0000
  C   C21       1.0  0.22054  0.85548  0.18265  1.0000
  C   C22       1.0  0.36080  0.80719  0.39747  1.0000
  C   C23       1.0  0.01359  0.63493  0.21683  1.0000
  H   H23       1.0  0.13712  0.88120  0.23669  1.0000
  S   S7        1.0  0.07325  0.90450  0.31142  1.0000
  N   N1        1.0  0.09077  0.91284  0.19157  1.0000
  C   C24       1.0  0.01959  0.76184  0.21564  1.0000
  H   H24       1.0  0.02430  0.77928  0.23960  1.0000
  H   H25       1.0  0.99894  0.03687  0.38591  1.0000
  H   H26       1.0  0.17705  0.06187  0.20991  1.0000
  H   H27       1.0  0.41668  0.97924  0.17139  1.0000
  H   H28       1.0  0.08423  0.10734  0.26558  1.0000
  H   H29       1.0  0.13072  0.68026  0.47402  1.0000
  H   H30       1.0  0.43955  0.69995  0.54228  1.0000
  H   H31       1.0  0.35958  0.91533  0.43319  1.0000
  S   S8        1.0  0.47492  0.05711  0.41909  1.0000
  C   C25       1.0  0.46703  0.10380  0.54119  1.0000
  H   H32       1.0  0.23542  0.98836  0.43015  1.0000
  H   H33       1.0  0.32714  0.93099  0.60251  1.0000
  H   H34       1.0  0.36946  0.73516  0.49673  1.0000
  H   H35       1.0  0.19830  0.99373  0.66163  1.0000
  C   C26       1.0  0.29553  0.87785  0.65794  1.0000
  H   H36       1.0  0.33868  0.10328  0.61387  1.0000
  C   C27       1.0  0.06436  0.03670  0.50283  1.0000
  C   C28       1.0  0.38394  0.64387  0.50744  1.0000
  C   C29       1.0  0.15330  0.99966  0.59938  1.0000
  H   H37       1.0  0.23598  0.64582  0.42166  1.0000
  C   C30       1.0  0.99170  0.05129  0.49143  1.0000
  H   H38       1.0  0.16633  0.79602  0.45273  1.0000
  C   C31       1.0  0.22430  0.93632  0.64507  1.0000
  H   H39       1.0  0.30726  0.84677  0.53731  1.0000
  C   C32       1.0  0.22683  0.12654  0.61335  1.0000
  H   H40       1.0  0.33744  0.97070  0.51707  1.0000
  H   H41       1.0  0.23303  0.02678  0.54754  1.0000
  Fe  Fe4       1.0  0.99610  0.70324  0.57181  1.0000
  C   C33       1.0  0.28225  0.00234  0.55952  1.0000
  H   H42       1.0  0.33325  0.93558  0.65443  1.0000
  C   C34       1.0  0.27573  0.94168  0.59274  1.0000
  C   C35       1.0  0.44753  0.63307  0.52648  1.0000
  H   H43       1.0  0.25196  0.63788  0.49118  1.0000
  H   H44       1.0  0.06432  0.02232  0.52836  1.0000
  N   N2        1.0  0.22151  0.00177  0.61289  1.0000
  H   H45       1.0  0.29707  0.12231  0.65057  1.0000
  C   C36       1.0  0.08940  0.04023  0.61911  1.0000
  C   C37       1.0  0.32968  0.92338  0.54016  1.0000
  S   S9        1.0  0.06848  0.67965  0.61079  1.0000
  H   H46       1.0  0.31560  0.80101  0.64620  1.0000
  H   H47       1.0  0.29471  0.70622  0.45987  1.0000
  H   H48       1.0  0.15088  0.91057  0.59458  1.0000
  H   H49       1.0  0.08899  0.98313  0.64130  1.0000
  H   H50       1.0  0.37982  0.89394  0.55131  1.0000
  H   H51       1.0  0.26747  0.85203  0.59167  1.0000
  H   H52       1.0  0.11687  0.71568  0.43331  1.0000
  H   H53       1.0  0.30418  0.08122  0.56010  1.0000
  H   H54       1.0  0.19565  0.86371  0.64621  1.0000
  C   C38       1.0  0.15431  0.70908  0.45179  1.0000
  H   H55       1.0  0.03369  0.02655  0.44594  1.0000
  H   H56       1.0  0.14604  0.05577  0.57689  1.0000
  H   H57       1.0  0.09694  0.96088  0.49424  1.0000
  H   H58       1.0  0.08592  0.11547  0.49500  1.0000
  H   H59       1.0  0.02026  0.09891  0.58052  1.0000
  H   H60       1.0  0.02291  0.95000  0.59704  1.0000
  C   C39       1.0  0.02419  0.03839  0.60230  1.0000
  S   S10       1.0  0.07472  0.64087  0.53722  1.0000
  S   S11       1.0  0.19246  0.03198  0.81473  1.0000
  C   C40       1.0  0.29192  0.83622  0.69231  1.0000
  H   H61       1.0  0.27247  0.66597  0.87892  1.0000
  Fe  Fe5       1.0  0.03904  0.75995  0.85101  1.0000
  C   C41       1.0  0.33614  0.71415  0.77044  1.0000
  C   C42       1.0  0.23188  0.11153  0.90287  1.0000
  H   H62       1.0  0.12988  0.05863  0.71956  1.0000
  H   H63       1.0  0.09613  0.67214  0.74081  1.0000
  C   C43       1.0  0.23844  0.82541  0.84981  1.0000
  C   C44       1.0  0.34511  0.77963  0.87710  1.0000
  S   S12       1.0  0.08294  0.80254  0.80410  1.0000
  H   H64       1.0  0.48354  0.67035  0.83155  1.0000
  S   S13       1.0  0.39929  0.68560  0.90375  1.0000
  C   C45       1.0  0.36087  0.88585  0.86402  1.0000
  H   H65       1.0  0.27416  0.91008  0.70543  1.0000
  H   H66       1.0  0.32334  0.65393  0.75533  1.0000
  S   S14       1.0  0.05616  0.92015  0.86849  1.0000
  C   C46       1.0  0.28469  0.74845  0.86928  1.0000
  H   H67       1.0  0.32682  0.04490  0.83417  1.0000
  H   H68       1.0  0.20255  0.08656  0.88468  1.0000
  S   S15       1.0  0.99215  0.06320  0.80301  1.0000
  H   H69       1.0  0.16703  0.74630  0.73767  1.0000
  H   H70       1.0  0.25729  0.77296  0.69680  1.0000
  H   H71       1.0  0.40826  0.90939  0.86937  1.0000
  H   H72       1.0  0.19119  0.80129  0.84476  1.0000
  H   H73       1.0  0.41843  0.11577  0.71033  1.0000
  C   C47       1.0  0.25308  0.93285  0.83730  1.0000
  C   C48       1.0  0.14823  0.67078  0.73111  1.0000
  H   H74       1.0  0.34328  0.79263  0.70043  1.0000
  Fe  Fe6       1.0  0.09362  0.96790  0.82066  1.0000
  H   H75       1.0  0.14601  0.67944  0.70563  1.0000
  H   H76       1.0  0.37316  0.76375  0.75821  1.0000
  C   C49       1.0  0.31505  0.96214  0.84390  1.0000
  H   H77       1.0  0.38203  0.71177  0.81364  1.0000
  H   H78       1.0  0.28933  0.77598  0.77529  1.0000
  C   C50       1.0  0.36623  0.64798  0.80057  1.0000
  H   H79       1.0  0.28687  0.07761  0.89969  1.0000
  C   C51       1.0  0.06260  0.96200  0.95154  1.0000
  S   S16       1.0  0.08561  0.69187  0.04279  1.0000
  C   C52       1.0  0.27574  0.65867  0.12039  1.0000
  H   H80       1.0  0.40272  0.92637  0.08321  1.0000
  H   H81       1.0  0.15070  0.90053  0.01319  1.0000
  C   C53       1.0  0.00217  0.95634  0.14777  1.0000
  H   H82       1.0  0.14377  0.89151  0.14830  1.0000
  H   H83       1.0  0.15335  0.10453  0.93709  1.0000
  H   H84       1.0  0.20462  0.90264  0.91804  1.0000
  H   H85       1.0  0.27246  0.90111  0.13965  1.0000
  C   C54       1.0  0.48657  0.91943  0.05103  1.0000
  C   C55       1.0  0.11797  0.85371  0.95972  1.0000
  S   S17       1.0  0.43451  0.95085  0.01877  1.0000
  C   C56       1.0  0.20753  0.06578  0.93468  1.0000
  S   S18       1.0  0.44270  0.96114  0.93060  1.0000
  H   H86       1.0  0.28833  0.96632  0.99124  1.0000
  H   H87       1.0  0.09840  0.79790  0.97916  1.0000
  H   H88       1.0  0.12075  0.80595  0.93947  1.0000
  Fe  Fe7       1.0  0.12220  0.65672  0.09137  1.0000
  H   H89       1.0  0.04182  0.95026  0.12947  1.0000
  H   H90       1.0  0.27665  0.90403  0.93981  1.0000
  H   H91       1.0  0.28905  0.04210  0.04127  1.0000
  C   C57       1.0  0.39425  0.62957  0.13482  1.0000
  H   H92       1.0  0.07467  0.00690  0.92880  1.0000
  C   C58       1.0  0.23058  0.75643  0.97688  1.0000
  C   C59       1.0  0.99317  0.92853  0.94901  1.0000
  H   H93       1.0  0.47572  0.89778  0.12900  1.0000
  C   C60       1.0  0.24007  0.04285  0.03016  1.0000
  H   H94       1.0  0.15313  0.02979  0.98858  1.0000
  C   C61       1.0  0.36328  0.64674  0.03653  1.0000
  C   C62       1.0  0.22027  0.93175  0.93936  1.0000
  H   H95       1.0  0.36815  0.67539  0.05919  1.0000
  S   S19       1.0  0.01792  0.67595  0.11296  1.0000
  H   H96       1.0  0.28322  0.76587  0.98172  1.0000
  H   H97       1.0  0.34222  0.77932  0.10624  1.0000
  C   C63       1.0  0.24957  0.94862  0.00906  1.0000
  H   H98       1.0  0.25589  0.70869  0.93066  1.0000
  H   H99       1.0  0.30857  0.65605  0.03156  1.0000
  C   C64       1.0  0.33779  0.69701  0.11925  1.0000
  H   H100      1.0  0.26987  0.86577  0.02338  1.0000
  C   C65       1.0  0.23814  0.66973  0.95303  1.0000
  H   H101      1.0  0.18938  0.64278  0.94965  1.0000
  C   C66       1.0  0.45732  0.91503  0.08047  1.0000
  H   H102      1.0  0.44205  0.65981  0.13351  1.0000
  S   S20       1.0  0.20527  0.74846  0.10174  1.0000
  H   H103      1.0  0.27155  0.08789  0.10788  1.0000
  H   H104      1.0  0.20194  0.02695  0.04850  1.0000
  H   H105      1.0  0.05741  0.02245  0.96894  1.0000
  H   H106      1.0  0.21014  0.71433  0.99858  1.0000
  H   H107      1.0  0.01855  0.66427  0.92790  1.0000
  C   C67       1.0  0.18145  0.94043  0.99450  1.0000
  N   N3        1.0  0.18748  0.87366  0.96726  1.0000
  H   H108      1.0  0.38690  0.70399  0.01894  1.0000
  H   H109      1.0  0.99479  0.86681  0.93206  1.0000
  H   H110      1.0  0.23601  0.09788  0.95187  1.0000
  Fe  Fe8       1.0  0.47284  0.77635  0.92299  1.0000
  H   H111      1.0  0.15421  0.01618  0.16355  1.0000
  C   C68       1.0  0.27868  0.90093  0.16464  1.0000
  H   H112      1.0  0.45826  0.35897  0.31215  1.0000
  H   H113      1.0  0.39576  0.33415  0.25091  1.0000
  H   H114      1.0  0.37446  0.42218  0.29760  1.0000
  H   H115      1.0  0.27051  0.55332  0.36910  1.0000
  H   H116      1.0  0.23271  0.40715  0.31592  1.0000
  H   H117      1.0  0.41418  0.33911  0.39385  1.0000
  H   H118      1.0  0.30383  0.22382  0.30716  1.0000
  H   H119      1.0  0.45754  0.22597  0.20574  1.0000
  H   H120      1.0  0.18638  0.45189  0.34839  1.0000
  H   H121      1.0  0.18905  0.35731  0.40728  1.0000
  C   C69       1.0  0.15067  0.27037  0.31826  1.0000
  H   H122      1.0  0.12990  0.18874  0.32044  1.0000
  H   H123      1.0  0.18211  0.27159  0.29685  1.0000
  C   C70       1.0  0.43205  0.29960  0.26998  1.0000
  H   H124      1.0  0.02389  0.15935  0.39905  1.0000
  H   H125      1.0  0.15388  0.17775  0.25184  1.0000
  H   H126      1.0  0.30236  0.54421  0.33034  1.0000
  N   N4        1.0  0.19413  0.27131  0.34565  1.0000
  H   H127      1.0  0.29038  0.58280  0.23561  1.0000
  H   H128      1.0  0.23131  0.20883  0.40834  1.0000
  S   S21       1.0  0.45861  0.44119  0.17248  1.0000
  H   H129      1.0  0.10670  0.45763  0.31221  1.0000
  H   H130      1.0  0.09664  0.38637  0.26200  1.0000
  H   H131      1.0  0.12501  0.18903  0.37552  1.0000
  H   H132      1.0  0.33421  0.32438  0.34572  1.0000
  C   C71       1.0  0.22383  0.38014  0.34088  1.0000
  H   H133      1.0  0.44731  0.46902  0.27901  1.0000
  H   H134      1.0  0.41469  0.22401  0.28317  1.0000
  H   H135      1.0  0.10602  0.34232  0.37205  1.0000
  C   C72       1.0  0.29168  0.37851  0.35688  1.0000
  C   C73       1.0  0.42818  0.39294  0.29103  1.0000
  H   H136      1.0  0.01618  0.45177  0.27701  1.0000
  H   H137      1.0  0.04951  0.36760  0.32962  1.0000
  H   H138      1.0  0.29108  0.34366  0.38150  1.0000
  C   C74       1.0  0.14875  0.26723  0.37386  1.0000
  C   C75       1.0  0.18185  0.26813  0.40519  1.0000
  C   C76       1.0  0.46431  0.14714  0.22296  1.0000
  H   H139      1.0  0.35904  0.49914  0.36208  1.0000
  H   H140      1.0  0.28218  0.15980  0.36779  1.0000
  H   H141      1.0  0.38991  0.12977  0.17432  1.0000
  H   H142      1.0  0.03801  0.29676  0.27977  1.0000
  H   H143      1.0  0.41474  0.14923  0.23539  1.0000
  C   C77       1.0  0.05859  0.37666  0.28076  1.0000
  C   C78       1.0  0.24749  0.16294  0.34850  1.0000
  H   H144      1.0  0.05982  0.57802  0.22712  1.0000
  C   C79       1.0  0.30673  0.50102  0.35444  1.0000
  C   C80       1.0  0.09027  0.37371  0.31206  1.0000
  H   H145      1.0  0.09032  0.13759  0.20872  1.0000
  H   H146      1.0  0.01540  0.17656  0.34253  1.0000
  C   C81       1.0  0.29162  0.14212  0.31943  1.0000
  H   H147      1.0  0.46092  0.45040  0.40090  1.0000
  C   C82       1.0  0.44679  0.36626  0.41024  1.0000
  H   H148      1.0  0.00694  0.61371  0.19337  1.0000
  C   C83       1.0  0.41103  0.37327  0.44144  1.0000
  H   H149      1.0  0.45175  0.52215  0.63591  1.0000
  Fe  Fe9       1.0  0.04972  0.46642  0.55304  1.0000
  H   H150      1.0  0.29561  0.31112  0.59513  1.0000
  C   C84       1.0  0.01058  0.40442  0.48450  1.0000
  N   N5        1.0  0.33425  0.52332  0.47155  1.0000
  C   C85       1.0  0.25571  0.58270  0.63470  1.0000
  H   H151      1.0  0.45857  0.54645  0.54033  1.0000
  H   H152      1.0  0.39234  0.57060  0.58646  1.0000
  C   C86       1.0  0.25464  0.37888  0.49067  1.0000
  H   H153      1.0  0.15639  0.24554  0.45399  1.0000
  C   C87       1.0  0.35231  0.47994  0.44095  1.0000
  Fe  Fe10      1.0  0.14444  0.60002  0.57745  1.0000
  C   C88       1.0  0.29271  0.58990  0.60710  1.0000
  H   H154      1.0  0.20176  0.24272  0.51080  1.0000
  H   H155      1.0  0.42759  0.27537  0.55203  1.0000
  Fe  Fe11      1.0  0.04465  0.50102  0.62044  1.0000
  H   H156      1.0  0.20855  0.44414  0.49409  1.0000
  H   H157      1.0  0.36250  0.35648  0.49877  1.0000
  H   H158      1.0  0.25280  0.32872  0.63174  1.0000
  C   C89       1.0  0.25004  0.27285  0.51393  1.0000
  H   H159      1.0  0.36517  0.55214  0.42411  1.0000
  C   C90       1.0  0.39616  0.56339  0.48198  1.0000
  C   C91       1.0  0.36063  0.54238  0.66344  1.0000
  H   H160      1.0  0.45105  0.37262  0.45809  1.0000
  C   C92       1.0  0.29641  0.27871  0.62010  1.0000
  H   H161      1.0  0.30851  0.45441  0.43078  1.0000
  H   H162      1.0  0.20369  0.53735  0.44639  1.0000
  H   H163      1.0  0.38996  0.29310  0.44799  1.0000
  H   H164      1.0  0.34381  0.29426  0.62971  1.0000
  C   C93       1.0  0.31853  0.42889  0.49581  1.0000
  S   S22       1.0  0.12685  0.41901  0.59039  1.0000
  C   C94       1.0  0.45051  0.18786  0.56099  1.0000
  C   C95       1.0  0.05049  0.46945  0.46515  1.0000
  C   C96       1.0  0.36352  0.56806  0.60768  1.0000
  H   H165      1.0  0.25488  0.35244  0.46740  1.0000
  C   C97       1.0  0.39729  0.54241  0.63578  1.0000
  S   S23       1.0  0.03890  0.33886  0.52113  1.0000
  H   H166      1.0  0.08391  0.27997  0.42909  1.0000
  H   H167      1.0  0.20098  0.59796  0.63447  1.0000
  H   H168      1.0  0.29314  0.20201  0.51042  1.0000
  H   H169      1.0  0.99649  0.17027  0.45094  1.0000
  H   H170      1.0  0.43539  0.48806  0.49081  1.0000
  H   H171      1.0  0.09673  0.48705  0.47370  1.0000
  H   H172      1.0  0.31150  0.45992  0.51872  1.0000
  H   H173      1.0  0.25083  0.29415  0.53778  1.0000
  C   C98       1.0  0.28968  0.55959  0.66282  1.0000
  H   H174      1.0  0.45140  0.22539  0.60747  1.0000
  H   H175      1.0  0.21767  0.17581  0.58996  1.0000
  C   C99       1.0  0.03227  0.50602  0.43425  1.0000
  C   C100      1.0  0.13639  0.23063  0.43191  1.0000
  S   S24       1.0  0.01584  0.41988  0.66671  1.0000
  H   H176      1.0  0.18627  0.16884  0.62815  1.0000
  H   H177      1.0  0.06444  0.55234  0.41904  1.0000
  C   C101      1.0  0.29383  0.14958  0.62541  1.0000
  S   S25       1.0  0.25119  0.62843  0.57187  1.0000
  H   H178      1.0  0.13474  0.13730  0.43303  1.0000
  C   C102      1.0  0.46375  0.15950  0.59243  1.0000
  S   S26       1.0  0.44752  0.14307  0.50207  1.0000
  C   C103      1.0  0.27574  0.62501  0.46823  1.0000
  C   C104      1.0  0.21841  0.62269  0.44552  1.0000
  H   H179      1.0  0.08675  0.13007  0.62399  1.0000
  H   H180      1.0  0.34283  0.62397  0.52345  1.0000
  H   H181      1.0  0.42082  0.61069  0.46231  1.0000
  S   S27       1.0  0.07942  0.57787  0.87162  1.0000
  H   H182      1.0  0.35025  0.19432  0.75400  1.0000
  C   C105      1.0  0.11040  0.14541  0.70689  1.0000
  H   H183      1.0  0.41800  0.26764  0.71049  1.0000
  H   H184      1.0  0.37661  0.36227  0.90117  1.0000
  H   H185      1.0  0.16333  0.46542  0.70991  1.0000
  H   H186      1.0  0.22412  0.20690  0.90043  1.0000
  H   H187      1.0  0.31599  0.30561  0.88127  1.0000
  H   H188      1.0  0.03768  0.16584  0.87566  1.0000
  H   H189      1.0  0.40011  0.55826  0.85648  1.0000
  H   H190      1.0  0.26257  0.23505  0.78589  1.0000
  C   C106      1.0  0.32768  0.20748  0.73078  1.0000
  H   H191      1.0  0.11795  0.45429  0.74492  1.0000
  H   H192      1.0  0.08739  0.26840  0.88530  1.0000
  H   H193      1.0  0.12439  0.25930  0.75322  1.0000
  H   H194      1.0  0.27077  0.38223  0.78123  1.0000
  H   H195      1.0  0.02478  0.43065  0.84265  1.0000
  H   H196      1.0  0.45605  0.58171  0.77471  1.0000
  C   C107      1.0  0.23449  0.32401  0.77834  1.0000
  H   H197      1.0  0.17642  0.39849  0.90112  1.0000
  H   H198      1.0  0.14097  0.30917  0.69409  1.0000
  H   H199      1.0  0.26067  0.55951  0.68385  1.0000
  C   C108      1.0  0.38730  0.38476  0.85114  1.0000
  H   H200      1.0  0.22997  0.41092  0.83524  1.0000
  H   H201      1.0  0.30769  0.39186  0.72917  1.0000
  C   C109      1.0  0.16143  0.22578  0.70790  1.0000
  C   C110      1.0  0.34404  0.37803  0.88052  1.0000
  H   H202      1.0  0.14212  0.28012  0.80219  1.0000
  H   H203      1.0  0.35310  0.40385  0.83109  1.0000
  H   H204      1.0  0.40340  0.48004  0.78644  1.0000
  H   H205      1.0  0.99619  0.31033  0.83254  1.0000
  C   C111      1.0  0.43248  0.47745  0.85087  1.0000
  H   H206      1.0  0.03075  0.44123  0.78561  1.0000
  H   H207      1.0  0.19809  0.55838  0.76894  1.0000
  C   C112      1.0  0.17478  0.24210  0.74148  1.0000
  C   C113      1.0  0.38614  0.20301  0.70734  1.0000
  C   C114      1.0  0.42601  0.54896  0.79475  1.0000
  C   C115      1.0  0.20169  0.33977  0.83404  1.0000
  H   H208      1.0  0.14285  0.43204  0.79622  1.0000
  N   N6        1.0  0.47230  0.50069  0.82166  1.0000
  H   H209      1.0  0.32523  0.61157  0.81394  1.0000
  S   S28       1.0  0.40294  0.52927  0.69847  1.0000
  C   C116      1.0  0.17501  0.34578  0.80171  1.0000
  C   C117      1.0  0.09634  0.53631  0.91090  1.0000
  C   C118      1.0  0.27787  0.32508  0.72539  1.0000
  H   H210      1.0  0.46728  0.44754  0.87070  1.0000
  N   N7        1.0  0.21440  0.33567  0.74516  1.0000
  H   H211      1.0  0.41937  0.29800  0.85059  1.0000
  H   H212      1.0  0.20901  0.18744  0.69652  1.0000
  H   H213      1.0  0.23500  0.25499  0.84098  1.0000
  H   H214      1.0  0.30670  0.45943  0.88121  1.0000
  C   C119      1.0  0.03845  0.23784  0.88920  1.0000
  H   H215      1.0  0.15827  0.35047  0.85036  1.0000
  C   C120      1.0  0.19564  0.55916  0.74375  1.0000
  H   H216      1.0  0.24712  0.56303  0.73431  1.0000
  C   C121      1.0  0.17015  0.45166  0.73529  1.0000
  H   H217      1.0  0.26465  0.34334  0.70057  1.0000
  H   H218      1.0  0.48238  0.33042  0.80780  1.0000
  H   H219      1.0  0.20034  0.15697  0.75330  1.0000
  H   H220      1.0  0.36667  0.22014  0.68352  1.0000
  H   H221      1.0  0.00052  0.47188  0.73130  1.0000
  H   H222      1.0  0.06089  0.18216  0.71714  1.0000
  H   H223      1.0  0.03409  0.20586  0.91398  1.0000
  H   H224      1.0  0.10132  0.13616  0.68265  1.0000
  H   H225      1.0  0.30213  0.13382  0.72876  1.0000
  H   H226      1.0  0.21004  0.20543  0.08911  1.0000
  C   C122      1.0  0.28895  0.56009  0.96359  1.0000
  C   C123      1.0  0.44142  0.31128  0.08823  1.0000
  C   C124      1.0  0.47993  0.19078  0.10193  1.0000
  H   H227      1.0  0.47565  0.31977  0.02891  1.0000
  H   H228      1.0  0.46016  0.17920  0.04132  1.0000
  H   H229      1.0  0.04320  0.59019  0.98316  1.0000
  H   H230      1.0  0.27155  0.51713  0.98571  1.0000
  H   H231      1.0  0.36625  0.14406  0.07292  1.0000
  C   C125      1.0  0.35657  0.43636  0.05445  1.0000
  C   C126      1.0  0.12312  0.45109  0.97300  1.0000
  H   H232      1.0  0.22247  0.19293  0.12995  1.0000
  C   C127      1.0  0.32741  0.48285  0.15229  1.0000
  S   S29       1.0  0.14292  0.39439  0.01131  1.0000
  H   H233      1.0  0.40745  0.24260  0.95836  1.0000
  C   C128      1.0  0.27066  0.55102  0.13681  1.0000
  C   C129      1.0  0.16019  0.39709  0.94976  1.0000
  Fe  Fe12      1.0  0.09200  0.50082  0.04683  1.0000
  C   C130      1.0  0.38888  0.52324  0.15176  1.0000
  C   C131      1.0  0.14692  0.43977  0.91892  1.0000
  H   H234      1.0  0.35649  0.35207  0.00032  1.0000
  H   H235      1.0  0.19982  0.32265  0.95562  1.0000
  H   H236      1.0  0.30283  0.24998  0.05345  1.0000
  H   H237      1.0  0.36195  0.19960  0.01011  1.0000
  C   C132      1.0  0.34209  0.23690  0.07157  1.0000
  H   H238      1.0  0.31034  0.44016  0.04072  1.0000
  H   H239      1.0  0.33805  0.23200  0.12207  1.0000
  Fe  Fe13      1.0  0.02889  0.48530  0.11131  1.0000
  C   C133      1.0  0.39221  0.26979  0.00620  1.0000
  H   H240      1.0  0.41409  0.35373  0.10740  1.0000
  H   H241      1.0  0.27831  0.34685  0.10199  1.0000
  H   H242      1.0  0.44456  0.13156  0.11013  1.0000
  H   H243      1.0  0.44958  0.51355  0.04705  1.0000
  H   H244      1.0  0.29272  0.49962  0.94614  1.0000
  C   C134      1.0  0.07226  0.54854  0.96523  1.0000
  S   S30       1.0  0.13657  0.46476  0.09381  1.0000
  C   C135      1.0  0.39911  0.52155  0.03675  1.0000
  H   H245      1.0  0.22263  0.52178  0.13840  1.0000
  H   H246      1.0  0.33655  0.47299  0.07576  1.0000
  S   S31       1.0  0.00324  0.34980  0.14890  1.0000
  C   C136      1.0  0.43847  0.24928  0.97827  1.0000
  C   C137      1.0  0.05875  0.59119  0.93404  1.0000
  C   C138      1.0  0.30331  0.25545  0.10221  1.0000
  H   H247      1.0  0.40722  0.50450  0.01254  1.0000
  H   H248      1.0  0.47593  0.16754  0.98305  1.0000
  H   H249      1.0  0.46576  0.32245  0.97203  1.0000
  C   C139      1.0  0.24857  0.18062  0.10757  1.0000
  H   H250      1.0  0.48099  0.36347  0.08058  1.0000
  C   C140      1.0  0.43406  0.27027  0.03523  1.0000
  N   N8        1.0  0.39357  0.31338  0.06233  1.0000
  H   H251      1.0  0.34007  0.58070  0.96622  1.0000
  H   H252      1.0  0.48830  0.22562  0.14873  1.0000
  H   H253      1.0  0.32305  0.40065  0.16545  1.0000
  H   H254      1.0  0.22341  0.12941  0.01682  1.0000
  H   H255      1.0  0.83155  0.91812  0.35403  1.0000
  H   H256      1.0  0.51432  0.04605  0.18731  1.0000
  H   H257      1.0  0.59215  0.10023  0.30203  1.0000
  H   H258      1.0  0.71700  0.07342  0.20900  1.0000
  C   C141      1.0  0.73699  0.03076  0.36245  1.0000
  C   C142      1.0  0.98211  0.12798  0.38898  1.0000
  Fe  Fe14      1.0  0.96492  0.88049  0.31708  1.0000
  S   S32       1.0  0.97038  0.83515  0.36788  1.0000
  S   S33       1.0  0.60980  0.86073  0.40892  1.0000
  H   H259      1.0  0.66075  0.05854  0.26267  1.0000
  H   H260      1.0  0.59719  0.05713  0.21710  1.0000
  C   C143      1.0  0.54357  0.06862  0.30287  1.0000
  H   H261      1.0  0.51320  0.67101  0.33406  1.0000
  H   H262      1.0  0.50485  0.91880  0.32632  1.0000
  H   H263      1.0  0.70703  0.69316  0.36144  1.0000
  C   C144      1.0  0.73877  0.77551  0.29543  1.0000
  H   H264      1.0  0.98585  0.00029  0.19408  1.0000
  H   H265      1.0  0.68608  0.79965  0.28673  1.0000
  H   H266      1.0  0.83775  0.80872  0.27814  1.0000
  Fe  Fe15      1.0  0.59028  0.76468  0.17349  1.0000
  H   H267      1.0  0.59539  0.89434  0.31841  1.0000
  C   C145      1.0  0.79630  0.99500  0.34540  1.0000
  H   H268      1.0  0.56092  0.97663  0.34863  1.0000
  Fe  Fe16      1.0  0.52284  0.72316  0.23510  1.0000
  H   H269      1.0  0.97165  0.81484  0.20609  1.0000
  H   H270      1.0  0.87592  0.12604  0.39645  1.0000
  H   H271      1.0  0.55535  0.97044  0.26392  1.0000
  H   H272      1.0  0.77899  0.79961  0.24860  1.0000
  H   H273      1.0  0.63258  0.69823  0.32087  1.0000
  S   S34       1.0  0.62710  0.75866  0.22146  1.0000
  Fe  Fe17      1.0  0.58607  0.05178  0.40941  1.0000
  S   S35       1.0  0.88252  0.01840  0.29485  1.0000
  C   C146      1.0  0.55148  0.95734  0.32532  1.0000
  C   C147      1.0  0.76170  0.64245  0.30055  1.0000
  H   H274      1.0  0.72765  0.98256  0.38441  1.0000
  H   H275      1.0  0.74164  0.81334  0.31701  1.0000
  H   H276      1.0  0.76800  0.92544  0.26834  1.0000
  C   C148      1.0  0.52192  0.04951  0.27059  1.0000
  H   H277      1.0  0.79443  0.64412  0.35502  1.0000
  C   C149      1.0  0.78371  0.83024  0.27110  1.0000
  C   C150      1.0  0.80882  0.05795  0.31702  1.0000
  S   S36       1.0  0.98698  0.69651  0.30752  1.0000
  H   H278      1.0  0.75988  0.11884  0.23906  1.0000
  H   H279      1.0  0.89082  0.93982  0.41646  1.0000
  H   H280      1.0  0.87291  0.87756  0.47471  1.0000
  N   N9        1.0  0.92413  0.06653  0.44060  1.0000
  H   H281      1.0  0.97933  0.06574  0.61697  1.0000
  H   H282      1.0  0.70620  0.03936  0.64809  1.0000
  C   C151      1.0  0.74336  0.06102  0.66342  1.0000
  C   C152      1.0  0.74894  0.86619  0.51320  1.0000
  C   C153      1.0  0.92839  0.94383  0.43416  1.0000
  H   H283      1.0  0.70194  0.92425  0.50702  1.0000
  C   C154      1.0  0.85786  0.82525  0.53869  1.0000
  H   H284      1.0  0.78764  0.98638  0.53754  1.0000
  H   H285      1.0  0.87144  0.83597  0.64494  1.0000
  S   S37       1.0  0.51965  0.83982  0.47344  1.0000
  H   H286      1.0  0.96032  0.12337  0.50198  1.0000
  H   H287      1.0  0.85663  0.98429  0.62729  1.0000
  H   H288      1.0  0.58829  0.74056  0.55638  1.0000
  S   S38       1.0  0.50399  0.01463  0.64452  1.0000
  S   S39       1.0  0.61410  0.04332  0.45869  1.0000
  H   H289      1.0  0.71470  0.01092  0.58030  1.0000
  H   H290      1.0  0.96456  0.83162  0.47625  1.0000
  C   C155      1.0  0.91943  0.85105  0.46130  1.0000
  C   C156      1.0  0.79202  0.10527  0.44656  1.0000
  Fe  Fe18      1.0  0.54376  0.83049  0.66407  1.0000
  C   C157      1.0  0.87076  0.71609  0.52897  1.0000
  H   H291      1.0  0.95209  0.71834  0.43136  1.0000
  H   H292      1.0  0.79349  0.03666  0.43170  1.0000
  Fe  Fe19      1.0  0.50494  0.03253  0.46872  1.0000
  H   H293      1.0  0.76712  0.12850  0.64928  1.0000
  C   C158      1.0  0.66226  0.05926  0.58277  1.0000
  H   H294      1.0  0.79379  0.89449  0.62459  1.0000
  S   S40       1.0  0.91936  0.86602  0.55995  1.0000
  S   S41       1.0  0.70778  0.71159  0.47986  1.0000
  C   C159      1.0  0.83193  0.91484  0.63974  1.0000
  H   H295      1.0  0.52999  0.87400  0.59403  1.0000
  H   H296      1.0  0.97221  0.97221  0.50029  1.0000
  H   H297      1.0  0.86486  0.05671  0.48288  1.0000
  C   C160      1.0  0.82232  0.68007  0.51247  1.0000
  S   S42       1.0  0.53037  0.67598  0.64292  1.0000
  H   H298      1.0  0.86205  0.74460  0.43984  1.0000
  C   C161      1.0  0.49668  0.99074  0.55302  1.0000
  H   H299      1.0  0.75842  0.08345  0.46636  1.0000
  H   H300      1.0  0.91949  0.66102  0.53267  1.0000
  H   H301      1.0  0.62983  0.03773  0.56524  1.0000
  C   C162      1.0  0.86274  0.10813  0.45975  1.0000
  H   H302      1.0  0.97903  0.91190  0.42423  1.0000
  H   H303      1.0  0.64238  0.02945  0.60576  1.0000
  C   C163      1.0  0.79699  0.90102  0.53066  1.0000
  H   H304      1.0  0.50953  0.92552  0.53778  1.0000
  C   C164      1.0  0.91334  0.73825  0.44944  1.0000
  Fe  Fe20      1.0  0.62648  0.85160  0.45927  1.0000
  C   C165      1.0  0.76226  0.75581  0.50392  1.0000
  H   H305      1.0  0.92181  0.66539  0.46835  1.0000
  C   C166      1.0  0.59470  0.64906  0.56704  1.0000
  C   C167      1.0  0.50788  0.96141  0.58486  1.0000
  H   H306      1.0  0.49192  0.64428  0.51142  1.0000
  C   C168      1.0  0.98835  0.07941  0.45589  1.0000
  H   H307      1.0  0.62308  0.64072  0.58865  1.0000
  C   C169      1.0  0.49133  0.04608  0.60459  1.0000
  Fe  Fe21      1.0  0.50136  0.86417  0.42289  1.0000
  H   H308      1.0  0.71112  0.64592  0.41792  1.0000
  Fe  Fe22      1.0  0.97759  0.89179  0.79124  1.0000
  C   C170      1.0  0.73201  0.74143  0.76136  1.0000
  H   H309      1.0  0.83558  0.74407  0.88104  1.0000
  C   C171      1.0  0.85515  0.82244  0.75258  1.0000
  H   H310      1.0  0.71615  0.83757  0.80006  1.0000
  H   H311      1.0  0.63234  0.99861  0.68935  1.0000
  Fe  Fe23      1.0  0.61053  0.68625  0.72088  1.0000
  C   C172      1.0  0.74993  0.81312  0.78130  1.0000
  H   H312      1.0  0.86935  0.73080  0.71326  1.0000
  Fe  Fe24      1.0  0.95279  0.99866  0.84931  1.0000
  C   C173      1.0  0.81150  0.85391  0.77686  1.0000
  H   H313      1.0  0.67545  0.95339  0.86233  1.0000
  C   C174      1.0  0.77517  0.71165  0.73688  1.0000
  S   S43       1.0  0.93342  0.86840  0.74698  1.0000
  Fe  Fe25      1.0  0.54783  0.97492  0.91322  1.0000
  C   C175      1.0  0.79650  0.69672  0.87468  1.0000
  H   H314      1.0  0.60769  0.71382  0.84082  1.0000
  C   C176      1.0  0.66546  0.02153  0.70646  1.0000
  H   H315      1.0  0.83949  0.96462  0.68441  1.0000
  H   H316      1.0  0.82849  0.68826  0.82759  1.0000
  C   C177      1.0  0.75671  0.12447  0.71441  1.0000
  H   H317      1.0  0.65362  0.04277  0.75537  1.0000
  S   S44       1.0  0.65515  0.69108  0.76664  1.0000
  C   C178      1.0  0.76503  0.03101  0.86243  1.0000
  H   H318      1.0  0.78614  0.04008  0.72480  1.0000
  H   H319      1.0  0.74989  0.76021  0.86766  1.0000
  C   C179      1.0  0.62167  0.06021  0.73447  1.0000
  H   H320      1.0  0.82464  0.91075  0.79199  1.0000
  H   H321      1.0  0.78378  0.63877  0.89526  1.0000
  H   H322      1.0  0.77579  0.87792  0.68095  1.0000
  H   H323      1.0  0.79971  0.95438  0.85754  1.0000
  C   C180      1.0  0.69486  0.03013  0.86539  1.0000
  S   S45       1.0  0.56350  0.12836  0.87984  1.0000
  C   C181      1.0  0.56225  0.99649  0.74070  1.0000
  H   H324      1.0  0.69866  0.93854  0.71514  1.0000
  S   S46       1.0  0.87750  0.12486  0.87257  1.0000
  H   H325      1.0  0.52898  0.01259  0.72032  1.0000
  H   H326      1.0  0.53189  0.02663  0.76068  1.0000
  S   S47       1.0  0.93199  0.83293  0.83646  1.0000
  S   S48       1.0  0.57442  0.79371  0.90204  1.0000
  C   C182      1.0  0.83624  0.75316  0.73237  1.0000
  N   N10       1.0  0.70719  0.10707  0.69123  1.0000
  H   H327      1.0  0.58096  0.90269  0.74595  1.0000
  H   H328      1.0  0.88622  0.12869  0.73584  1.0000
  C   C183      1.0  0.79021  0.12833  0.86821  1.0000
  H   H329      1.0  0.76189  0.65544  0.72161  1.0000
  S   S49       1.0  0.65276  0.76151  0.67632  1.0000
  S   S50       1.0  0.50258  0.76855  0.71023  1.0000
  C   C184      1.0  0.65010  0.12836  0.87278  1.0000
  H   H330      1.0  0.85216  0.94438  0.91742  1.0000
  C   C185      1.0  0.79865  0.95095  0.66970  1.0000
  H   H331      1.0  0.92311  0.01878  0.11386  1.0000
  H   H332      1.0  0.74541  0.05296  0.01214  1.0000
  H   H333      1.0  0.76800  0.93532  0.97666  1.0000
  H   H334      1.0  0.70558  0.63386  0.06381  1.0000
  S   S51       1.0  0.89057  0.82019  0.04698  1.0000
  H   H335      1.0  0.66693  0.09725  0.99291  1.0000
  H   H336      1.0  0.98530  0.87195  0.15272  1.0000
  H   H337      1.0  0.97628  0.88884  0.97170  1.0000
  Fe  Fe26      1.0  0.98263  0.69291  0.06425  1.0000
  S   S52       1.0  0.59493  0.93429  0.95994  1.0000
  H   H338      1.0  0.67492  0.77577  0.00667  1.0000
  S   S53       1.0  0.51274  0.71443  0.97036  1.0000
  C   C186      1.0  0.76549  0.65617  0.11930  1.0000
  C   C187      1.0  0.59819  0.88971  0.07341  1.0000
  H   H339      1.0  0.57988  0.90761  0.02493  1.0000
  C   C188      1.0  0.80286  0.75647  0.12045  1.0000
  H   H340      1.0  0.85782  0.72544  0.12469  1.0000
  Fe  Fe27      1.0  0.61241  0.74954  0.95044  1.0000
  H   H341      1.0  0.60101  0.12807  0.04047  1.0000
  C   C189      1.0  0.81770  0.90657  0.93442  1.0000
  C   C190      1.0  0.56894  0.88919  0.10275  1.0000
  H   H342      1.0  0.55507  0.11675  0.13685  1.0000
  H   H343      1.0  0.92460  0.64438  0.00622  1.0000
  C   C191      1.0  0.72919  0.74668  0.00661  1.0000
  H   H344      1.0  0.79639  0.81521  0.09844  1.0000
  H   H345      1.0  0.71364  0.69487  0.11118  1.0000
  C   C192      1.0  0.49862  0.89817  0.10639  1.0000
  S   S54       1.0  0.62028  0.88582  0.13434  1.0000
  H   H346      1.0  0.71152  0.08889  0.94026  1.0000
  C   C193      1.0  0.76010  0.10218  0.94936  1.0000
  H   H347      1.0  0.78087  0.80685  0.13913  1.0000
  C   C194      1.0  0.87004  0.67152  0.00680  1.0000
  H   H348      1.0  0.95544  0.00677  0.94101  1.0000
  C   C195      1.0  0.76999  0.79097  0.02554  1.0000
  H   H349      1.0  0.89892  0.05231  0.15207  1.0000
  H   H350      1.0  0.59782  0.65414  0.03288  1.0000
  H   H351      1.0  0.74725  0.85504  0.03991  1.0000
  C   C196      1.0  0.80041  0.98031  0.96051  1.0000
  H   H352      1.0  0.65259  0.88014  0.07079  1.0000
  C   C197      1.0  0.55711  0.90428  0.04755  1.0000
  C   C198      1.0  0.84050  0.75603  0.02501  1.0000
  C   C199      1.0  0.94121  0.04543  0.13493  1.0000
  C   C200      1.0  0.75878  0.66645  0.98730  1.0000
  H   H353      1.0  0.84812  0.98357  0.97203  1.0000
  H   H354      1.0  0.84425  0.81887  0.94375  1.0000
  H   H355      1.0  0.67749  0.07071  0.06264  1.0000
  Fe  Fe28      1.0  0.49175  0.90171  0.97632  1.0000
  H   H356      1.0  0.77074  0.89789  0.92296  1.0000
  H   H357      1.0  0.75400  0.61047  0.27846  1.0000
  C   C201      1.0  0.93348  0.38259  0.17388  1.0000
  H   H358      1.0  0.49443  0.30101  0.41287  1.0000
  C   C202      1.0  0.83089  0.40833  0.32816  1.0000
  H   H359      1.0  0.80766  0.60116  0.19168  1.0000
  S   S55       1.0  0.55464  0.53234  0.23791  1.0000
  H   H360      1.0  0.50943  0.33353  0.23692  1.0000
  H   H361      1.0  0.92226  0.35546  0.30194  1.0000
  C   C203      1.0  0.70265  0.19093  0.32267  1.0000
  H   H362      1.0  0.58298  0.21044  0.20771  1.0000
  C   C204      1.0  0.83727  0.51492  0.19224  1.0000
  H   H363      1.0  0.50010  0.53079  0.35144  1.0000
  H   H364      1.0  0.64176  0.58417  0.29777  1.0000
  C   C205      1.0  0.96898  0.19394  0.35695  1.0000
  Fe  Fe29      1.0  0.65476  0.56811  0.21899  1.0000
  S   S56       1.0  0.61668  0.18031  0.37173  1.0000
  S   S57       1.0  0.95217  0.51307  0.38399  1.0000
  H   H365      1.0  0.73573  0.42555  0.30361  1.0000
  H   H366      1.0  0.62061  0.44957  0.34710  1.0000
  N   N11       1.0  0.72777  0.57730  0.32674  1.0000
  H   H367      1.0  0.84805  0.24544  0.23162  1.0000
  Fe  Fe30      1.0  0.52174  0.55774  0.18893  1.0000
  H   H368      1.0  0.72918  0.39687  0.34360  1.0000
  H   H369      1.0  0.64535  0.21471  0.25845  1.0000
  C   C206      1.0  0.60630  0.54501  0.34465  1.0000
  H   H370      1.0  0.79386  0.45474  0.38468  1.0000
  N   N12       1.0  0.51996  0.14924  0.24508  1.0000
  H   H371      1.0  0.54221  0.27402  0.27354  1.0000
  C   C207      1.0  0.86736  0.38598  0.29772  1.0000
  H   H372      1.0  0.77880  0.23959  0.40627  1.0000
  H   H373      1.0  0.92764  0.16438  0.34578  1.0000
  C   C208      1.0  0.58633  0.13931  0.22734  1.0000
  S   S58       1.0  0.74793  0.44622  0.23750  1.0000
  H   H374      1.0  0.66642  0.26641  0.31362  1.0000
  H   H375      1.0  0.86134  0.46496  0.28072  1.0000
  H   H376      1.0  0.83918  0.32538  0.34373  1.0000
  H   H377      1.0  0.84823  0.31777  0.28767  1.0000
  H   H378      1.0  0.70356  0.48224  0.38888  1.0000
  C   C209      1.0  0.86021  0.31486  0.21497  1.0000
  H   H379      1.0  0.71136  0.22629  0.21197  1.0000
  C   C210      1.0  0.74872  0.52393  0.38586  1.0000
  C   C211      1.0  0.76126  0.15495  0.30567  1.0000
  H   H380      1.0  0.94711  0.20824  0.19696  1.0000
  H   H381      1.0  0.85587  0.46852  0.33890  1.0000
  H   H382      1.0  0.76980  0.20339  0.28367  1.0000
  C   C212      1.0  0.75286  0.45043  0.32519  1.0000
  H   H383      1.0  0.95591  0.28804  0.35830  1.0000
  C   C213      1.0  0.91655  0.29377  0.19535  1.0000
  C   C214      1.0  0.81937  0.42463  0.21298  1.0000
  C   C215      1.0  0.50460  0.26562  0.25645  1.0000
  C   C216      1.0  0.65057  0.13844  0.24599  1.0000
  C   C217      1.0  0.89455  0.49393  0.17274  1.0000
  H   H384      1.0  0.50484  0.13316  0.31286  1.0000
  C   C218      1.0  0.71319  0.13911  0.22505  1.0000
  C   C219      1.0  0.69042  0.12961  0.35111  1.0000
  H   H385      1.0  0.52611  0.55121  0.31170  1.0000
  C   C220      1.0  0.53202  0.57656  0.33474  1.0000
  S   S59       1.0  0.62443  0.57664  0.17023  1.0000
  H   H386      1.0  0.90565  0.23547  0.41319  1.0000
  C   C221      1.0  0.75623  0.57868  0.41473  1.0000
  H   H387      1.0  0.96885  0.61751  0.23114  1.0000
  H   H388      1.0  0.60852  0.57522  0.36736  1.0000
  C   C222      1.0  0.91816  0.14276  0.40995  1.0000
  C   C223      1.0  0.65223  0.60466  0.32101  1.0000
  H   H389      1.0  0.81756  0.62658  0.30398  1.0000
  C   C224      1.0  0.74438  0.61522  0.35670  1.0000
  H   H390      1.0  0.80254  0.61816  0.41309  1.0000
  H   H391      1.0  0.69882  0.47701  0.49811  1.0000
  C   C225      1.0  0.61008  0.40476  0.48872  1.0000
  C   C226      1.0  0.83888  0.36731  0.63597  1.0000
  H   H392      1.0  0.69152  0.27571  0.66426  1.0000
  C   C227      1.0  0.55845  0.33258  0.65017  1.0000
  C   C228      1.0  0.79252  0.46137  0.64454  1.0000
  C   C229      1.0  0.90707  0.34971  0.64460  1.0000
  H   H393      1.0  0.61294  0.60020  0.52187  1.0000
  H   H394      1.0  0.76045  0.29360  0.44269  1.0000
  H   H395      1.0  0.76965  0.44018  0.53999  1.0000
  H   H396      1.0  0.76067  0.51223  0.43528  1.0000
  C   C230      1.0  0.80903  0.25794  0.54188  1.0000
  H   H397      1.0  0.91921  0.33304  0.48838  1.0000
  S   S60       1.0  0.96508  0.53061  0.58457  1.0000
  H   H398      1.0  0.86369  0.19723  0.46474  1.0000
  H   H399      1.0  0.64083  0.42380  0.58021  1.0000
  H   H400      1.0  0.81257  0.25403  0.51679  1.0000
  H   H401      1.0  0.71640  0.33111  0.49235  1.0000
  H   H402      1.0  0.79928  0.17382  0.55371  1.0000
  H   H403      1.0  0.59078  0.37865  0.63380  1.0000
  H   H404      1.0  0.61482  0.23181  0.59021  1.0000
  H   H405      1.0  0.83328  0.59549  0.50488  1.0000
  H   H406      1.0  0.82199  0.30839  0.62259  1.0000
  H   H407      1.0  0.61138  0.24206  0.53656  1.0000
  C   C231      1.0  0.75245  0.35855  0.54960  1.0000
  C   C232      1.0  0.87821  0.27280  0.55264  1.0000
  C   C233      1.0  0.95068  0.38155  0.47342  1.0000
  H   H408      1.0  0.60898  0.16177  0.64438  1.0000
  C   C234      1.0  0.66336  0.24034  0.54496  1.0000
  C   C235      1.0  0.81388  0.53571  0.66267  1.0000
  S   S61       1.0  0.70842  0.48456  0.63205  1.0000
  C   C236      1.0  0.75703  0.22156  0.42956  1.0000
  H   H409      1.0  0.94334  0.27962  0.63685  1.0000
  H   H410      1.0  0.70247  0.21954  0.42659  1.0000
  H   H411      1.0  0.68761  0.58775  0.54437  1.0000
  C   C237      1.0  0.92885  0.42602  0.66202  1.0000
  H   H412      1.0  0.75258  0.35882  0.57495  1.0000
  H   H413      1.0  0.55802  0.47580  0.44589  1.0000
  H   H414      1.0  0.89062  0.35712  0.54222  1.0000
  H   H415      1.0  0.57911  0.42978  0.55242  1.0000
  H   H416      1.0  0.70588  0.20313  0.59212  1.0000
  H   H417      1.0  0.69710  0.17812  0.53175  1.0000
  C   C238      1.0  0.60837  0.47087  0.45628  1.0000
  C   C239      1.0  0.68015  0.39424  0.50410  1.0000
  N   N13       1.0  0.68189  0.35852  0.53844  1.0000
  H   H418      1.0  0.87898  0.26819  0.57797  1.0000
  C   C240      1.0  0.66208  0.18927  0.57931  1.0000
  C   C241      1.0  0.93174  0.41998  0.44289  1.0000
  H   H419      1.0  0.56794  0.45040  0.50194  1.0000
  H   H420      1.0  0.88489  0.40331  0.43464  1.0000
  C   C242      1.0  0.97339  0.47914  0.42300  1.0000
  H   H421      1.0  0.61651  0.56051  0.45694  1.0000
  C   C243      1.0  0.63481  0.57178  0.54509  1.0000
  H   H422      1.0  0.64790  0.42653  0.44144  1.0000
  C   C244      1.0  0.63220  0.44213  0.55497  1.0000
  Fe  Fe31      1.0  0.63556  0.59911  0.65971  1.0000
  H   H423      1.0  0.59949  0.31739  0.48685  1.0000
  C   C245      1.0  0.59690  0.21421  0.66348  1.0000
  H   H424      1.0  0.54399  0.62648  0.57253  1.0000
  H   H425      1.0  0.51352  0.32162  0.63765  1.0000
  H   H426      1.0  0.91833  0.20245  0.54599  1.0000
  H   H427      1.0  0.87598  0.49154  0.87829  1.0000
  Fe  Fe32      1.0  0.49715  0.60764  0.69003  1.0000
  N   N14       1.0  0.91674  0.46295  0.83291  1.0000
  C   C246      1.0  0.62701  0.61977  0.84686  1.0000
  H   H428      1.0  0.59958  0.15330  0.73102  1.0000
  H   H429      1.0  0.93127  0.30505  0.88652  1.0000
  H   H430      1.0  0.77859  0.27387  0.80161  1.0000
  H   H431      1.0  0.98275  0.40554  0.89465  1.0000
  C   C247      1.0  0.60835  0.27776  0.78440  1.0000
  C   C248      1.0  0.81675  0.43537  0.79943  1.0000
  H   H432      1.0  0.56121  0.17433  0.67948  1.0000
  H   H433      1.0  0.64380  0.28541  0.76453  1.0000
  H   H434      1.0  0.64089  0.30200  0.88270  1.0000
  C   C249      1.0  0.66255  0.22165  0.68027  1.0000
  H   H435      1.0  0.92722  0.59201  0.86189  1.0000
  H   H436      1.0  0.54068  0.33882  0.83593  1.0000
  C   C250      1.0  0.74473  0.22687  0.87476  1.0000
  H   H437      1.0  0.72898  0.16269  0.73407  1.0000
  C   C251      1.0  0.56948  0.39756  0.78918  1.0000
  H   H438      1.0  0.66088  0.58816  0.82810  1.0000
  C   C252      1.0  0.86614  0.38895  0.82677  1.0000
  C   C253      1.0  0.93668  0.53374  0.80403  1.0000
  H   H439      1.0  0.72482  0.38541  0.82030  1.0000
  H   H440      1.0  0.63815  0.23701  0.80517  1.0000
  H   H441      1.0  0.89208  0.30175  0.82194  1.0000
  H   H442      1.0  0.82678  0.25103  0.74707  1.0000
  H   H443      1.0  0.95961  0.37643  0.78031  1.0000
  H   H444      1.0  0.79391  0.52773  0.79890  1.0000
  C   C254      1.0  0.88833  0.54221  0.85634  1.0000
  H   H445      1.0  0.84403  0.42607  0.77723  1.0000
  H   H446      1.0  0.57261  0.22127  0.77975  1.0000
  H   H447      1.0  0.89207  0.59250  0.79294  1.0000
  C   C255      1.0  0.96807  0.52350  0.74735  1.0000
  H   H448      1.0  0.76325  0.30084  0.88057  1.0000
  C   C256      1.0  0.67508  0.22743  0.87639  1.0000
  H   H449      1.0  0.78055  0.57996  0.84433  1.0000
  C   C257      1.0  0.75878  0.36820  0.80028  1.0000
  H   H450      1.0  0.77934  0.29246  0.69433  1.0000
  H   H451      1.0  0.96972  0.59371  0.80972  1.0000
  C   C258      1.0  0.80729  0.20435  0.70230  1.0000
  C   C259      1.0  0.97922  0.33639  0.88039  1.0000
  H   H452      1.0  0.54520  0.43915  0.76718  1.0000
  H   H453      1.0  0.64777  0.27334  0.69951  1.0000
  H   H454      1.0  0.89957  0.58030  0.68341  1.0000
  H   H455      1.0  0.89089  0.27306  0.71818  1.0000
  H   H456      1.0  0.83572  0.37152  0.84781  1.0000
  H   H457      1.0  0.54364  0.56887  0.87427  1.0000
  H   H458      1.0  0.91468  0.53368  0.74003  1.0000
  C   C260      1.0  0.97609  0.46066  0.78001  1.0000
  H   H459      1.0  0.72870  0.39724  0.77898  1.0000
  C   C261      1.0  0.85561  0.21461  0.72750  1.0000
  C   C262      1.0  0.98105  0.38487  0.84578  1.0000
  H   H460      1.0  0.59179  0.46053  0.85355  1.0000
  H   H461      1.0  0.60705  0.44858  0.79508  1.0000
  S   S62       1.0  0.60142  0.51866  0.70535  1.0000
  C   C263      1.0  0.51555  0.58876  0.82588  1.0000
  C   C264      1.0  0.56873  0.55262  0.85187  1.0000
  H   H462      1.0  0.65756  0.60558  0.86808  1.0000
  H   H463      1.0  0.83875  0.17054  0.68309  1.0000
  C   C265      1.0  0.51518  0.38817  0.81486  1.0000
  H   H464      1.0  0.98284  0.60965  0.74580  1.0000
  H   H465      1.0  0.54139  0.61519  0.80391  1.0000
  C   C266      1.0  0.82139  0.62728  0.84821  1.0000
  H   H466      1.0  0.77871  0.60946  0.66890  1.0000
  C   C267      1.0  0.88216  0.51852  0.67119  1.0000
  H   H467      1.0  0.54004  0.38498  0.66885  1.0000
  C   C268      1.0  0.80343  0.56713  0.09871  1.0000
  H   H468      1.0  0.72709  0.32620  0.93607  1.0000
  C   C269      1.0  0.82909  0.62633  0.98803  1.0000
  H   H469      1.0  0.78719  0.13898  0.92927  1.0000
  H   H470      1.0  0.92868  0.32401  0.04003  1.0000
  H   H471      1.0  0.83565  0.32858  0.94277  1.0000
  H   H472      1.0  0.95583  0.13153  0.12889  1.0000
  C   C270      1.0  0.91086  0.26017  0.05777  1.0000
  H   H473      1.0  0.75480  0.19281  0.15434  1.0000
  H   H474      1.0  0.88122  0.18263  0.94361  1.0000
  N   N15       1.0  0.76322  0.48036  0.09023  1.0000
  H   H475      1.0  0.51506  0.15083  0.08471  1.0000
  H   H476      1.0  0.56041  0.56212  0.06217  1.0000
  H   H477      1.0  0.90905  0.56357  0.15706  1.0000
  C   C271      1.0  0.64606  0.15018  0.05065  1.0000
  H   H478      1.0  0.85064  0.52330  0.11095  1.0000
  C   C272      1.0  0.86164  0.25181  0.95794  1.0000
  H   H479      1.0  0.76053  0.61332  0.14299  1.0000
  C   C273      1.0  0.70469  0.29666  0.95864  1.0000
  C   C274      1.0  0.70346  0.22943  0.14488  1.0000
  C   C275      1.0  0.52219  0.20090  0.12929  1.0000
  H   H480      1.0  0.85224  0.56464  0.97300  1.0000
  H   H481      1.0  0.67875  0.15667  0.14073  1.0000
  C   C276      1.0  0.80666  0.40988  0.06813  1.0000
  H   H482      1.0  0.65822  0.56756  0.09335  1.0000
  H   H483      1.0  0.58848  0.47597  0.95543  1.0000
  H   H484      1.0  0.95618  0.20190  0.06850  1.0000
  H   H485      1.0  0.90705  0.35809  0.98507  1.0000
  C   C277      1.0  0.74802  0.40565  0.11923  1.0000
  C   C278      1.0  0.86806  0.32072  0.08242  1.0000
  S   S63       1.0  0.70848  0.61919  0.96154  1.0000
  H   H486      1.0  0.67220  0.27815  0.16189  1.0000
  H   H487      1.0  0.95230  0.21030  0.98640  1.0000
  H   H488      1.0  0.54007  0.40858  0.93170  1.0000
  H   H489      1.0  0.79545  0.36742  0.13221  1.0000
  C   C279      1.0  0.59516  0.56308  0.04186  1.0000
  H   H490      1.0  0.65549  0.34851  0.10798  1.0000
  H   H491      1.0  0.90123  0.36141  0.09538  1.0000
  H   H492      1.0  0.82536  0.46824  0.04897  1.0000
  H   H493      1.0  0.95743  0.31343  0.95267  1.0000
  S   S64       1.0  0.98557  0.50390  0.06413  1.0000
  C   C280      1.0  0.81304  0.21013  0.98366  1.0000
  C   C281      1.0  0.92326  0.28517  0.97150  1.0000
  H   H494      1.0  0.85050  0.25198  0.09865  1.0000
  H   H495      1.0  0.62449  0.23158  0.93661  1.0000
  H   H496      1.0  0.80236  0.27897  0.99895  1.0000
  C   C282      1.0  0.70824  0.30926  0.11491  1.0000
  H   H497      1.0  0.77706  0.35813  0.05694  1.0000
  H   H498      1.0  0.73236  0.25545  0.09736  1.0000
  C   C283      1.0  0.69794  0.54784  0.07539  1.0000
  H   H499      1.0  0.70572  0.36734  0.97279  1.0000
  H   H500      1.0  0.88102  0.20737  0.04668  1.0000
  H   H501      1.0  0.71746  0.45867  0.13527  1.0000
  H   H502      1.0  0.55492  0.26646  0.12320  1.0000
  H   H503      1.0  0.69796  0.49593  0.02931  1.0000
  C   C284      1.0  0.68819  0.20831  0.02580  1.0000
  H   H504      1.0  0.66049  0.40471  0.05841  1.0000
  C   C285      1.0  0.66582  0.49467  0.05049  1.0000
  H   H505      1.0  0.57393  0.52397  0.02368  1.0000
  N   N16       1.0  0.74712  0.18472  0.97307  1.0000
  H   H506      1.0  0.65717  0.29227  0.01651  1.0000
  H   H507      1.0  0.73327  0.22441  0.03711  1.0000
  H   H508      1.0  0.62805  0.20930  0.06796  1.0000
  C   C286      1.0  0.62902  0.29426  0.95257  1.0000
  H   H509      1.0  0.60123  0.26971  0.97398  1.0000
  C   C287      1.0  0.59218  0.41356  0.93850  1.0000
  H   H510      1.0  0.84193  0.13337  0.99807  1.0000
  H   H511      1.0  0.82076  0.61676  0.07755  1.0000
  H   H512      1.0  0.61964  0.44650  0.91775  1.0000
  C   C288      1.0  0.71132  0.13033  0.00043  1.0000
