data_image0
_chemical_formula_structural       HCSHC2HFeS2FeS2FeSFeS3FeS2FeS2FeSFeS3FeS2FeS2FeSFeS3H2C6H4NHC3H4C3HCH2C6H4C3H5C2H3C2H2C6H2C6H4CNC11H18CH7NC2HC3HC3H2CH12CH8FeC2H2CNCHC5H3CH2CH6CH6CH2CH5SCHCHCH5CHCH2C4HC3SH2CH2CH2C4H9CHCHCH9CHCH3NCH3CH2C2H2C3NHC2H4C2H2C3H17CHCH2CH2CHCHCH4CH9C2HC2H3CNSC2H3NC2H5FeH7CH8CH5NCHCH3CH2C3HCH2C2H6C2HC3H9CHCHNH5CHCH2FeS2FeSFeS2FeS2FeSFeS3FeCHFeSC3FeSCSH2FeSH2CH8C2H5C6H4C6H7CHC4HCH2C5H4CHCH4CHC2H4C2H6CHCH8CH2C2HCHC4H2NCH2CSHCFeH9CH2SCH4CH3C3H3CSC4H4SH2CHC2H5C3H5CSHCHC2H2CNC8H2C2H16CHC3H7NH2NHSH2CH3CHCHFeNHSH2SH3CH2SCH3CHCH4CSFeH7SHSC2H4CH2CHCHCHFeS2FeC2FeSCHS4H3C2H2CHSCH4CH2CH2FeH7C2H3CHCH2CHCH5FeHSC2H3C5NCHC2H3SNH2C2HCH5SHC2HFeS2HSFeSFeSCSHCHC2H5CHCH4CHC5H4C2H6CH4CHCHFeH7CHCH9C3NHC5HCHC3H3CH6CHCH2SCNHCHC2H2SC2H5CSHFeSHCFeS2FeS2FeSFeS3H10CH2C4H2C3H2CH2CH7C6H3CHCHC3NCHC2HC2H2C3H14C2H3C2H11CHFeH2SHCHC3HC3HC5HCH2NH4CH4CHNC2HSH3CHCH5CH4C2H3CHCHCH2CNH3C2HC4H2FeHCHCHNC2HCHCH6CHCHC2H5C2H2C2FeS2FeS2FeS2FeH2FeSFeHS2FeS2HFeSFeS2FeS2FeS2FeSFeS3FeS2FeS2FeSFeS3C4HCH3CH2C6H6CHNCHCHC6H7SC2H2C7H5CH3C6H4C6H3NC2HC3HC2HC3HCH3CH3C2HFeH5C4H4SNC10H22NC12H28NC2HC8H17CHC2H9C3HC7HCHSH4CHCH4C2HCH2C2HC2H3SH2CHC3SH2CHC3HFeH4SHFeH4SCH3C3H2C3H8CH6CH5CHCH2CH2NH2NCH8C3HCH3CH3NH3CHCH6C2H3CH4CHCSCH5C2H3CH4SHNH3C2HC2H2CHC2H7CH3CH2CH3CH2CH2CH2CHCHCHC2H4SH4CH4CH4CHC3H3CH2C2SCFeS2FeS2FeSFeHS2FeS2FeS2FeSFeS3FeS2FeS2FeSFeS3C2H2CHCH2C6H5C2H3C6H4C4HC2H3C5H3C6H6C2HNC11H28CH2NC6HC4H17CHCH7CHCSCHCHC2HC2H2CNC2H8CHCH5CHCH3C3HCH2CH5CHCHCH2CH4CH3C3HC2HCH4CHCH2SNC11H22CH5CHCH2CHCH2CHCH2NC2H14CHCHCHNHCH2C3H5CH4NH2CH2FeCH5CHCH2CHCH3C2H2CH5CH5FeCH4CSHS2FeS2FeS2FeSFeS3FeH2FeS2FeSH2SCHCH2FeSFeHSFeSFeHFeS2H2C3HCH5C6H4C2HSC2H3C6H4NC3H3FeC4HCH4CSCHCSFeCNC11H9CH6CH2CHCH6CH2C2HNHC9H27CHCH4C2H4CH2CH3CH4CH3SH3SHCH3CHC2HC2H3CH2CH2CHC2H9C2H6C3H3NC4HCH4CH3CHCHCSH2CHSHC2H8S2C3HCH3C3HC2H2CHSCFeCH2CH2CHCHCH5CNHCH3CH4C2H2C3H6C2SHCH3CHNS2H2CNH3CH2NC2HCSH2FeSHC3HFeH3CH5SHCHCH3CH5SH2C2H2C2HCHCH4C2H3CFeHCH3CHSFeSFeHSHCH3CHC2H2C6HCH6CHCHFeH2CSH3CH3CH2N2CHCHCHC3SHCH6NH4C4NCH5CHC2HC2HC2H3CHCSH8CH3CH7SFeH2CH5FeSHSFeCSFeS2H2FeS3FeS2FeS2FeSFeS3HC2H2CHC2H3CHC6HCH5C4H2C7H5C3H2CH7CH6CHCH5SH10CHC3H7CH3CH5NHC3HC5HCHCH3SH4CH3CH3CH5C2H2C2H3CH2C2H2C2H2CH4CHCH3CHCNCH3C2H2C2HCNCH4NC2HC3H3C2HCH3CH3CH2C2H3CH3C2H3CH4CH2FeH2SHC2HSH3CH5CH2SH4FeS2HFeS2FeS2FeSHFeSFeHSHFeS4CFeS2FeS2FeS2FeSFeS3FeS2FeS2FeCFeS3C2H3C3HC2HCHC6H4CH4C6H4C6H4C2NCHCH2SCH2C6H4C6H4CSCNC12H28NC11H7CH13CHCHSFeH3FeH5CH4C3H2SHC2HCH4NCH6C2H6CHCH9FeSH5CSH4CHC2H3CH3CH4C2HCH2CHNH4CH4CH7CH2C2HC2HNH5FeNH3CH2C2H3CHSH6CH2CH3CH7C2H3C3H3CHCHNHCH5C4H2C2HCH2CH2SH3CHCSH4CH10C2H3C2H2C2H2CH3CH3CHC3HCH5CH3CHCH4C3HCH2CH4CH8CH3
_chemical_formula_sum              "H2048 C1152 S256 Fe128 N64"
_cell_length_a       42.7046
_cell_length_b       42.4107
_cell_length_c       83.2721
_cell_angle_alpha    90.1355
_cell_angle_beta     90.2141
_cell_angle_gamma    87.3054

_space_group_name_H-M_alt    "P 1"
_space_group_IT_number       1

loop_
  _space_group_symop_operation_xyz
  'x, y, z'

loop_
  _atom_site_type_symbol
  _atom_site_label
  _atom_site_symmetry_multiplicity
  _atom_site_fract_x
  _atom_site_fract_y
  _atom_site_fract_z
  _atom_site_occupancy
  H   H1        1.0  0.14297  0.46612  0.09000  1.0000
  C   C1        1.0  0.22471  0.14999  0.25848  1.0000
  S   S1        1.0  0.40240  0.38537  0.30918  1.0000
  H   H2        1.0  0.17900  0.32377  0.03323  1.0000
  C   C2        1.0  0.17827  0.29784  0.03474  1.0000
  C   C3        1.0  0.03574  0.47571  0.05942  1.0000
  H   H3        1.0  0.44165  0.07977  0.16179  1.0000
  Fe  Fe1       1.0  0.11632  0.12301  0.22696  1.0000
  S   S2        1.0  0.11367  0.17085  0.21550  1.0000
  S   S3        1.0  0.12397  0.11520  0.25370  1.0000
  Fe  Fe2       1.0  0.10519  0.08812  0.19486  1.0000
  S   S4        1.0  0.10291  0.13371  0.18124  1.0000
  S   S5        1.0  0.09035  0.04037  0.18511  1.0000
  Fe  Fe3       1.0  0.14367  0.14733  0.19647  1.0000
  S   S6        1.0  0.18022  0.17752  0.18571  1.0000
  Fe  Fe4       1.0  0.07318  0.15335  0.20139  1.0000
  S   S7        1.0  0.02655  0.17869  0.19567  1.0000
  S   S8        1.0  0.14894  0.10007  0.20867  1.0000
  S   S9        1.0  0.07312  0.10717  0.21439  1.0000
  Fe  Fe5       1.0  0.09857  0.37515  0.11399  1.0000
  S   S10       1.0  0.14843  0.38728  0.10993  1.0000
  S   S11       1.0  0.05750  0.40960  0.11842  1.0000
  Fe  Fe6       1.0  0.11264  0.30425  0.10907  1.0000
  S   S12       1.0  0.16345  0.31129  0.10406  1.0000
  S   S13       1.0  0.09495  0.25483  0.10926  1.0000
  Fe  Fe7       1.0  0.16187  0.34461  0.12527  1.0000
  S   S14       1.0  0.18833  0.34032  0.14933  1.0000
  Fe  Fe8       1.0  0.14528  0.35300  0.08919  1.0000
  S   S15       1.0  0.16065  0.36379  0.06364  1.0000
  S   S16       1.0  0.11147  0.33528  0.13072  1.0000
  S   S17       1.0  0.09482  0.34288  0.09280  1.0000
  Fe  Fe9       1.0  0.34827  0.27862  0.23735  1.0000
  S   S18       1.0  0.37442  0.23248  0.23334  1.0000
  S   S19       1.0  0.33910  0.28510  0.26412  1.0000
  Fe  Fe10      1.0  0.34298  0.28988  0.20103  1.0000
  S   S20       1.0  0.37068  0.24464  0.19510  1.0000
  S   S21       1.0  0.32641  0.31833  0.17899  1.0000
  Fe  Fe11      1.0  0.34008  0.22400  0.21374  1.0000
  S   S22       1.0  0.32028  0.17580  0.21117  1.0000
  Fe  Fe12      1.0  0.40314  0.25747  0.21527  1.0000
  S   S23       1.0  0.45465  0.24481  0.22118  1.0000
  S   S24       1.0  0.31108  0.26821  0.21897  1.0000
  S   S25       1.0  0.37814  0.30457  0.22002  1.0000
  H   H4        1.0  0.02733  0.30026  0.26922  1.0000
  H   H5        1.0  0.20245  0.08225  0.23806  1.0000
  C   C4        1.0  0.22710  0.33235  0.15679  1.0000
  C   C5        1.0  0.25386  0.33782  0.14775  1.0000
  C   C6        1.0  0.28399  0.33324  0.15471  1.0000
  C   C7        1.0  0.28786  0.32234  0.17060  1.0000
  C   C8        1.0  0.26112  0.31568  0.17941  1.0000
  C   C9        1.0  0.23098  0.32104  0.17261  1.0000
  H   H6        1.0  0.25134  0.34664  0.13562  1.0000
  H   H7        1.0  0.30446  0.33850  0.14777  1.0000
  H   H8        1.0  0.26359  0.30727  0.19162  1.0000
  H   H9        1.0  0.21049  0.31664  0.17971  1.0000
  N   N1        1.0  0.03279  0.38069  0.16664  1.0000
  H   H10       1.0  0.27666  0.21446  0.29764  1.0000
  C   C10       1.0  0.04108  0.22326  0.10442  1.0000
  C   C11       1.0  0.05399  0.25258  0.10728  1.0000
  C   C12       1.0  0.49099  0.24338  0.21079  1.0000
  H   H11       1.0  0.05451  0.40085  0.04716  1.0000
  H   H12       1.0  0.11306  0.45080  0.15348  1.0000
  H   H13       1.0  0.05651  0.20252  0.10297  1.0000
  H   H14       1.0  0.04384  0.30232  0.11077  1.0000
  C   C13       1.0  0.03576  0.47121  0.11822  1.0000
  C   C14       1.0  0.06234  0.45061  0.11731  1.0000
  C   C15       1.0  0.09190  0.46306  0.11556  1.0000
  H   H15       1.0  0.09818  0.17038  0.31279  1.0000
  C   C16       1.0  0.08654  0.40181  0.02728  1.0000
  H   H16       1.0  0.11258  0.44744  0.11509  1.0000
  H   H17       1.0  0.24464  0.30811  0.24337  1.0000
  C   C17       1.0  0.21833  0.17664  0.19385  1.0000
  C   C18       1.0  0.23296  0.14873  0.19966  1.0000
  C   C19       1.0  0.26446  0.14845  0.20475  1.0000
  C   C20       1.0  0.28111  0.17621  0.20439  1.0000
  C   C21       1.0  0.26617  0.20415  0.19890  1.0000
  C   C22       1.0  0.23499  0.20430  0.19359  1.0000
  H   H18       1.0  0.22030  0.12722  0.19981  1.0000
  H   H19       1.0  0.27590  0.12673  0.20899  1.0000
  H   H20       1.0  0.27871  0.22563  0.19858  1.0000
  H   H21       1.0  0.22354  0.22610  0.18951  1.0000
  C   C23       1.0  0.02102  0.21907  0.20044  1.0000
  C   C24       1.0  0.04460  0.23560  0.20793  1.0000
  C   C25       1.0  0.03951  0.26776  0.21164  1.0000
  H   H22       1.0  0.10201  0.27515  0.29994  1.0000
  H   H23       1.0  0.30129  0.17462  0.27056  1.0000
  H   H24       1.0  0.01041  0.43335  0.14666  1.0000
  H   H25       1.0  0.06679  0.22367  0.21082  1.0000
  H   H26       1.0  0.05790  0.28044  0.21738  1.0000
  C   C26       1.0  0.24282  0.27175  0.10033  1.0000
  C   C27       1.0  0.08908  0.02471  0.16527  1.0000
  H   H27       1.0  0.32568  0.13719  0.24124  1.0000
  H   H28       1.0  0.01794  0.49054  0.05274  1.0000
  H   H29       1.0  0.19031  0.09678  0.25750  1.0000
  C   C28       1.0  0.13193  0.37835  0.04968  1.0000
  C   C29       1.0  0.10095  0.38492  0.05441  1.0000
  H   H30       1.0  0.16414  0.37929  0.02981  1.0000
  H   H31       1.0  0.09431  0.38184  0.06673  1.0000
  C   C30       1.0  0.15240  0.16513  0.29236  1.0000
  C   C31       1.0  0.14300  0.14062  0.28225  1.0000
  C   C32       1.0  0.13493  0.14663  0.26614  1.0000
  C   C33       1.0  0.13601  0.17740  0.26026  1.0000
  C   C34       1.0  0.14556  0.20181  0.27031  1.0000
  C   C35       1.0  0.17667  0.31822  0.30638  1.0000
  H   H32       1.0  0.14238  0.11680  0.28682  1.0000
  H   H33       1.0  0.12976  0.18240  0.24794  1.0000
  C   C36       1.0  0.38602  0.35659  0.29671  1.0000
  C   C37       1.0  0.38109  0.36330  0.28035  1.0000
  C   C38       1.0  0.36776  0.34113  0.27007  1.0000
  C   C39       1.0  0.35942  0.31197  0.27608  1.0000
  C   C40       1.0  0.36497  0.30498  0.29235  1.0000
  C   C41       1.0  0.37810  0.32720  0.30266  1.0000
  H   H34       1.0  0.38722  0.38595  0.27564  1.0000
  H   H35       1.0  0.36320  0.34692  0.25761  1.0000
  H   H36       1.0  0.35886  0.28235  0.29704  1.0000
  H   H37       1.0  0.38186  0.32170  0.31520  1.0000
  C   C42       1.0  0.14012  0.38367  0.03358  1.0000
  N   N2        1.0  0.21130  0.23229  0.13920  1.0000
  C   C43       1.0  0.22232  0.23635  0.12215  1.0000
  C   C44       1.0  0.20619  0.19787  0.14206  1.0000
  C   C45       1.0  0.18132  0.25218  0.14145  1.0000
  C   C46       1.0  0.23531  0.24308  0.15109  1.0000
  C   C47       1.0  0.26764  0.22476  0.15069  1.0000
  C   C48       1.0  0.23654  0.26850  0.11830  1.0000
  C   C49       1.0  0.16309  0.24691  0.15727  1.0000
  C   C50       1.0  0.18039  0.18336  0.13162  1.0000
  C   C51       1.0  0.17500  0.14948  0.13677  1.0000
  C   C52       1.0  0.29251  0.24245  0.15979  1.0000
  C   C53       1.0  0.13368  0.26883  0.15823  1.0000
  H   H38       1.0  0.20250  0.23343  0.11361  1.0000
  H   H39       1.0  0.24003  0.21741  0.11881  1.0000
  H   H40       1.0  0.22807  0.18338  0.13968  1.0000
  H   H41       1.0  0.20110  0.19372  0.15494  1.0000
  H   H42       1.0  0.16478  0.24894  0.13126  1.0000
  H   H43       1.0  0.18630  0.27755  0.14105  1.0000
  H   H44       1.0  0.23875  0.26874  0.14978  1.0000
  H   H45       1.0  0.22670  0.24078  0.16351  1.0000
  H   H46       1.0  0.27618  0.22082  0.13827  1.0000
  H   H47       1.0  0.26574  0.20139  0.15654  1.0000
  H   H48       1.0  0.22065  0.28856  0.12207  1.0000
  H   H49       1.0  0.25928  0.27068  0.12462  1.0000
  H   H50       1.0  0.17761  0.25169  0.16798  1.0000
  H   H51       1.0  0.15540  0.22237  0.15809  1.0000
  H   H52       1.0  0.15774  0.19696  0.13260  1.0000
  H   H53       1.0  0.18737  0.18293  0.11879  1.0000
  H   H54       1.0  0.16763  0.14884  0.14956  1.0000
  H   H55       1.0  0.15619  0.13968  0.12928  1.0000
  C   C54       1.0  0.02088  0.40238  0.17986  1.0000
  H   H56       1.0  0.31439  0.22738  0.16087  1.0000
  H   H57       1.0  0.29798  0.26428  0.15324  1.0000
  H   H58       1.0  0.28434  0.24889  0.17206  1.0000
  H   H59       1.0  0.19797  0.23519  0.21759  1.0000
  H   H60       1.0  0.12028  0.26347  0.16922  1.0000
  H   H61       1.0  0.14023  0.29384  0.15886  1.0000
  H   H62       1.0  0.11831  0.26564  0.14761  1.0000
  N   N3        1.0  0.02082  0.14260  0.14541  1.0000
  C   C55       1.0  0.04595  0.15040  0.27282  1.0000
  C   C56       1.0  0.02534  0.12015  0.13131  1.0000
  H   H63       1.0  0.02828  0.02284  0.07646  1.0000
  C   C57       1.0  0.05183  0.15471  0.15070  1.0000
  C   C58       1.0  0.06665  0.17907  0.13957  1.0000
  C   C59       1.0  0.46148  0.31786  0.28179  1.0000
  H   H64       1.0  0.12416  0.39986  0.01012  1.0000
  C   C60       1.0  0.02175  0.13413  0.11422  1.0000
  C   C61       1.0  0.02935  0.10912  0.10141  1.0000
  C   C62       1.0  0.09445  0.19389  0.14775  1.0000
  H   H65       1.0  0.44988  0.13803  0.16645  1.0000
  H   H66       1.0  0.07961  0.17696  0.28563  1.0000
  C   C63       1.0  0.28856  0.34725  0.30768  1.0000
  H   H67       1.0  0.05803  0.03319  0.02402  1.0000
  H   H68       1.0  0.04859  0.10714  0.13204  1.0000
  H   H69       1.0  0.06564  0.27640  0.00827  1.0000
  H   H70       1.0  0.32720  0.26115  0.31938  1.0000
  H   H71       1.0  0.43701  0.38873  0.23286  1.0000
  H   H72       1.0  0.04980  0.16517  0.16295  1.0000
  H   H73       1.0  0.06954  0.13482  0.15190  1.0000
  H   H74       1.0  0.04999  0.19883  0.13636  1.0000
  H   H75       1.0  0.07545  0.16733  0.12845  1.0000
  H   H76       1.0  0.30042  0.42729  0.31458  1.0000
  H   H77       1.0  0.02594  0.11967  0.08930  1.0000
  H   H78       1.0  0.03040  0.13054  0.27488  1.0000
  C   C64       1.0  0.01110  0.28481  0.26282  1.0000
  H   H79       1.0  0.00798  0.09214  0.18851  1.0000
  H   H80       1.0  0.03728  0.15387  0.11241  1.0000
  H   H81       1.0  0.26076  0.35889  0.27871  1.0000
  H   H82       1.0  0.47424  0.26653  0.18923  1.0000
  H   H83       1.0  0.50126  0.30524  0.23578  1.0000
  H   H84       1.0  0.10447  0.21119  0.13947  1.0000
  H   H85       1.0  0.08684  0.20661  0.15886  1.0000
  H   H86       1.0  0.11288  0.17558  0.15085  1.0000
  Fe  Fe13      1.0  0.41036  0.37825  0.33595  1.0000
  C   C65       1.0  0.07987  0.16833  0.32210  1.0000
  C   C66       1.0  0.08951  0.47103  0.06978  1.0000
  H   H87       1.0  0.03575  0.49272  0.02735  1.0000
  H   H88       1.0  0.28716  0.34308  0.32081  1.0000
  C   C67       1.0  0.08073  0.23147  0.30628  1.0000
  N   N4        1.0  0.45597  0.16260  0.18896  1.0000
  C   C68       1.0  0.44903  0.15959  0.20665  1.0000
  H   H89       1.0  0.40757  0.36240  0.23916  1.0000
  C   C69       1.0  0.43908  0.19256  0.18307  1.0000
  C   C70       1.0  0.44385  0.13551  0.17934  1.0000
  C   C71       1.0  0.45617  0.10197  0.18415  1.0000
  C   C72       1.0  0.41395  0.15852  0.21128  1.0000
  C   C73       1.0  0.44780  0.20395  0.16599  1.0000
  H   H90       1.0  0.27006  0.25812  0.32027  1.0000
  H   H91       1.0  0.04475  0.42734  0.21794  1.0000
  H   H92       1.0  0.10232  0.49861  0.04078  1.0000
  C   C74       1.0  0.42791  0.23344  0.16128  1.0000
  H   H93       1.0  0.45890  0.17968  0.21329  1.0000
  H   H94       1.0  0.46104  0.13829  0.21189  1.0000
  C   C75       1.0  0.14448  0.45281  0.07852  1.0000
  H   H95       1.0  0.02221  0.37361  0.14130  1.0000
  H   H96       1.0  0.44317  0.21240  0.19148  1.0000
  H   H97       1.0  0.41326  0.18991  0.18296  1.0000
  H   H98       1.0  0.41776  0.13613  0.17955  1.0000
  H   H99       1.0  0.02288  0.05467  0.18084  1.0000
  H   H100      1.0  0.45295  0.09739  0.19711  1.0000
  C   C76       1.0  0.44852  0.31680  0.25310  1.0000
  H   H101      1.0  0.40112  0.18113  0.20835  1.0000
  H   H102      1.0  0.40246  0.13907  0.20499  1.0000
  H   H103      1.0  0.44381  0.18563  0.15681  1.0000
  H   H104      1.0  0.13389  0.49366  0.06395  1.0000
  H   H105      1.0  0.02268  0.19125  0.29478  1.0000
  H   H106      1.0  0.07544  0.32551  0.02278  1.0000
  C   C77       1.0  0.26928  0.33417  0.28108  1.0000
  H   H107      1.0  0.05303  0.24142  0.24774  1.0000
  H   H108      1.0  0.26283  0.27613  0.29529  1.0000
  C   C78       1.0  0.46759  0.32082  0.31209  1.0000
  H   H109      1.0  0.48113  0.25444  0.27443  1.0000
  H   H110      1.0  0.42148  0.13016  0.23292  1.0000
  H   H111      1.0  0.43508  0.24168  0.14925  1.0000
  H   H112      1.0  0.40267  0.22821  0.16076  1.0000
  H   H113      1.0  0.43113  0.25281  0.17006  1.0000
  S   S26       1.0  0.05767  0.41946  0.01444  1.0000
  C   C79       1.0  0.04001  0.40098  0.19575  1.0000
  H   H114      1.0  0.08264  0.27629  0.31914  1.0000
  C   C80       1.0  0.03252  0.43003  0.20619  1.0000
  H   H115      1.0  0.09948  0.02764  0.02573  1.0000
  C   C81       1.0  0.05327  0.21976  0.31636  1.0000
  H   H116      1.0  0.11639  0.28541  0.02796  1.0000
  H   H117      1.0  0.04929  0.34419  0.18340  1.0000
  H   H118      1.0  0.08327  0.37626  0.16996  1.0000
  H   H119      1.0  0.05407  0.09998  0.10254  1.0000
  H   H120      1.0  0.06562  0.39946  0.19357  1.0000
  C   C82       1.0  0.30396  0.40154  0.31676  1.0000
  H   H121      1.0  0.04999  0.09900  0.16862  1.0000
  C   C83       1.0  0.43881  0.07683  0.17496  1.0000
  H   H122      1.0  0.02925  0.07665  0.15404  1.0000
  H   H123      1.0  0.42520  0.26687  0.28446  1.0000
  C   C84       1.0  0.02434  0.17718  0.01289  1.0000
  C   C85       1.0  0.42708  0.22269  0.27193  1.0000
  C   C86       1.0  0.27959  0.28194  0.31940  1.0000
  C   C87       1.0  0.43249  0.36372  0.23556  1.0000
  H   H124      1.0  0.28986  0.39015  0.29290  1.0000
  C   C88       1.0  0.12491  0.46982  0.06550  1.0000
  C   C89       1.0  0.10993  0.01838  0.13820  1.0000
  C   C90       1.0  0.07802  0.13298  0.32664  1.0000
  S   S27       1.0  0.00547  0.32389  0.21259  1.0000
  H   H125      1.0  0.42350  0.31620  0.25661  1.0000
  H   H126      1.0  0.10833  0.09131  0.33088  1.0000
  C   C91       1.0  0.23345  0.33350  0.30463  1.0000
  H   H127      1.0  0.47167  0.34645  0.31121  1.0000
  H   H128      1.0  0.08216  0.46391  0.03809  1.0000
  C   C92       1.0  0.16447  0.28276  0.01977  1.0000
  H   H129      1.0  0.07111  0.37650  0.14974  1.0000
  H   H130      1.0  0.08325  0.44579  0.06978  1.0000
  C   C93       1.0  0.07398  0.42269  0.16024  1.0000
  C   C94       1.0  0.07789  0.01533  0.02256  1.0000
  C   C95       1.0  0.27797  0.29275  0.30153  1.0000
  C   C96       1.0  0.04064  0.28812  0.16748  1.0000
  H   H131      1.0  0.49712  0.19057  0.18782  1.0000
  H   H132      1.0  0.06321  0.12028  0.31803  1.0000
  H   H133      1.0  0.43580  0.31846  0.28393  1.0000
  H   H134      1.0  0.10715  0.23810  0.01362  1.0000
  H   H135      1.0  0.07157  0.43503  0.17195  1.0000
  H   H136      1.0  0.41343  0.07832  0.17795  1.0000
  H   H137      1.0  0.22257  0.35406  0.29803  1.0000
  H   H138      1.0  0.03192  0.17065  0.26768  1.0000
  H   H139      1.0  0.21161  0.29322  0.29228  1.0000
  C   C97       1.0  0.03321  0.34721  0.17291  1.0000
  H   H140      1.0  0.04355  0.16884  0.00480  1.0000
  C   C98       1.0  0.10927  0.03411  0.15317  1.0000
  H   H141      1.0  0.28334  0.31897  0.24907  1.0000
  C   C99       1.0  0.20987  0.09579  0.24874  1.0000
  H   H142      1.0  0.23885  0.13527  0.26702  1.0000
  H   H143      1.0  0.23056  0.08316  0.25426  1.0000
  H   H144      1.0  0.19675  0.13436  0.13527  1.0000
  H   H145      1.0  0.25098  0.34806  0.24953  1.0000
  H   H146      1.0  0.20179  0.15466  0.26457  1.0000
  H   H147      1.0  0.14672  0.22547  0.26558  1.0000
  H   H148      1.0  0.22077  0.27020  0.09332  1.0000
  H   H149      1.0  0.12648  0.02507  0.12916  1.0000
  H   H150      1.0  0.25259  0.29510  0.09796  1.0000
  C   C100      1.0  0.41035  0.15327  0.22930  1.0000
  H   H151      1.0  0.11733  0.10061  0.00770  1.0000
  C   C101      1.0  0.06575  0.38758  0.16157  1.0000
  H   H152      1.0  0.16682  0.25682  0.02147  1.0000
  H   H153      1.0  0.30126  0.28811  0.29581  1.0000
  H   H154      1.0  0.03709  0.45247  0.05315  1.0000
  N   N5        1.0  0.46928  0.30193  0.26599  1.0000
  C   C102      1.0  0.21802  0.12901  0.24366  1.0000
  H   H155      1.0  0.28906  0.13616  0.26415  1.0000
  H   H156      1.0  0.22096  0.17332  0.28997  1.0000
  H   H157      1.0  0.21709  0.21522  0.27139  1.0000
  C   C103      1.0  0.07841  0.39624  0.04328  1.0000
  H   H158      1.0  0.38505  0.15336  0.23230  1.0000
  H   H159      1.0  0.06872  0.32354  0.15743  1.0000
  C   C104      1.0  0.23965  0.20102  0.27026  1.0000
  C   C105      1.0  0.29685  0.15932  0.26004  1.0000
  H   H160      1.0  0.19768  0.13933  0.23676  1.0000
  H   H161      1.0  0.25372  0.19285  0.31161  1.0000
  C   C106      1.0  0.04375  0.32118  0.16061  1.0000
  C   C107      1.0  0.15390  0.19576  0.28635  1.0000
  C   C108      1.0  0.25302  0.20565  0.29999  1.0000
  N   N6        1.0  0.23966  0.18093  0.25519  1.0000
  H   H162      1.0  0.23844  0.12656  0.23554  1.0000
  C   C109      1.0  0.24355  0.18339  0.28658  1.0000
  C   C110      1.0  0.11750  0.39528  0.02239  1.0000
  H   H163      1.0  0.26001  0.25300  0.09623  1.0000
  H   H164      1.0  0.25813  0.21866  0.26947  1.0000
  H   H165      1.0  0.12836  0.31986  0.01838  1.0000
  H   H166      1.0  0.02957  0.32262  0.14942  1.0000
  C   C111      1.0  0.06201  0.15962  0.28849  1.0000
  C   C112      1.0  0.27249  0.17598  0.24874  1.0000
  H   H167      1.0  0.00811  0.10134  0.13175  1.0000
  H   H168      1.0  0.16936  0.33545  0.29692  1.0000
  C   C113      1.0  0.03410  0.27956  0.10869  1.0000
  C   C114      1.0  0.00955  0.07689  0.17765  1.0000
  C   C115      1.0  0.21990  0.19821  0.24261  1.0000
  H   H169      1.0  0.19483  0.19933  0.24636  1.0000
  H   H170      1.0  0.15919  0.16019  0.30467  1.0000
  H   H171      1.0  0.44228  0.31770  0.31416  1.0000
  H   H172      1.0  0.34555  0.14221  0.26014  1.0000
  H   H173      1.0  0.16942  0.45067  0.07477  1.0000
  H   H174      1.0  0.21627  0.28865  0.31343  1.0000
  H   H175      1.0  0.03777  0.45508  0.08387  1.0000
  H   H176      1.0  0.27235  0.16284  0.23723  1.0000
  H   H177      1.0  0.22072  0.18513  0.23099  1.0000
  H   H178      1.0  0.42113  0.17247  0.23619  1.0000
  H   H179      1.0  0.13622  0.42864  0.08039  1.0000
  H   H180      1.0  0.28236  0.19902  0.24568  1.0000
  H   H181      1.0  0.16415  0.29285  0.04555  1.0000
  H   H182      1.0  0.23350  0.34115  0.31746  1.0000
  H   H183      1.0  0.08702  0.47901  0.08245  1.0000
  H   H184      1.0  0.23280  0.24678  0.24932  1.0000
  H   H185      1.0  0.12724  0.04306  0.00414  1.0000
  C   C116      1.0  0.45425  0.35176  0.24906  1.0000
  H   H186      1.0  0.18198  0.25344  0.23558  1.0000
  C   C117      1.0  0.20365  0.24929  0.22838  1.0000
  H   H187      1.0  0.26135  0.16364  0.28622  1.0000
  H   H188      1.0  0.43119  0.21313  0.25963  1.0000
  C   C118      1.0  0.25798  0.32289  0.25174  1.0000
  H   H189      1.0  0.06386  0.14263  0.26385  1.0000
  H   H190      1.0  0.08221  0.48260  0.00908  1.0000
  C   C119      1.0  0.12960  0.29373  0.01737  1.0000
  H   H191      1.0  0.21183  0.27244  0.22434  1.0000
  C   C120      1.0  0.22917  0.23223  0.23846  1.0000
  H   H192      1.0  0.41202  0.26870  0.26390  1.0000
  C   C121      1.0  0.32827  0.15333  0.25164  1.0000
  H   H193      1.0  0.33745  0.17591  0.24739  1.0000
  H   H194      1.0  0.05677  0.22877  0.32879  1.0000
  H   H195      1.0  0.25111  0.23143  0.23133  1.0000
  H   H196      1.0  0.01576  0.28408  0.17031  1.0000
  C   C122      1.0  0.11047  0.11626  0.32719  1.0000
  H   H197      1.0  0.40297  0.21720  0.27562  1.0000
  H   H198      1.0  0.11175  0.41379  0.14296  1.0000
  H   H199      1.0  0.25850  0.39107  0.30745  1.0000
  H   H200      1.0  0.10356  0.22217  0.31112  1.0000
  H   H201      1.0  0.05888  0.43536  0.15141  1.0000
  H   H202      1.0  0.23581  0.22599  0.30098  1.0000
  H   H203      1.0  0.07487  0.13813  0.29304  1.0000
  H   H204      1.0  0.12527  0.05259  0.15558  1.0000
  H   H205      1.0  0.01680  0.28755  0.24984  1.0000
  C   C123      1.0  0.08118  0.26749  0.30659  1.0000
  C   C124      1.0  0.28332  0.38336  0.30527  1.0000
  H   H206      1.0  0.03403  0.37990  0.20274  1.0000
  C   C125      1.0  0.43027  0.25842  0.27209  1.0000
  C   C126      1.0  0.10791  0.42551  0.15478  1.0000
  H   H207      1.0  0.12448  0.41452  0.16368  1.0000
  H   H208      1.0  0.44849  0.05298  0.17835  1.0000
  H   H209      1.0  0.04049  0.45161  0.20022  1.0000
  C   C127      1.0  0.02185  0.47040  0.07639  1.0000
  N   N7        1.0  0.06731  0.49040  0.05903  1.0000
  S   S28       1.0  0.16783  0.22681  0.29805  1.0000
  C   C128      1.0  0.01038  0.38237  0.15244  1.0000
  C   C129      1.0  0.25106  0.31380  0.26910  1.0000
  H   H210      1.0  0.08805  0.08048  0.01868  1.0000
  H   H211      1.0  0.29441  0.33275  0.27746  1.0000
  H   H212      1.0  0.04889  0.27019  0.15851  1.0000
  N   N8        1.0  0.04936  0.18454  0.31683  1.0000
  C   C130      1.0  0.21055  0.30609  0.30383  1.0000
  C   C131      1.0  0.49082  0.16555  0.18639  1.0000
  H   H213      1.0  0.44960  0.36715  0.25966  1.0000
  H   H214      1.0  0.16092  0.29816  0.30577  1.0000
  H   H215      1.0  0.03162  0.23233  0.31176  1.0000
  H   H216      1.0  0.47273  0.21018  0.16543  1.0000
  H   H217      1.0  0.05512  0.28495  0.17851  1.0000
  Fe  Fe14      1.0  0.17143  0.22517  0.32521  1.0000
  H   H218      1.0  0.02292  0.24934  0.28114  1.0000
  H   H219      1.0  0.05975  0.27819  0.30082  1.0000
  H   H220      1.0  0.12894  0.45636  0.05416  1.0000
  H   H221      1.0  0.02148  0.15282  0.30275  1.0000
  H   H222      1.0  0.00955  0.34172  0.17748  1.0000
  H   H223      1.0  0.25760  0.28832  0.27031  1.0000
  H   H224      1.0  0.44408  0.21102  0.28040  1.0000
  C   C132      1.0  0.05367  0.24150  0.26109  1.0000
  H   H225      1.0  0.17403  0.32955  0.31838  1.0000
  H   H226      1.0  0.06134  0.21747  0.26512  1.0000
  H   H227      1.0  0.20262  0.28827  0.03675  1.0000
  H   H228      1.0  0.32914  0.39478  0.31480  1.0000
  H   H229      1.0  0.01752  0.49313  0.08277  1.0000
  H   H230      1.0  0.07849  0.22449  0.29359  1.0000
  H   H231      1.0  0.43667  0.34954  0.22446  1.0000
  H   H232      1.0  0.22547  0.31788  0.27084  1.0000
  C   C133      1.0  0.00839  0.22078  0.10330  1.0000
  H   H233      1.0  0.48134  0.09869  0.18102  1.0000
  H   H234      1.0  0.46692  0.25632  0.25456  1.0000
  H   H235      1.0  0.01958  0.42731  0.17573  1.0000
  H   H236      1.0  0.06909  0.02394  0.05514  1.0000
  H   H237      1.0  0.31327  0.34110  0.30427  1.0000
  N   N9        1.0  0.26654  0.32651  0.29872  1.0000
  C   C134      1.0  0.31296  0.27922  0.32616  1.0000
  H   H238      1.0  0.32454  0.30204  0.32566  1.0000
  C   C135      1.0  0.03746  0.17252  0.30088  1.0000
  H   H239      1.0  0.07133  0.25817  0.26525  1.0000
  H   H240      1.0  0.02197  0.31591  0.01428  1.0000
  H   H241      1.0  0.10810  0.00600  0.05291  1.0000
  C   C136      1.0  0.47828  0.30346  0.29683  1.0000
  H   H242      1.0  0.45020  0.30279  0.24178  1.0000
  H   H243      1.0  0.03271  0.19669  0.02046  1.0000
  C   C137      1.0  0.07877  0.48898  0.04191  1.0000
  C   C138      1.0  0.46349  0.26712  0.26663  1.0000
  C   C139      1.0  0.02637  0.09359  0.16415  1.0000
  H   H244      1.0  0.48094  0.31115  0.32259  1.0000
  C   C140      1.0  0.49429  0.25541  0.19528  1.0000
  H   H245      1.0  0.47324  0.27824  0.29839  1.0000
  H   H246      1.0  0.26473  0.29733  0.32729  1.0000
  C   C141      1.0  0.09704  0.08532  0.00651  1.0000
  C   C142      1.0  0.02123  0.25077  0.26788  1.0000
  H   H247      1.0  0.01151  0.03689  0.04815  1.0000
  H   H248      1.0  0.47863  0.35474  0.24502  1.0000
  H   H249      1.0  0.45310  0.11636  0.32853  1.0000
  H   H250      1.0  0.46751  0.34308  0.28145  1.0000
  H   H251      1.0  0.08926  0.18053  0.33286  1.0000
  H   H252      1.0  0.39933  0.23375  0.32838  1.0000
  C   C143      1.0  0.09468  0.49593  0.11432  1.0000
  C   C144      1.0  0.03541  0.33358  0.00775  1.0000
  H   H253      1.0  0.12161  0.11647  0.31518  1.0000
  C   C145      1.0  0.00754  0.12425  0.15913  1.0000
  C   C146      1.0  0.02513  0.17859  0.32953  1.0000
  C   C147      1.0  0.01089  0.28359  0.20782  1.0000
  H   H254      1.0  0.08313  0.34555  0.00438  1.0000
  H   H255      1.0  0.01284  0.46189  0.11970  1.0000
  H   H256      1.0  0.01423  0.34964  0.26839  1.0000
  H   H257      1.0  0.01368  0.20414  0.15920  1.0000
  H   H258      1.0  0.02928  0.35724  0.01288  1.0000
  H   H259      1.0  0.02010  0.06448  0.07359  1.0000
  H   H260      1.0  0.01836  0.15715  0.02070  1.0000
  H   H261      1.0  0.01349  0.08920  0.10258  1.0000
  H   H262      1.0  0.01991  0.15313  0.32984  1.0000
  C   C148      1.0  0.00949  0.04110  0.07390  1.0000
  H   H263      1.0  0.00548  0.13902  0.17014  1.0000
  C   C149      1.0  0.07051  0.32599  0.00967  1.0000
  H   H264      1.0  0.29786  0.39669  0.32943  1.0000
  N   N10       1.0  0.07961  0.00372  0.00540  1.0000
  H   H265      1.0  0.17888  0.28933  0.00935  1.0000
  H   H266      1.0  0.49727  0.15904  0.17382  1.0000
  H   H267      1.0  0.46533  0.15622  0.33082  1.0000
  H   H268      1.0  0.00483  0.23320  0.26348  1.0000
  H   H269      1.0  0.00691  0.43290  0.20839  1.0000
  C   C150      1.0  0.50350  0.30588  0.26243  1.0000
  H   H270      1.0  0.50402  0.30544  0.29597  1.0000
  C   C151      1.0  0.08267  0.00171  0.05227  1.0000
  H   H271      1.0  0.12572  0.12791  0.33602  1.0000
  H   H272      1.0  0.02920  0.00276  0.00394  1.0000
  Fe  Fe15      1.0  0.42192  0.41340  0.36797  1.0000
  S   S29       1.0  0.42676  0.36792  0.38161  1.0000
  S   S30       1.0  0.42939  0.46306  0.37768  1.0000
  Fe  Fe16      1.0  0.38553  0.35318  0.36692  1.0000
  S   S31       1.0  0.34820  0.32516  0.37862  1.0000
  Fe  Fe17      1.0  0.43157  0.12244  0.44020  1.0000
  S   S32       1.0  0.38390  0.12262  0.45179  1.0000
  S   S33       1.0  0.46117  0.08289  0.42910  1.0000
  Fe  Fe18      1.0  0.43815  0.19270  0.44438  1.0000
  S   S34       1.0  0.39152  0.19819  0.45645  1.0000
  S   S35       1.0  0.46382  0.23652  0.43845  1.0000
  Fe  Fe19      1.0  0.40639  0.15420  0.46999  1.0000
  S   S36       1.0  0.39816  0.15276  0.49695  1.0000
  Fe  Fe20      1.0  0.37318  0.16681  0.43711  1.0000
  S   S37       1.0  0.32866  0.18986  0.42581  1.0000
  S   S38       1.0  0.45451  0.15114  0.45924  1.0000
  S   S39       1.0  0.41936  0.16395  0.42425  1.0000
  Fe  Fe21      1.0  0.13261  0.22980  0.35603  1.0000
  C   C152      1.0  0.44639  0.04409  0.55756  1.0000
  H   H273      1.0  0.01169  0.30796  0.34855  1.0000
  Fe  Fe22      1.0  0.18834  0.27211  0.35101  1.0000
  S   S40       1.0  0.15807  0.18918  0.34331  1.0000
  C   C153      1.0  0.43331  0.12447  0.65433  1.0000
  C   C154      1.0  0.45372  0.49972  0.56433  1.0000
  C   C155      1.0  0.45778  0.10060  0.36134  1.0000
  Fe  Fe23      1.0  0.20096  0.20258  0.35735  1.0000
  S   S41       1.0  0.23472  0.16490  0.36819  1.0000
  C   C156      1.0  0.43583  0.00259  0.45106  1.0000
  S   S42       1.0  0.17478  0.24072  0.37143  1.0000
  H   H274      1.0  0.31110  0.47975  0.43296  1.0000
  H   H275      1.0  0.43410  0.48886  0.55783  1.0000
  Fe  Fe24      1.0  0.47598  0.09247  0.60771  1.0000
  S   S43       1.0  0.46293  0.13227  0.59044  1.0000
  H   H276      1.0  0.49801  0.46444  0.64458  1.0000
  H   H277      1.0  0.41524  0.02755  0.49812  1.0000
  C   C157      1.0  0.48954  0.04214  0.48836  1.0000
  H   H278      1.0  0.45897  0.26385  0.50025  1.0000
  H   H279      1.0  0.41405  0.07720  0.52511  1.0000
  H   H280      1.0  0.44201  0.05893  0.56843  1.0000
  H   H281      1.0  0.03448  0.18401  0.34170  1.0000
  H   H282      1.0  0.15558  0.20577  0.41703  1.0000
  H   H283      1.0  0.18933  0.20476  0.47648  1.0000
  H   H284      1.0  0.18136  0.23979  0.44215  1.0000
  H   H285      1.0  0.47199  0.36481  0.41622  1.0000
  C   C158      1.0  0.04652  0.23914  0.36237  1.0000
  C   C159      1.0  0.04350  0.26900  0.35526  1.0000
  H   H286      1.0  0.49388  0.23053  0.38413  1.0000
  H   H287      1.0  0.25058  0.27191  0.40104  1.0000
  H   H288      1.0  0.50414  0.20406  0.57174  1.0000
  H   H289      1.0  0.47235  0.09391  0.64697  1.0000
  H   H290      1.0  0.39772  0.03859  0.52600  1.0000
  C   C160      1.0  0.42811  0.14135  0.51079  1.0000
  C   C161      1.0  0.45709  0.12833  0.50569  1.0000
  C   C162      1.0  0.47976  0.11801  0.51705  1.0000
  C   C163      1.0  0.47378  0.12059  0.53358  1.0000
  C   C164      1.0  0.44510  0.13421  0.53872  1.0000
  C   C165      1.0  0.42236  0.14454  0.52735  1.0000
  H   H291      1.0  0.46179  0.12566  0.49300  1.0000
  H   H292      1.0  0.47988  0.00896  0.54871  1.0000
  H   H293      1.0  0.44019  0.13630  0.55143  1.0000
  H   H294      1.0  0.39999  0.15456  0.53140  1.0000
  C   C166      1.0  0.26420  0.17229  0.38266  1.0000
  C   C167      1.0  0.28027  0.14668  0.39026  1.0000
  C   C168      1.0  0.30171  0.15161  0.40286  1.0000
  C   C169      1.0  0.30724  0.18227  0.40801  1.0000
  C   C170      1.0  0.29227  0.20787  0.39991  1.0000
  C   C171      1.0  0.27105  0.20295  0.38724  1.0000
  H   H295      1.0  0.27531  0.12284  0.38674  1.0000
  H   H296      1.0  0.31282  0.13166  0.40906  1.0000
  H   H297      1.0  0.29665  0.23169  0.40369  1.0000
  H   H298      1.0  0.25930  0.22286  0.38131  1.0000
  H   H299      1.0  0.49875  0.42935  0.37395  1.0000
  H   H300      1.0  0.46168  0.12570  0.38945  1.0000
  H   H301      1.0  0.49641  0.03729  0.63600  1.0000
  C   C172      1.0  0.46091  0.04431  0.43677  1.0000
  H   H302      1.0  0.45869  0.43713  0.55368  1.0000
  C   C173      1.0  0.31101  0.32235  0.36959  1.0000
  C   C174      1.0  0.29227  0.29746  0.37395  1.0000
  C   C175      1.0  0.26160  0.29589  0.36790  1.0000
  C   C176      1.0  0.24905  0.31990  0.35801  1.0000
  H   H303      1.0  0.47354  0.41334  0.63378  1.0000
  C   C177      1.0  0.29911  0.34534  0.35890  1.0000
  H   H304      1.0  0.30138  0.27945  0.38212  1.0000
  H   H305      1.0  0.24725  0.27667  0.37128  1.0000
  C   C178      1.0  0.46797  0.11210  0.65648  1.0000
  C   C179      1.0  0.49902  0.39718  0.40239  1.0000
  C   C180      1.0  0.43884  0.47841  0.39698  1.0000
  C   C181      1.0  0.43557  0.46111  0.41112  1.0000
  C   C182      1.0  0.48359  0.47763  0.56240  1.0000
  H   H306      1.0  0.42890  0.43690  0.41044  1.0000
  H   H307      1.0  0.21416  0.21865  0.45080  1.0000
  H   H308      1.0  0.50403  0.44517  0.40980  1.0000
  H   H309      1.0  0.48905  0.02921  0.35621  1.0000
  C   C183      1.0  0.45880  0.05964  0.38211  1.0000
  H   H310      1.0  0.42823  0.08929  0.39819  1.0000
  C   C184      1.0  0.16652  0.20832  0.47011  1.0000
  H   H311      1.0  0.31001  0.43844  0.35453  1.0000
  H   H312      1.0  0.46875  0.04818  0.48065  1.0000
  H   H313      1.0  0.49569  0.03768  0.56162  1.0000
  H   H314      1.0  0.33059  0.44330  0.43833  1.0000
  C   C185      1.0  0.18278  0.17304  0.40180  1.0000
  H   H315      1.0  0.06420  0.28040  0.35124  1.0000
  C   C186      1.0  0.24118  0.28108  0.41263  1.0000
  C   C187      1.0  0.48427  0.24789  0.39304  1.0000
  H   H316      1.0  0.22663  0.26434  0.43550  1.0000
  H   H317      1.0  0.28589  0.41665  0.38732  1.0000
  H   H318      1.0  0.28657  0.45744  0.40938  1.0000
  H   H319      1.0  0.50051  0.48207  0.57220  1.0000
  C   C188      1.0  0.49010  0.26996  0.35190  1.0000
  C   C189      1.0  0.45839  0.03414  0.51246  1.0000
  H   H320      1.0  0.02123  0.20192  0.37322  1.0000
  H   H321      1.0  0.37591  0.41556  0.39680  1.0000
  H   H322      1.0  0.43560  0.11159  0.36610  1.0000
  H   H323      1.0  0.23987  0.17497  0.41561  1.0000
  H   H324      1.0  0.29822  0.41819  0.41455  1.0000
  H   H325      1.0  0.37674  0.47034  0.40093  1.0000
  C   C190      1.0  0.42179  0.01528  0.64066  1.0000
  H   H326      1.0  0.42830  0.03294  0.40788  1.0000
  C   C191      1.0  0.39797  0.24969  0.33898  1.0000
  H   H327      1.0  0.32034  0.40129  0.37703  1.0000
  H   H328      1.0  0.27908  0.41916  0.44251  1.0000
  H   H329      1.0  0.40968  0.07702  0.37989  1.0000
  H   H330      1.0  0.44735  0.49817  0.57729  1.0000
  H   H331      1.0  0.46866  0.05502  0.51812  1.0000
  H   H332      1.0  0.46806  0.49533  0.53046  1.0000
  H   H333      1.0  0.15908  0.23378  0.47043  1.0000
  H   H334      1.0  0.41213  0.38129  0.41502  1.0000
  C   C192      1.0  0.46498  0.40942  0.64616  1.0000
  H   H335      1.0  0.17582  0.17106  0.45312  1.0000
  H   H336      1.0  0.46749  0.28087  0.34896  1.0000
  C   C193      1.0  0.30538  0.42289  0.37933  1.0000
  C   C194      1.0  0.50013  0.27530  0.60751  1.0000
  H   H337      1.0  0.31360  0.36424  0.35524  1.0000
  C   C195      1.0  0.40380  0.05816  0.51792  1.0000
  H   H338      1.0  0.31052  0.47145  0.38558  1.0000
  C   C196      1.0  0.47561  0.02235  0.55991  1.0000
  C   C197      1.0  0.30952  0.45376  0.43229  1.0000
  C   C198      1.0  0.45538  0.23814  0.50021  1.0000
  C   C199      1.0  0.44697  0.03169  0.63444  1.0000
  H   H339      1.0  0.44102  0.42050  0.64740  1.0000
  H   H340      1.0  0.25797  0.24115  0.42632  1.0000
  N   N11       1.0  0.47705  0.08573  0.37476  1.0000
  C   C200      1.0  0.43820  0.23076  0.48469  1.0000
  H   H341      1.0  0.25915  0.45616  0.43680  1.0000
  H   H342      1.0  0.46749  0.21486  0.56202  1.0000
  C   C201      1.0  0.43893  0.47589  0.42621  1.0000
  S   S44       1.0  0.20982  0.31980  0.35136  1.0000
  H   H343      1.0  0.22089  0.22367  0.40492  1.0000
  C   C202      1.0  0.48603  0.02308  0.43310  1.0000
  Fe  Fe25      1.0  0.50105  0.11226  0.57439  1.0000
  H   H344      1.0  0.16643  0.16892  0.42579  1.0000
  H   H345      1.0  0.25109  0.19315  0.43360  1.0000
  H   H346      1.0  0.40389  0.15101  0.63728  1.0000
  H   H347      1.0  0.43477  0.46281  0.43708  1.0000
  H   H348      1.0  0.43970  0.23253  0.51030  1.0000
  H   H349      1.0  0.34202  0.39378  0.40028  1.0000
  H   H350      1.0  0.43034  0.06631  0.49674  1.0000
  H   H351      1.0  0.49794  0.06152  0.34332  1.0000
  H   H352      1.0  0.45046  0.08219  0.35273  1.0000
  C   C203      1.0  0.36697  0.40331  0.42167  1.0000
  H   H353      1.0  0.40795  0.02251  0.38970  1.0000
  H   H354      1.0  0.41753  0.10440  0.65370  1.0000
  S   S45       1.0  0.47005  0.46468  0.61045  1.0000
  C   C204      1.0  0.41234  0.04202  0.39822  1.0000
  H   H355      1.0  0.45196  0.23785  0.47412  1.0000
  H   H356      1.0  0.43426  0.20514  0.48395  1.0000
  H   H357      1.0  0.41508  0.24388  0.48439  1.0000
  H   H358      1.0  0.49719  0.11996  0.34794  1.0000
  C   C205      1.0  0.48740  0.42294  0.65846  1.0000
  H   H359      1.0  0.18942  0.24630  0.41366  1.0000
  H   H360      1.0  0.21924  0.29550  0.41032  1.0000
  H   H361      1.0  0.22595  0.15625  0.45045  1.0000
  C   C206      1.0  0.48717  0.38495  0.41841  1.0000
  C   C207      1.0  0.38986  0.37458  0.42058  1.0000
  C   C208      1.0  0.21096  0.23151  0.41662  1.0000
  H   H362      1.0  0.34686  0.39614  0.42901  1.0000
  H   H363      1.0  0.39532  0.36549  0.43283  1.0000
  H   H364      1.0  0.25874  0.29650  0.41802  1.0000
  C   C209      1.0  0.01364  0.28453  0.35369  1.0000
  S   S46       1.0  0.45347  0.39597  0.34792  1.0000
  C   C210      1.0  0.32506  0.44913  0.38680  1.0000
  C   C211      1.0  0.23126  0.18135  0.42782  1.0000
  C   C212      1.0  0.35517  0.41397  0.40484  1.0000
  C   C213      1.0  0.42648  0.06963  0.38949  1.0000
  H   H365      1.0  0.48226  0.18986  0.52902  1.0000
  H   H366      1.0  0.44995  0.06013  0.54730  1.0000
  H   H367      1.0  0.06752  0.13100  0.33877  1.0000
  H   H368      1.0  0.47833  0.40433  0.39494  1.0000
  S   S47       1.0  0.50248  0.10539  0.54721  1.0000
  H   H369      1.0  0.37967  0.35536  0.41344  1.0000
  H   H370      1.0  0.48679  0.17661  0.55825  1.0000
  C   C214      1.0  0.17563  0.18816  0.41846  1.0000
  H   H371      1.0  0.46820  0.22901  0.53246  1.0000
  C   C215      1.0  0.47554  0.44295  0.56330  1.0000
  C   C216      1.0  0.48681  0.21838  0.50137  1.0000
  H   H372      1.0  0.50001  0.22144  0.49003  1.0000
  H   H373      1.0  0.44328  0.06379  0.66710  1.0000
  H   H374      1.0  0.25829  0.36307  0.34574  1.0000
  H   H375      1.0  0.45375  0.04125  0.37311  1.0000
  H   H376      1.0  0.38187  0.21154  0.35285  1.0000
  C   C217      1.0  0.47314  0.12715  0.35192  1.0000
  C   C218      1.0  0.16928  0.19658  0.45278  1.0000
  C   C219      1.0  0.22757  0.15063  0.43744  1.0000
  H   H377      1.0  0.28335  0.45401  0.45459  1.0000
  H   H378      1.0  0.47312  0.04741  0.39170  1.0000
  H   H379      1.0  0.39841  0.02028  0.63599  1.0000
  H   H380      1.0  0.48767  0.17395  0.39386  1.0000
  H   H381      1.0  0.48623  0.23751  0.40524  1.0000
  C   C220      1.0  0.49054  0.20201  0.56042  1.0000
  S   S48       1.0  0.08354  0.21833  0.36484  1.0000
  H   H382      1.0  0.47485  0.27833  0.60701  1.0000
  C   C221      1.0  0.25604  0.12784  0.43525  1.0000
  H   H383      1.0  0.44315  0.16458  0.63898  1.0000
  C   C222      1.0  0.50010  0.47848  0.35248  1.0000
  C   C223      1.0  0.48279  0.10957  0.38790  1.0000
  H   H384      1.0  0.48277  0.13208  0.65338  1.0000
  H   H385      1.0  0.49853  0.26901  0.39261  1.0000
  C   C224      1.0  0.42670  0.04627  0.50497  1.0000
  N   N12       1.0  0.39521  0.23521  0.38551  1.0000
  C   C225      1.0  0.38115  0.25844  0.39758  1.0000
  C   C226      1.0  0.38996  0.25052  0.36928  1.0000
  C   C227      1.0  0.37684  0.20555  0.38644  1.0000
  C   C228      1.0  0.42958  0.22855  0.38894  1.0000
  C   C229      1.0  0.45024  0.25764  0.38908  1.0000
  C   C230      1.0  0.38847  0.25162  0.41556  1.0000
  C   C231      1.0  0.39383  0.17406  0.38110  1.0000
  C   C232      1.0  0.39903  0.23019  0.35439  1.0000
  H   H386      1.0  0.42554  0.03018  0.55505  1.0000
  H   H387      1.0  0.43597  0.12854  0.62823  1.0000
  C   C233      1.0  0.36667  0.27145  0.42651  1.0000
  C   C234      1.0  0.37142  0.14704  0.38139  1.0000
  H   H388      1.0  0.35513  0.26032  0.39603  1.0000
  H   H389      1.0  0.38902  0.28266  0.39526  1.0000
  H   H390      1.0  0.36463  0.25778  0.36776  1.0000
  H   H391      1.0  0.40196  0.27316  0.36856  1.0000
  H   H392      1.0  0.35439  0.20876  0.37962  1.0000
  H   H393      1.0  0.36902  0.20109  0.39885  1.0000
  H   H394      1.0  0.43264  0.21635  0.40070  1.0000
  H   H395      1.0  0.44020  0.21188  0.38000  1.0000
  H   H396      1.0  0.44218  0.27551  0.39806  1.0000
  H   H397      1.0  0.45000  0.26921  0.37720  1.0000
  H   H398      1.0  0.38632  0.22657  0.41879  1.0000
  H   H399      1.0  0.41277  0.25775  0.41842  1.0000
  H   H400      1.0  0.41352  0.16770  0.38939  1.0000
  H   H401      1.0  0.40373  0.17525  0.36891  1.0000
  H   H402      1.0  0.42300  0.21920  0.35548  1.0000
  H   H403      1.0  0.49557  0.06484  0.49402  1.0000
  C   C235      1.0  0.19298  0.21575  0.44315  1.0000
  H   H404      1.0  0.19950  0.15231  0.40301  1.0000
  C   C236      1.0  0.01923  0.22492  0.36762  1.0000
  C   C237      1.0  0.47695  0.02489  0.64061  1.0000
  C   C238      1.0  0.26791  0.34457  0.35348  1.0000
  H   H405      1.0  0.45361  0.01826  0.52266  1.0000
  H   H406      1.0  0.37335  0.26708  0.43924  1.0000
  H   H407      1.0  0.36848  0.29697  0.42392  1.0000
  H   H408      1.0  0.34201  0.26479  0.42480  1.0000
  H   H409      1.0  0.36520  0.14152  0.39398  1.0000
  H   H410      1.0  0.34968  0.15321  0.37447  1.0000
  H   H411      1.0  0.38275  0.12564  0.37592  1.0000
  N   N13       1.0  0.33522  0.44437  0.40408  1.0000
  H   H412      1.0  0.37930  0.42211  0.42802  1.0000
  H   H413      1.0  0.25386  0.10697  0.44313  1.0000
  N   N14       1.0  0.20264  0.20349  0.42672  1.0000
  H   H414      1.0  0.48403  0.46000  0.34868  1.0000
  S   S49       1.0  0.48974  0.21162  0.60677  1.0000
  H   H415      1.0  0.38196  0.06803  0.51218  1.0000
  H   H416      1.0  0.27803  0.13946  0.43848  1.0000
  C   C239      1.0  0.42894  0.14328  0.63876  1.0000
  H   H417      1.0  0.46393  0.46865  0.65663  1.0000
  H   H418      1.0  0.14199  0.14382  0.40140  1.0000
  H   H419      1.0  0.14563  0.19948  0.44718  1.0000
  C   C240      1.0  0.15301  0.16172  0.39383  1.0000
  H   H420      1.0  0.48050  0.19321  0.50124  1.0000
  C   C241      1.0  0.48873  0.45939  0.65677  1.0000
  H   H421      1.0  0.15903  0.15081  0.38202  1.0000
  Fe  Fe26      1.0  0.45588  0.34968  0.36089  1.0000
  N   N15       1.0  0.48143  0.01840  0.50096  1.0000
  H   H422      1.0  0.19293  0.18992  0.39346  1.0000
  S   S50       1.0  0.43994  0.06103  0.61936  1.0000
  H   H423      1.0  0.25750  0.11952  0.42261  1.0000
  H   H424      1.0  0.42981  0.14471  0.34037  1.0000
  S   S51       1.0  0.41517  0.33058  0.34747  1.0000
  H   H425      1.0  0.46373  0.38357  0.64798  1.0000
  H   H426      1.0  0.41625  0.05031  0.44856  1.0000
  H   H427      1.0  0.49860  0.29230  0.44015  1.0000
  C   C242      1.0  0.23511  0.25383  0.42402  1.0000
  H   H428      1.0  0.20661  0.13809  0.43362  1.0000
  H   H429      1.0  0.49603  0.48103  0.55098  1.0000
  S   S52       1.0  0.37813  0.40005  0.35470  1.0000
  C   C243      1.0  0.43587  0.03412  0.44587  1.0000
  H   H430      1.0  0.38975  0.05001  0.40380  1.0000
  H   H431      1.0  0.31216  0.27181  0.33893  1.0000
  H   H432      1.0  0.14875  0.19488  0.47655  1.0000
  C   C244      1.0  0.49017  0.21434  0.53060  1.0000
  H   H433      1.0  0.13593  0.18189  0.39169  1.0000
  C   C245      1.0  0.49962  0.24385  0.44794  1.0000
  H   H434      1.0  0.27705  0.41443  0.35819  1.0000
  H   H435      1.0  0.47396  0.14858  0.35957  1.0000
  H   H436      1.0  0.49004  0.32166  0.56319  1.0000
  H   H437      1.0  0.47908  0.22418  0.34264  1.0000
  C   C246      1.0  0.28096  0.44519  0.44209  1.0000
  S   S53       1.0  0.50401  0.32696  0.36572  1.0000
  Fe  Fe27      1.0  0.50151  0.15902  0.60230  1.0000
  H   H438      1.0  0.50200  0.10766  0.51303  1.0000
  H   H439      1.0  0.36403  0.46948  0.42100  1.0000
  H   H440      1.0  0.37595  0.26460  0.33820  1.0000
  H   H441      1.0  0.49625  0.46605  0.38390  1.0000
  H   H442      1.0  0.27552  0.45487  0.36473  1.0000
  H   H443      1.0  0.49074  0.27320  0.52087  1.0000
  H   H444      1.0  0.47337  0.40382  0.42487  1.0000
  S   S54       1.0  0.21652  0.23467  0.33788  1.0000
  H   H445      1.0  0.42537  0.14007  0.66433  1.0000
  S   S55       1.0  0.14395  0.26498  0.33713  1.0000
  C   C247      1.0  0.30646  0.44275  0.41453  1.0000
  C   C248      1.0  0.49668  0.23789  0.34838  1.0000
  H   H446      1.0  0.49712  0.42773  0.56162  1.0000
  H   H447      1.0  0.34593  0.45185  0.37896  1.0000
  H   H448      1.0  0.48641  0.49720  0.35913  1.0000
  H   H449      1.0  0.48619  0.09746  0.39965  1.0000
  C   C249      1.0  0.45401  0.13657  0.33701  1.0000
  H   H450      1.0  0.46956  0.01716  0.58511  1.0000
  H   H451      1.0  0.46533  0.43768  0.57521  1.0000
  C   C250      1.0  0.29120  0.43343  0.36321  1.0000
  H   H452      1.0  0.41828  0.26497  0.33851  1.0000
  C   C251      1.0  0.35535  0.47140  0.40846  1.0000
  H   H453      1.0  0.50354  0.06910  0.45943  1.0000
  C   C252      1.0  0.48171  0.00259  0.65303  1.0000
  H   H454      1.0  0.47927  0.41634  0.67057  1.0000
  Fe  Fe28      1.0  0.08417  0.44665  0.95501  1.0000
  S   S56       1.0  0.05092  0.41845  0.94034  1.0000
  S   S57       1.0  0.11369  0.48731  0.94642  1.0000
  Fe  Fe29      1.0  0.06014  0.41946  0.98716  1.0000
  C   C253      1.0  0.45213  0.07654  0.67782  1.0000
  C   C254      1.0  0.48950  0.48200  0.71566  1.0000
  Fe  Fe30      1.0  0.06241  0.37769  0.95748  1.0000
  S   S58       1.0  0.07447  0.32499  0.95266  1.0000
  C   C255      1.0  0.48855  0.11852  0.70174  1.0000
  H   H455      1.0  0.43144  0.09012  0.68284  1.0000
  S   S59       1.0  0.09938  0.40475  0.97058  1.0000
  S   S60       1.0  0.04821  0.46344  0.97317  1.0000
  S   S61       1.0  0.03914  0.12725  0.97485  1.0000
  S   S62       1.0  0.09382  0.06586  0.95150  1.0000
  H   H456      1.0  0.04795  0.47467  0.89678  1.0000
  H   H457      1.0  0.10689  0.23799  0.97636  1.0000
  H   H458      1.0  0.02863  0.33361  0.99486  1.0000
  C   C256      1.0  0.09291  0.02524  0.94699  1.0000
  C   C257      1.0  0.05111  0.29130  0.95471  1.0000
  H   H459      1.0  0.11744  0.28793  0.97624  1.0000
  H   H460      1.0  0.41971  0.02361  0.68565  1.0000
  C   C258      1.0  0.02639  0.47978  0.90391  1.0000
  H   H461      1.0  0.50413  0.44644  0.69049  1.0000
  S   S63       1.0  0.02384  0.39171  0.97456  1.0000
  C   C259      1.0  0.49727  0.49487  0.69909  1.0000
  H   H462      1.0  0.00824  0.31693  0.96097  1.0000
  H   H463      1.0  0.12718  0.18744  0.98707  1.0000
  H   H464      1.0  0.10277  0.46513  0.91360  1.0000
  H   H465      1.0  0.07077  0.29414  0.98921  1.0000
  C   C260      1.0  0.49382  0.46928  0.68584  1.0000
  H   H466      1.0  0.46529  0.47347  0.71580  1.0000
  H   H467      1.0  0.08937  0.25863  0.94853  1.0000
  C   C261      1.0  0.01939  0.29384  0.95894  1.0000
  H   H468      1.0  0.47739  0.03168  0.68364  1.0000
  H   H469      1.0  0.07840  0.09849  0.99965  1.0000
  Fe  Fe31      1.0  0.04580  0.08881  0.95637  1.0000
  H   H470      1.0  0.03290  0.48248  0.91676  1.0000
  H   H471      1.0  0.44109  0.01282  0.70362  1.0000
  H   H472      1.0  0.49479  0.14398  0.67948  1.0000
  H   H473      1.0  0.47424  0.16504  0.71120  1.0000
  H   H474      1.0  0.04294  0.02611  0.94374  1.0000
  H   H475      1.0  0.08072  0.02589  0.98190  1.0000
  H   H476      1.0  0.15393  0.28081  0.98590  1.0000
  C   C262      1.0  0.04751  0.23356  0.95339  1.0000
  C   C263      1.0  0.12067  0.00607  0.94670  1.0000
  H   H477      1.0  0.14567  0.32879  0.96024  1.0000
  H   H478      1.0  0.14082  0.23802  0.00104  1.0000
  H   H479      1.0  0.46816  0.46579  0.68490  1.0000
  C   C264      1.0  0.07982  0.03254  0.99477  1.0000
  H   H480      1.0  0.13635  0.00254  0.98435  1.0000
  C   C265      1.0  0.06497  0.26096  0.95197  1.0000
  H   H481      1.0  0.45559  0.13935  0.68514  1.0000
  H   H482      1.0  0.05854  0.21052  0.95108  1.0000
  C   C266      1.0  0.09803  0.23101  0.98825  1.0000
  H   H483      1.0  0.46908  0.10725  0.70799  1.0000
  C   C267      1.0  0.15697  0.33634  0.97157  1.0000
  H   H484      1.0  0.07249  0.23718  0.98876  1.0000
  H   H485      1.0  0.14297  0.01654  0.94870  1.0000
  H   H486      1.0  0.01122  0.45931  0.90284  1.0000
  H   H487      1.0  0.05713  0.04654  0.99577  1.0000
  H   H488      1.0  0.02183  0.49589  0.94611  1.0000
  Fe  Fe32      1.0  0.01557  0.43458  0.95894  1.0000
  H   H489      1.0  0.47487  0.05806  0.70030  1.0000
  S   S64       1.0  0.01268  0.11254  0.93843  1.0000
  C   C268      1.0  0.10232  0.19508  0.98926  1.0000
  C   C269      1.0  0.10736  0.48998  0.91310  1.0000
  H   H490      1.0  0.10611  0.49197  0.88719  1.0000
  H   H491      1.0  0.16039  0.36209  0.97082  1.0000
  H   H492      1.0  0.08759  0.18412  0.97994  1.0000
  C   C270      1.0  0.01563  0.23615  0.95729  1.0000
  C   C271      1.0  0.43331  0.03301  0.69586  1.0000
  C   C272      1.0  0.07988  0.29367  0.00179  1.0000
  C   C273      1.0  0.46190  0.04968  0.68976  1.0000
  C   C274      1.0  0.47870  0.12634  0.68426  1.0000
  N   N16       1.0  0.47698  0.09884  0.67281  1.0000
  C   C275      1.0  0.06431  0.01157  0.94424  1.0000
  H   H493      1.0  0.14803  0.33881  0.99677  1.0000
  C   C276      1.0  0.13630  0.32951  0.98599  1.0000
  C   C277      1.0  0.11606  0.24720  0.00202  1.0000
  H   H494      1.0  0.41790  0.04949  0.70300  1.0000
  H   H495      1.0  0.11662  0.06189  0.98580  1.0000
  H   H496      1.0  0.09522  0.18651  0.00122  1.0000
  S   S65       1.0  0.01027  0.05837  0.96735  1.0000
  N   N17       1.0  0.11423  0.28291  0.00207  1.0000
  H   H497      1.0  0.11362  0.34260  0.98405  1.0000
  H   H498      1.0  0.18034  0.32394  0.97279  1.0000
  C   C278      1.0  0.13084  0.29383  0.98725  1.0000
  C   C279      1.0  0.10726  0.05488  0.99765  1.0000
  H   H499      1.0  0.49114  0.50101  0.72478  1.0000
  C   C280      1.0  0.49523  0.14851  0.71112  1.0000
  H   H500      1.0  0.50137  0.14235  0.72374  1.0000
  H   H501      1.0  0.10212  0.54418  0.05186  1.0000
  H   H502      1.0  0.17869  0.97981  0.14709  1.0000
  H   H503      1.0  0.03566  0.65154  0.05731  1.0000
  H   H504      1.0  0.08343  0.91592  0.13829  1.0000
  S   S66       1.0  0.07140  0.55730  0.11185  1.0000
  H   H505      1.0  0.09482  0.91972  0.15845  1.0000
  C   C281      1.0  0.17341  0.95950  0.13924  1.0000
  C   C282      1.0  0.02658  0.72616  0.10926  1.0000
  H   H506      1.0  0.06215  0.67501  0.04621  1.0000
  Fe  Fe33      1.0  0.03950  0.86903  0.10165  1.0000
  S   S67       1.0  0.07952  0.89470  0.09066  1.0000
  S   S68       1.0  0.05267  0.81766  0.10832  1.0000
  H   H507      1.0  0.06836  0.75140  0.10455  1.0000
  S   S69       1.0  0.03090  0.95491  0.08559  1.0000
  Fe  Fe34      1.0  0.04461  0.91093  0.07186  1.0000
  S   S70       1.0  0.04603  0.91403  0.04461  1.0000
  Fe  Fe35      1.0  0.06204  0.93666  0.10552  1.0000
  S   S71       1.0  0.09458  0.97202  0.11668  1.0000
  C   C283      1.0  0.06792  0.51641  0.11470  1.0000
  S   S72       1.0  0.02462  0.91014  0.11784  1.0000
  H   H508      1.0  0.10299  0.95738  0.00688  1.0000
  C   C284      1.0  0.02926  0.78394  0.10950  1.0000
  H   H509      1.0  0.05804  0.83710  0.00758  1.0000
  C   C285      1.0  0.08597  0.80295  0.05290  1.0000
  C   C286      1.0  0.06814  0.78284  0.02570  1.0000
  H   H510      1.0  0.12362  0.79856  0.12093  1.0000
  H   H511      1.0  0.12729  0.98829  0.01203  1.0000
  H   H512      1.0  0.17909  0.87325  0.18574  1.0000
  H   H513      1.0  0.06606  0.83205  0.03419  1.0000
  H   H514      1.0  0.01785  0.51948  0.11774  1.0000
  C   C287      1.0  0.00747  0.59823  0.17196  1.0000
  H   H515      1.0  0.10523  0.81668  0.03037  1.0000
  C   C288      1.0  0.01415  0.69427  0.04675  1.0000
  H   H516      1.0  0.10928  0.53723  0.07304  1.0000
  H   H517      1.0  0.10287  0.59389  0.06696  1.0000
  H   H518      1.0  0.03820  0.70309  0.10789  1.0000
  H   H519      1.0  0.04907  0.68788  0.06584  1.0000
  C   C289      1.0  0.06555  0.88016  0.15377  1.0000
  H   H520      1.0  0.06315  0.79750  0.05833  1.0000
  C   C290      1.0  0.12857  0.87820  0.01322  1.0000
  C   C291      1.0  0.13186  0.87890  0.03002  1.0000
  C   C292      1.0  0.10674  0.88961  0.03987  1.0000
  C   C293      1.0  0.07819  0.89988  0.03294  1.0000
  C   C294      1.0  0.07496  0.89936  0.01617  1.0000
  H   H521      1.0  0.04374  0.56481  0.18110  1.0000
  H   H522      1.0  0.15392  0.87102  0.03544  1.0000
  H   H523      1.0  0.10955  0.89004  0.05278  1.0000
  H   H524      1.0  0.05297  0.90725  0.01071  1.0000
  C   C295      1.0  0.04192  0.67609  0.05456  1.0000
  C   C296      1.0  0.15352  0.93662  0.14846  1.0000
  H   H525      1.0  0.05291  0.99295  0.17118  1.0000
  H   H526      1.0  0.02150  0.71815  0.04354  1.0000
  H   H527      1.0  0.16749  0.89672  0.13434  1.0000
  H   H528      1.0  0.05638  0.52401  0.07807  1.0000
  H   H529      1.0  0.10798  0.88042  0.17992  1.0000
  H   H530      1.0  0.06460  0.58863  0.05836  1.0000
  C   C297      1.0  0.09997  0.88857  0.00636  1.0000
  H   H531      1.0  0.02409  0.81578  0.01089  1.0000
  H   H532      1.0  0.01840  0.74507  0.01795  1.0000
  H   H533      1.0  0.01056  0.61514  0.18197  1.0000
  H   H534      1.0  0.05295  0.96660  0.14447  1.0000
  C   C298      1.0  0.08202  0.81069  0.03507  1.0000
  H   H535      1.0  0.14884  0.87965  0.20057  1.0000
  C   C299      1.0  0.13826  0.86857  0.15917  1.0000
  H   H536      1.0  0.08899  0.96818  0.03313  1.0000
  Fe  Fe36      1.0  0.02530  0.58350  0.10664  1.0000
  H   H537      1.0  0.02906  0.91791  0.15468  1.0000
  H   H538      1.0  0.05094  0.53042  0.03269  1.0000
  H   H539      1.0  0.09477  0.52171  0.01372  1.0000
  H   H540      1.0  0.09510  0.82365  0.05931  1.0000
  H   H541      1.0  0.16063  0.96879  0.12848  1.0000
  H   H542      1.0  0.03660  0.56209  0.15968  1.0000
  H   H543      1.0  0.15811  0.80358  0.10896  1.0000
  C   C300      1.0  0.14469  0.90854  0.13770  1.0000
  H   H544      1.0  0.16797  0.92799  0.15877  1.0000
  C   C301      1.0  0.08999  0.99359  0.13498  1.0000
  H   H545      1.0  0.05765  0.59440  0.16770  1.0000
  H   H546      1.0  0.07433  0.86070  0.16170  1.0000
  H   H547      1.0  0.02005  0.88257  0.16534  1.0000
  H   H548      1.0  0.04783  0.96665  0.01060  1.0000
  H   H549      1.0  0.13433  0.91831  0.12633  1.0000
  H   H550      1.0  0.13256  0.95028  0.15290  1.0000
  H   H551      1.0  0.19588  0.94761  0.13538  1.0000
  H   H552      1.0  0.04770  0.90894  0.17380  1.0000
  H   H553      1.0  0.15121  0.84314  0.18941  1.0000
  C   C302      1.0  0.07400  0.98970  0.03560  1.0000
  C   C303      1.0  0.08190  0.57940  0.06740  1.0000
  C   C304      1.0  0.11680  0.86086  0.13202  1.0000
  N   N18       1.0  0.12310  0.88512  0.14485  1.0000
  H   H554      1.0  0.13553  0.90961  0.17603  1.0000
  C   C305      1.0  0.03903  0.89863  0.16243  1.0000
  C   C306      1.0  0.14606  0.84331  0.12462  1.0000
  C   C307      1.0  0.10845  0.98189  0.00349  1.0000
  C   C308      1.0  0.09143  0.54485  0.06394  1.0000
  C   C309      1.0  0.07418  0.50672  0.01295  1.0000
  H   H555      1.0  0.10292  0.78254  0.05459  1.0000
  C   C310      1.0  0.13677  0.81587  0.11395  1.0000
  H   H556      1.0  0.05544  0.86916  0.14291  1.0000
  C   C311      1.0  0.13234  0.88390  0.17596  1.0000
  C   C312      1.0  0.06874  0.98525  0.14681  1.0000
  C   C313      1.0  0.02006  0.74974  0.00493  1.0000
  H   H557      1.0  0.10309  0.87200  0.12194  1.0000
  H   H558      1.0  0.10183  0.84227  0.13682  1.0000
  H   H559      1.0  0.13027  0.84400  0.16020  1.0000
  C   C314      1.0  0.04366  0.75365  0.10739  1.0000
  H   H560      1.0  0.07145  0.58190  0.07953  1.0000
  H   H561      1.0  0.16408  0.86570  0.15737  1.0000
  H   H562      1.0  0.04258  0.53625  0.05901  1.0000
  H   H563      1.0  0.13124  0.77201  0.01964  1.0000
  H   H564      1.0  0.16208  0.83375  0.13414  1.0000
  H   H565      1.0  0.15902  0.85947  0.11687  1.0000
  C   C315      1.0  0.15428  0.86896  0.18865  1.0000
  H   H566      1.0  0.04423  0.78063  0.03065  1.0000
  C   C316      1.0  0.09217  0.90191  0.14884  1.0000
  H   H567      1.0  0.12193  0.82473  0.10378  1.0000
  H   H568      1.0  0.08127  0.76049  0.02903  1.0000
  S   S73       1.0  0.01937  0.62764  0.09172  1.0000
  C   C317      1.0  0.03818  0.57857  0.17003  1.0000
  N   N19       1.0  0.06679  0.78659  0.00769  1.0000
  H   H569      1.0  0.01404  0.80222  0.07808  1.0000
  C   C318      1.0  0.06287  0.52387  0.06513  1.0000
  H   H570      1.0  0.06890  0.73612  0.00363  1.0000
  C   C319      1.0  0.03853  0.50394  0.11692  1.0000
  C   C320      1.0  0.12539  0.76716  0.00690  1.0000
  H   H571      1.0  0.00838  0.68160  0.03548  1.0000
  H   H572      1.0  0.04917  0.98305  0.03604  1.0000
  S   S74       1.0  0.00578  0.88317  0.08194  1.0000
  C   C321      1.0  0.06866  0.00037  0.16192  1.0000
  C   C322      1.0  0.05744  0.50577  0.02915  1.0000
  H   H573      1.0  0.11846  0.74240  0.00598  1.0000
  H   H574      1.0  0.01551  0.75111  0.06503  1.0000
  H   H575      1.0  0.07745  0.98367  0.06141  1.0000
  H   H576      1.0  0.11755  0.50544  0.11279  1.0000
  H   H577      1.0  0.05803  0.51662  0.00363  1.0000
  C   C323      1.0  0.04619  0.81547  0.00383  1.0000
  S   S75       1.0  0.46173  0.61207  0.46827  1.0000
  H   H578      1.0  0.40235  0.87631  0.62333  1.0000
  Fe  Fe37      1.0  0.47619  0.56745  0.45442  1.0000
  S   S76       1.0  0.44608  0.52674  0.44647  1.0000
  H   H579      1.0  0.37504  0.83755  0.65049  1.0000
  C   C324      1.0  0.50214  0.88178  0.64520  1.0000
  Fe  Fe38      1.0  0.40490  0.66203  0.58629  1.0000
  S   S77       1.0  0.45251  0.66964  0.59657  1.0000
  S   S78       1.0  0.39591  0.64868  0.56028  1.0000
  Fe  Fe39      1.0  0.37088  0.67937  0.61827  1.0000
  S   S79       1.0  0.41656  0.68713  0.63085  1.0000
  S   S80       1.0  0.32204  0.69447  0.62769  1.0000
  Fe  Fe40      1.0  0.43045  0.71247  0.60859  1.0000
  S   S81       1.0  0.44903  0.76138  0.61097  1.0000
  Fe  Fe41      1.0  0.43455  0.64348  0.61780  1.0000
  S   S82       1.0  0.46976  0.60938  0.62930  1.0000
  S   S83       1.0  0.38408  0.70725  0.59652  1.0000
  S   S84       1.0  0.38785  0.63319  0.60691  1.0000
  H   H580      1.0  0.35858  0.84278  0.63121  1.0000
  H   H581      1.0  0.49338  0.52858  0.53037  1.0000
  H   H582      1.0  0.24557  0.72576  0.66952  1.0000
  H   H583      1.0  0.38345  0.55590  0.59121  1.0000
  H   H584      1.0  0.31695  0.84741  0.65172  1.0000
  H   H585      1.0  0.36723  0.72623  0.64623  1.0000
  H   H586      1.0  0.48546  0.56999  0.58552  1.0000
  H   H587      1.0  0.42447  0.81241  0.63773  1.0000
  H   H588      1.0  0.49035  0.75436  0.66517  1.0000
  H   H589      1.0  0.30696  0.83473  0.63188  1.0000
  C   C325      1.0  0.48799  0.80302  0.49104  1.0000
  H   H590      1.0  0.48637  0.75784  0.47975  1.0000
  H   H591      1.0  0.38181  0.77307  0.61873  1.0000
  C   C326      1.0  0.37382  0.82637  0.63841  1.0000
  C   C327      1.0  0.46950  0.56966  0.62320  1.0000
  C   C328      1.0  0.44216  0.52396  0.61398  1.0000
  C   C329      1.0  0.44205  0.55633  0.61773  1.0000
  H   H592      1.0  0.42057  0.57075  0.61681  1.0000
  H   H593      1.0  0.42039  0.87004  0.64287  1.0000
  C   C330      1.0  0.30750  0.69421  0.64772  1.0000
  C   C331      1.0  0.32196  0.67585  0.65983  1.0000
  C   C332      1.0  0.27365  0.82376  0.64991  1.0000
  H   H594      1.0  0.34639  0.74539  0.66244  1.0000
  H   H595      1.0  0.46846  0.93679  0.57197  1.0000
  C   C333      1.0  0.28005  0.71243  0.65142  1.0000
  H   H596      1.0  0.34301  0.66166  0.65718  1.0000
  H   H597      1.0  0.49503  0.91488  0.52988  1.0000
  C   C334      1.0  0.11557  0.74922  0.65684  1.0000
  H   H598      1.0  0.26866  0.72671  0.64217  1.0000
  H   H599      1.0  0.45022  0.94836  0.59542  1.0000
  H   H600      1.0  0.43730  0.55065  0.58203  1.0000
  H   H601      1.0  0.25986  0.84640  0.64834  1.0000
  H   H602      1.0  0.44955  0.57337  0.66357  1.0000
  H   H603      1.0  0.26271  0.80528  0.64259  1.0000
  H   H604      1.0  0.43403  0.52085  0.50993  1.0000
  C   C335      1.0  0.47439  0.61861  0.52520  1.0000
  C   C336      1.0  0.44325  0.62157  0.51997  1.0000
  C   C337      1.0  0.41944  0.63111  0.53083  1.0000
  C   C338      1.0  0.42663  0.63814  0.54689  1.0000
  C   C339      1.0  0.45792  0.63622  0.55194  1.0000
  C   C340      1.0  0.48167  0.62652  0.54112  1.0000
  H   H605      1.0  0.43741  0.61561  0.50771  1.0000
  H   H606      1.0  0.39527  0.63264  0.52684  1.0000
  H   H607      1.0  0.46376  0.64162  0.56424  1.0000
  C   C341      1.0  0.13181  0.84367  0.62867  1.0000
  H   H608      1.0  0.38960  0.55695  0.55443  1.0000
  C   C342      1.0  0.46132  0.98156  0.44767  1.0000
  H   H609      1.0  0.42081  0.51361  0.60995  1.0000
  C   C343      1.0  0.33714  0.79498  0.61104  1.0000
  C   C344      1.0  0.48337  0.75047  0.65248  1.0000
  C   C345      1.0  0.42651  0.99279  0.65308  1.0000
  N   N20       1.0  0.45618  0.72126  0.50343  1.0000
  C   C346      1.0  0.44846  0.70805  0.48708  1.0000
  H   H610      1.0  0.47161  0.95913  0.54577  1.0000
  C   C347      1.0  0.42842  0.71642  0.51424  1.0000
  C   C348      1.0  0.46119  0.75627  0.50282  1.0000
  H   H611      1.0  0.44565  0.94369  0.62516  1.0000
  C   C349      1.0  0.41744  0.72114  0.47927  1.0000
  C   C350      1.0  0.43387  0.72117  0.53256  1.0000
  H   H612      1.0  0.11835  0.75701  0.64425  1.0000
  H   H613      1.0  0.34728  0.55364  0.41294  1.0000
  C   C351      1.0  0.32808  0.79705  0.64772  1.0000
  C   C352      1.0  0.41393  0.70905  0.46209  1.0000
  C   C353      1.0  0.40278  0.72335  0.54162  1.0000
  H   H614      1.0  0.44689  0.68190  0.48790  1.0000
  H   H615      1.0  0.46746  0.71156  0.47832  1.0000
  H   H616      1.0  0.09292  0.73765  0.65804  1.0000
  H   H617      1.0  0.46319  0.52231  0.65168  1.0000
  H   H618      1.0  0.42014  0.69199  0.51276  1.0000
  H   H619      1.0  0.40825  0.73257  0.51072  1.0000
  H   H620      1.0  0.43931  0.76952  0.49909  1.0000
  H   H621      1.0  0.47869  0.92070  0.61718  1.0000
  H   H622      1.0  0.13945  0.70392  0.65183  1.0000
  H   H623      1.0  0.49624  0.71919  0.55159  1.0000
  H   H624      1.0  0.39695  0.71337  0.48613  1.0000
  H   H625      1.0  0.41645  0.74727  0.47875  1.0000
  H   H626      1.0  0.44631  0.74286  0.53528  1.0000
  H   H627      1.0  0.46629  0.76545  0.51499  1.0000
  C   C354      1.0  0.11735  0.77737  0.66869  1.0000
  C   C355      1.0  0.14150  0.72402  0.66028  1.0000
  H   H628      1.0  0.48819  0.81329  0.61734  1.0000
  H   H629      1.0  0.33048  0.79613  0.66099  1.0000
  H   H630      1.0  0.50283  0.67083  0.49208  1.0000
  C   C356      1.0  0.35813  0.52975  0.41519  1.0000
  C   C357      1.0  0.46513  0.96248  0.60329  1.0000
  H   H631      1.0  0.40416  0.76814  0.64422  1.0000
  H   H632      1.0  0.41704  0.68289  0.46161  1.0000
  H   H633      1.0  0.39024  0.71603  0.45740  1.0000
  H   H634      1.0  0.43149  0.71956  0.45418  1.0000
  H   H635      1.0  0.38917  0.74543  0.53845  1.0000
  H   H636      1.0  0.38852  0.70284  0.53869  1.0000
  H   H637      1.0  0.40731  0.72332  0.55477  1.0000
  H   H638      1.0  0.16500  0.73377  0.65872  1.0000
  H   H639      1.0  0.42347  0.52906  0.53936  1.0000
  H   H640      1.0  0.44209  0.86026  0.62485  1.0000
  H   H641      1.0  0.38830  0.78810  0.66140  1.0000
  C   C358      1.0  0.35805  0.77793  0.62384  1.0000
  H   H642      1.0  0.39338  0.52211  0.56688  1.0000
  Fe  Fe42      1.0  0.49946  0.63540  0.45414  1.0000
  H   H643      1.0  0.48141  0.70057  0.65562  1.0000
  H   H644      1.0  0.44545  0.56363  0.53875  1.0000
  S   S85       1.0  0.48927  0.68603  0.44536  1.0000
  H   H645      1.0  0.49030  0.81376  0.50314  1.0000
  C   C359      1.0  0.41852  0.86054  0.63047  1.0000
  H   H646      1.0  0.38292  0.52947  0.41118  1.0000
  C   C360      1.0  0.49793  0.75012  0.44584  1.0000
  C   C361      1.0  0.48798  0.54625  0.56202  1.0000
  C   C362      1.0  0.45230  0.96648  0.50410  1.0000
  H   H647      1.0  0.50182  0.65177  0.65119  1.0000
  C   C363      1.0  0.45654  0.98654  0.65947  1.0000
  C   C364      1.0  0.49790  0.54920  0.57987  1.0000
  C   C365      1.0  0.40693  0.82698  0.63081  1.0000
  H   H648      1.0  0.14180  0.78502  0.66840  1.0000
  C   C366      1.0  0.48446  0.70343  0.51050  1.0000
  C   C367      1.0  0.49728  0.51849  0.62065  1.0000
  C   C368      1.0  0.45235  0.52424  0.41322  1.0000
  C   C369      1.0  0.38183  0.77441  0.65055  1.0000
  C   C370      1.0  0.47296  0.56227  0.66647  1.0000
  H   H649      1.0  0.48302  0.71311  0.63502  1.0000
  C   C371      1.0  0.48954  0.76542  0.60849  1.0000
  H   H650      1.0  0.42387  0.94572  0.48540  1.0000
  H   H651      1.0  0.35205  0.55978  0.57672  1.0000
  N   N21       1.0  0.09394  0.80470  0.66607  1.0000
  H   H652      1.0  0.47279  0.90081  0.54659  1.0000
  H   H653      1.0  0.40684  0.98081  0.65792  1.0000
  H   H654      1.0  0.48928  0.57011  0.55664  1.0000
  H   H655      1.0  0.49509  0.71762  0.52016  1.0000
  C   C372      1.0  0.06148  0.79186  0.66677  1.0000
  H   H656      1.0  0.37970  0.59034  0.57840  1.0000
  H   H657      1.0  0.49854  0.71860  0.59915  1.0000
  H   H658      1.0  0.08026  0.83957  0.64814  1.0000
  H   H659      1.0  0.11307  0.86198  0.62595  1.0000
  C   C373      1.0  0.30750  0.82766  0.64465  1.0000
  H   H660      1.0  0.45056  0.52345  0.38731  1.0000
  N   N22       1.0  0.45590  0.53377  0.55923  1.0000
  C   C374      1.0  0.44784  0.50982  0.39814  1.0000
  C   C375      1.0  0.49310  0.94657  0.55044  1.0000
  H   H661      1.0  0.40648  0.81829  0.61824  1.0000
  S   S86       1.0  0.46180  0.94256  0.45485  1.0000
  H   H662      1.0  0.14950  0.81545  0.64820  1.0000
  H   H663      1.0  0.31224  0.79517  0.61480  1.0000
  H   H664      1.0  0.13333  0.85420  0.65374  1.0000
  C   C376      1.0  0.43275  0.55395  0.56897  1.0000
  H   H665      1.0  0.44880  0.98953  0.57371  1.0000
  C   C377      1.0  0.39207  0.72680  0.66863  1.0000
  H   H666      1.0  0.43156  0.97757  0.51024  1.0000
  H   H667      1.0  0.09217  0.80256  0.64009  1.0000
  H   H668      1.0  0.46603  0.81244  0.48524  1.0000
  H   H669      1.0  0.03440  0.83491  0.65856  1.0000
  H   H670      1.0  0.45833  0.54872  0.41388  1.0000
  C   C378      1.0  0.26688  0.71195  0.66695  1.0000
  H   H671      1.0  0.48600  0.97695  0.48576  1.0000
  H   H672      1.0  0.34852  0.75422  0.62536  1.0000
  H   H673      1.0  0.34102  0.51140  0.39303  1.0000
  H   H674      1.0  0.34418  0.81947  0.60906  1.0000
  C   C379      1.0  0.44710  0.53800  0.54174  1.0000
  C   C380      1.0  0.49403  0.91335  0.54319  1.0000
  H   H675      1.0  0.43573  0.57951  0.56660  1.0000
  H   H676      1.0  0.45225  0.98542  0.60564  1.0000
  H   H677      1.0  0.41620  0.99455  0.45785  1.0000
  C   C381      1.0  0.49269  0.71676  0.64723  1.0000
  H   H678      1.0  0.12948  0.82328  0.62042  1.0000
  C   C382      1.0  0.46764  0.99040  0.49279  1.0000
  H   H679      1.0  0.45762  0.75453  0.65143  1.0000
  C   C383      1.0  0.44698  0.50767  0.42737  1.0000
  H   H680      1.0  0.49054  0.57272  0.65854  1.0000
  H   H681      1.0  0.36364  0.77654  0.59046  1.0000
  C   C384      1.0  0.33910  0.77794  0.59489  1.0000
  N   N23       1.0  0.36006  0.79430  0.63987  1.0000
  H   H682      1.0  0.32423  0.79101  0.58593  1.0000
  H   H683      1.0  0.48467  0.95749  0.62746  1.0000
  H   H684      1.0  0.49215  0.52788  0.58668  1.0000
  C   C385      1.0  0.48823  0.76702  0.49214  1.0000
  C   C386      1.0  0.12993  0.83308  0.64616  1.0000
  H   H685      1.0  0.33036  0.75377  0.59603  1.0000
  C   C387      1.0  0.46888  0.52128  0.52921  1.0000
  C   C388      1.0  0.39758  0.54769  0.56630  1.0000
  C   C389      1.0  0.03351  0.81665  0.66800  1.0000
  C   C390      1.0  0.47188  0.00058  0.57470  1.0000
  H   H686      1.0  0.46914  0.95740  0.51331  1.0000
  H   H687      1.0  0.47568  0.75214  0.43958  1.0000
  Fe  Fe43      1.0  0.50073  0.59880  0.48550  1.0000
  H   H688      1.0  0.45802  0.55483  0.50987  1.0000
  C   C391      1.0  0.09768  0.81955  0.64978  1.0000
  H   H689      1.0  0.31422  0.77626  0.64451  1.0000
  C   C392      1.0  0.46983  0.50502  0.61541  1.0000
  H   H690      1.0  0.15488  0.85391  0.62649  1.0000
  N   N24       1.0  0.49765  0.97564  0.57792  1.0000
  C   C393      1.0  0.36950  0.74258  0.65647  1.0000
  C   C394      1.0  0.37705  0.56446  0.57898  1.0000
  H   H691      1.0  0.44985  0.99820  0.48368  1.0000
  C   C395      1.0  0.49710  0.55067  0.62462  1.0000
  H   H692      1.0  0.46116  0.92485  0.48917  1.0000
  C   C396      1.0  0.44102  0.93805  0.49484  1.0000
  H   H693      1.0  0.42945  0.92187  0.50317  1.0000
  H   H694      1.0  0.27278  0.81702  0.66275  1.0000
  H   H695      1.0  0.50417  0.80058  0.44589  1.0000
  H   H696      1.0  0.44802  0.70082  0.53753  1.0000
  H   H697      1.0  0.47805  0.89221  0.64348  1.0000
  H   H698      1.0  0.47420  0.51708  0.50334  1.0000
  C   C397      1.0  0.34022  0.50506  0.40597  1.0000
  H   H699      1.0  0.05701  0.77715  0.65599  1.0000
  C   C398      1.0  0.49189  0.94539  0.56901  1.0000
  H   H700      1.0  0.50066  0.85595  0.64704  1.0000
  C   C399      1.0  0.45801  0.52905  0.51209  1.0000
  C   C400      1.0  0.46883  0.94504  0.61926  1.0000
  H   H701      1.0  0.41566  0.72244  0.66329  1.0000
  H   H702      1.0  0.31535  0.50670  0.40977  1.0000
  H   H703      1.0  0.49467  0.76791  0.64474  1.0000
  H   H704      1.0  0.47727  0.68144  0.51644  1.0000
  H   H705      1.0  0.50330  0.99132  0.52032  1.0000
  C   C401      1.0  0.47257  0.52658  0.66392  1.0000
  C   C402      1.0  0.49760  0.96834  0.59570  1.0000
  H   H706      1.0  0.49781  0.85675  0.56936  1.0000
  H   H707      1.0  0.35763  0.52512  0.42832  1.0000
  C   C403      1.0  0.50287  0.79401  0.61258  1.0000
  C   C404      1.0  0.48645  0.99192  0.43873  1.0000
  Fe  Fe44      1.0  0.19493  0.74657  0.73993  1.0000
  S   S87       1.0  0.16232  0.78115  0.72706  1.0000
  S   S88       1.0  0.19431  0.75090  0.76707  1.0000
  Fe  Fe45      1.0  0.20328  0.78931  0.71093  1.0000
  S   S89       1.0  0.21932  0.83712  0.70366  1.0000
  S   S90       1.0  0.23667  0.75856  0.72530  1.0000
  Fe  Fe46      1.0  0.41334  0.90182  0.72339  1.0000
  S   S91       1.0  0.41939  0.85103  0.71669  1.0000
  S   S92       1.0  0.39881  0.91310  0.74916  1.0000
  Fe  Fe47      1.0  0.43798  0.92329  0.68998  1.0000
  H   H708      1.0  0.25381  0.58150  0.93907  1.0000
  H   H709      1.0  0.17778  0.86789  0.72938  1.0000
  Fe  Fe48      1.0  0.39770  0.86639  0.69340  1.0000
  S   S93       1.0  0.36280  0.83273  0.68392  1.0000
  Fe  Fe49      1.0  0.46514  0.86278  0.70593  1.0000
  H   H710      1.0  0.03560  0.76427  0.76328  1.0000
  S   S94       1.0  0.38932  0.91746  0.70029  1.0000
  S   S95       1.0  0.46066  0.91305  0.71404  1.0000
  Fe  Fe50      1.0  0.18455  0.84252  0.94089  1.0000
  S   S96       1.0  0.13721  0.83996  0.92918  1.0000
  S   S97       1.0  0.22730  0.82048  0.92774  1.0000
  H   H711      1.0  0.02529  0.95166  0.91723  1.0000
  Fe  Fe51      1.0  0.12372  0.81189  0.95061  1.0000
  S   S98       1.0  0.10090  0.76492  0.94940  1.0000
  Fe  Fe52      1.0  0.12374  0.88237  0.94445  1.0000
  S   S99       1.0  0.08743  0.91944  0.93695  1.0000
  S   S100      1.0  0.17206  0.88769  0.95469  1.0000
  Fe  Fe53      1.0  0.37165  0.79460  0.82260  1.0000
  S   S101      1.0  0.39314  0.74874  0.83193  1.0000
  S   S102      1.0  0.37333  0.79751  0.79531  1.0000
  Fe  Fe54      1.0  0.34660  0.81352  0.85586  1.0000
  S   S103      1.0  0.36678  0.76922  0.86732  1.0000
  S   S104      1.0  0.31842  0.85126  0.87002  1.0000
  Fe  Fe55      1.0  0.41024  0.77699  0.85272  1.0000
  S   S105      1.0  0.45709  0.76352  0.86491  1.0000
  Fe  Fe56      1.0  0.34841  0.74500  0.84565  1.0000
  S   S106      1.0  0.32447  0.69876  0.84612  1.0000
  S   S107      1.0  0.39153  0.82356  0.84266  1.0000
  S   S108      1.0  0.32541  0.78856  0.83488  1.0000
  Fe  Fe57      1.0  0.09396  0.66899  0.85933  1.0000
  S   S109      1.0  0.10088  0.62262  0.84652  1.0000
  S   S110      1.0  0.04556  0.69185  0.85569  1.0000
  Fe  Fe58      1.0  0.16138  0.66603  0.87107  1.0000
  S   S111      1.0  0.17281  0.61959  0.85896  1.0000
  S   S112      1.0  0.19757  0.69240  0.88493  1.0000
  Fe  Fe59      1.0  0.14622  0.64154  0.83807  1.0000
  S   S113      1.0  0.16152  0.63591  0.81205  1.0000
  Fe  Fe60      1.0  0.12641  0.60536  0.86880  1.0000
  S   S114      1.0  0.11741  0.55543  0.87783  1.0000
  S   S115      1.0  0.13778  0.68890  0.84961  1.0000
  S   S116      1.0  0.11640  0.65079  0.88221  1.0000
  C   C405      1.0  0.03914  0.73260  0.85920  1.0000
  C   C406      1.0  0.05598  0.74811  0.87100  1.0000
  C   C407      1.0  0.04832  0.77995  0.87458  1.0000
  C   C408      1.0  0.23982  0.58803  0.96360  1.0000
  H   H712      1.0  0.31824  0.83512  0.72727  1.0000
  C   C409      1.0  0.27707  0.83221  0.74285  1.0000
  H   H713      1.0  0.07409  0.73523  0.87774  1.0000
  H   H714      1.0  0.06071  0.79159  0.88405  1.0000
  H   H715      1.0  0.30417  0.96906  0.73912  1.0000
  C   C410      1.0  0.11584  0.53746  0.89715  1.0000
  H   H716      1.0  0.06519  0.95169  0.98377  1.0000
  H   H717      1.0  0.12487  0.57895  0.91086  1.0000
  C   C411      1.0  0.29106  0.69630  0.85836  1.0000
  C   C412      1.0  0.27326  0.66948  0.85727  1.0000
  C   C413      1.0  0.24460  0.66825  0.86536  1.0000
  C   C414      1.0  0.23430  0.69311  0.87533  1.0000
  C   C415      1.0  0.25323  0.71901  0.87741  1.0000
  C   C416      1.0  0.28129  0.72090  0.86869  1.0000
  H   H718      1.0  0.28106  0.65002  0.84962  1.0000
  H   H719      1.0  0.23072  0.64784  0.86395  1.0000
  H   H720      1.0  0.24564  0.73812  0.88531  1.0000
  H   H721      1.0  0.29511  0.74150  0.86972  1.0000
  H   H722      1.0  0.22606  0.56986  0.91619  1.0000
  H   H723      1.0  0.39945  0.78443  0.72808  1.0000
  C   C417      1.0  0.09061  0.95973  0.94155  1.0000
  H   H724      1.0  0.14097  0.95868  0.94344  1.0000
  N   N25       1.0  0.20512  0.61628  0.92189  1.0000
  C   C418      1.0  0.02175  0.85259  0.98286  1.0000
  H   H725      1.0  0.25366  0.56666  0.96766  1.0000
  C   C419      1.0  0.41725  0.80563  0.96116  1.0000
  H   H726      1.0  0.04061  0.96873  0.94067  1.0000
  C   C420      1.0  0.24895  0.83002  0.91039  1.0000
  C   C421      1.0  0.26383  0.80529  0.90160  1.0000
  C   C422      1.0  0.28409  0.81153  0.88880  1.0000
  C   C423      1.0  0.29040  0.84259  0.88489  1.0000
  C   C424      1.0  0.27498  0.86739  0.89342  1.0000
  C   C425      1.0  0.25421  0.86117  0.90606  1.0000
  H   H727      1.0  0.26001  0.78112  0.90490  1.0000
  H   H728      1.0  0.29550  0.79233  0.88218  1.0000
  H   H729      1.0  0.27963  0.89156  0.89047  1.0000
  H   H730      1.0  0.24333  0.88045  0.91287  1.0000
  H   H731      1.0  0.28483  0.72983  0.75103  1.0000
  H   H732      1.0  0.26407  0.78536  0.69687  1.0000
  H   H733      1.0  0.32567  0.71765  0.75333  1.0000
  S   S117      1.0  0.10351  0.72550  0.70512  1.0000
  C   C426      1.0  0.05971  0.76445  0.94884  1.0000
  C   C427      1.0  0.04535  0.73543  0.94970  1.0000
  H   H734      1.0  0.41185  0.86281  0.87217  1.0000
  H   H735      1.0  0.05966  0.71369  0.94998  1.0000
  C   C428      1.0  0.28481  0.64219  0.90428  1.0000
  C   C429      1.0  0.39186  0.88124  0.76224  1.0000
  C   C430      1.0  0.38504  0.85165  0.75613  1.0000
  C   C431      1.0  0.38010  0.82634  0.76650  1.0000
  C   C432      1.0  0.38125  0.83035  0.78319  1.0000
  C   C433      1.0  0.38798  0.85994  0.78947  1.0000
  C   C434      1.0  0.39310  0.88535  0.77900  1.0000
  H   H736      1.0  0.38272  0.84835  0.74337  1.0000
  H   H737      1.0  0.37480  0.80359  0.76153  1.0000
  H   H738      1.0  0.38895  0.86333  0.80234  1.0000
  H   H739      1.0  0.39826  0.90820  0.78390  1.0000
  H   H740      1.0  0.13191  0.70147  0.93296  1.0000
  C   C435      1.0  0.21072  0.85150  0.74794  1.0000
  H   H741      1.0  0.09113  0.79070  0.71570  1.0000
  H   H742      1.0  0.22209  0.63544  0.94431  1.0000
  H   H743      1.0  0.45446  0.84971  0.77300  1.0000
  C   C436      1.0  0.18481  0.71880  0.77936  1.0000
  C   C437      1.0  0.17828  0.72418  0.79569  1.0000
  C   C438      1.0  0.17126  0.69904  0.80588  1.0000
  C   C439      1.0  0.17052  0.66829  0.79978  1.0000
  C   C440      1.0  0.17722  0.66296  0.78346  1.0000
  C   C441      1.0  0.18438  0.68808  0.77329  1.0000
  H   H744      1.0  0.17868  0.74785  0.80052  1.0000
  H   H745      1.0  0.16648  0.70343  0.81843  1.0000
  H   H746      1.0  0.17684  0.63924  0.77867  1.0000
  H   H747      1.0  0.18969  0.68356  0.76079  1.0000
  C   C442      1.0  0.25945  0.83607  0.69858  1.0000
  C   C443      1.0  0.27521  0.86424  0.69719  1.0000
  C   C444      1.0  0.30740  0.86353  0.69348  1.0000
  C   C445      1.0  0.32374  0.83463  0.69079  1.0000
  C   C446      1.0  0.30794  0.80654  0.69221  1.0000
  C   C447      1.0  0.27601  0.80723  0.69617  1.0000
  H   H748      1.0  0.26250  0.88664  0.69895  1.0000
  H   H749      1.0  0.49890  0.76333  0.78886  1.0000
  H   H750      1.0  0.32030  0.78407  0.69001  1.0000
  N   N26       1.0  0.04578  0.92648  0.88928  1.0000
  C   C448      1.0  0.04878  0.91778  0.87178  1.0000
  C   C449      1.0  0.04445  0.89679  0.89920  1.0000
  H   H751      1.0  0.30954  0.83417  0.77310  1.0000
  C   C450      1.0  0.07162  0.94707  0.89493  1.0000
  C   C451      1.0  0.10463  0.94077  0.88747  1.0000
  C   C452      1.0  0.04520  0.94583  0.85986  1.0000
  H   H752      1.0  0.03879  0.71134  0.70132  1.0000
  C   C453      1.0  0.07248  0.87255  0.89824  1.0000
  C   C454      1.0  0.06591  0.84304  0.90800  1.0000
  H   H753      1.0  0.08224  0.82266  0.68979  1.0000
  C   C455      1.0  0.05748  0.93654  0.84321  1.0000
  C   C456      1.0  0.06849  0.74886  0.70820  1.0000
  C   C457      1.0  0.50195  0.68521  0.82496  1.0000
  H   H754      1.0  0.07140  0.90488  0.86933  1.0000
  C   C458      1.0  0.48015  0.70046  0.83753  1.0000
  H   H755      1.0  0.37380  0.78565  0.94128  1.0000
  H   H756      1.0  0.02893  0.55813  0.97792  1.0000
  H   H757      1.0  0.05632  0.58266  0.92081  1.0000
  C   C459      1.0  0.03714  0.81988  0.98594  1.0000
  H   H758      1.0  0.07408  0.94558  0.90812  1.0000
  H   H759      1.0  0.10527  0.95085  0.87519  1.0000
  H   H760      1.0  0.11121  0.91540  0.88641  1.0000
  C   C460      1.0  0.11238  0.50652  0.92737  1.0000
  C   C461      1.0  0.04727  0.97132  0.98521  1.0000
  H   H761      1.0  0.11881  0.66842  0.72736  1.0000
  Fe  Fe61      1.0  0.22312  0.72062  0.70807  1.0000
  H   H762      1.0  0.07701  0.86498  0.88572  1.0000
  H   H763      1.0  0.09371  0.88255  0.90353  1.0000
  H   H764      1.0  0.04390  0.83253  0.90396  1.0000
  H   H765      1.0  0.08537  0.82503  0.90647  1.0000
  H   H766      1.0  0.37848  0.82499  0.88563  1.0000
  C   C462      1.0  0.49241  0.82474  0.75941  1.0000
  C   C463      1.0  0.50400  0.76785  0.75390  1.0000
  C   C464      1.0  0.01463  0.94441  0.89143  1.0000
  C   C465      1.0  0.46191  0.78403  0.77342  1.0000
  H   H767      1.0  0.13169  0.94508  0.90955  1.0000
  H   H768      1.0  0.39402  0.74188  0.67949  1.0000
  H   H769      1.0  0.15465  0.61798  0.92407  1.0000
  H   H770      1.0  0.38095  0.77535  0.90122  1.0000
  S   S118      1.0  0.10580  0.85373  0.96468  1.0000
  N   N27       1.0  0.29848  0.71422  0.78455  1.0000
  C   C466      1.0  0.29350  0.69423  0.76981  1.0000
  C   C467      1.0  0.29234  0.69453  0.79918  1.0000
  C   C468      1.0  0.27631  0.74288  0.78372  1.0000
  C   C469      1.0  0.33149  0.72529  0.78554  1.0000
  C   C470      1.0  0.35808  0.69934  0.78383  1.0000
  C   C471      1.0  0.27572  0.76470  0.79869  1.0000
  C   C472      1.0  0.25798  0.68479  0.80131  1.0000
  C   C473      1.0  0.25398  0.66735  0.81708  1.0000
  C   C474      1.0  0.39027  0.71360  0.78488  1.0000
  C   C475      1.0  0.24961  0.79039  0.79722  1.0000
  H   H771      1.0  0.30682  0.67110  0.77082  1.0000
  H   H772      1.0  0.30704  0.67218  0.79890  1.0000
  H   H773      1.0  0.29982  0.70659  0.81037  1.0000
  H   H774      1.0  0.25212  0.73581  0.78116  1.0000
  H   H775      1.0  0.28226  0.75807  0.77341  1.0000
  H   H776      1.0  0.33531  0.74392  0.77644  1.0000
  H   H777      1.0  0.33536  0.73704  0.79733  1.0000
  H   H778      1.0  0.35678  0.68702  0.77211  1.0000
  H   H779      1.0  0.35677  0.68163  0.79356  1.0000
  H   H780      1.0  0.29830  0.77651  0.79986  1.0000
  H   H781      1.0  0.27159  0.75156  0.80990  1.0000
  H   H782      1.0  0.24143  0.70564  0.80162  1.0000
  H   H783      1.0  0.25094  0.66890  0.79147  1.0000
  H   H784      1.0  0.27083  0.64667  0.81801  1.0000
  H   H785      1.0  0.25765  0.68376  0.82719  1.0000
  H   H786      1.0  0.22982  0.65890  0.81793  1.0000
  H   H787      1.0  0.39340  0.72498  0.79677  1.0000
  H   H788      1.0  0.40895  0.69474  0.78339  1.0000
  H   H789      1.0  0.39283  0.73153  0.77533  1.0000
  H   H790      1.0  0.22634  0.77973  0.79729  1.0000
  H   H791      1.0  0.25081  0.80698  0.80751  1.0000
  H   H792      1.0  0.25201  0.80371  0.78590  1.0000
  N   N28       1.0  0.17186  0.79597  0.86965  1.0000
  C   C476      1.0  0.17971  0.82322  0.88040  1.0000
  C   C477      1.0  0.16446  0.76822  0.88007  1.0000
  C   C478      1.0  0.20088  0.78636  0.86013  1.0000
  C   C479      1.0  0.14532  0.80403  0.85803  1.0000
  C   C480      1.0  0.11991  0.82918  0.86340  1.0000
  C   C481      1.0  0.19389  0.85169  0.87183  1.0000
  C   C482      1.0  0.19803  0.75709  0.84899  1.0000
  C   C483      1.0  0.13633  0.77286  0.89162  1.0000
  C   C484      1.0  0.13344  0.74414  0.90245  1.0000
  C   C485      1.0  0.09392  0.83306  0.85078  1.0000
  C   C486      1.0  0.18837  0.88226  0.88139  1.0000
  C   C487      1.0  0.22513  0.75402  0.83709  1.0000
  H   H793      1.0  0.19687  0.81512  0.88983  1.0000
  H   H794      1.0  0.15889  0.83206  0.88726  1.0000
  H   H795      1.0  0.15909  0.74742  0.87257  1.0000
  H   H796      1.0  0.18545  0.76092  0.88745  1.0000
  H   H797      1.0  0.22126  0.78154  0.86833  1.0000
  H   H798      1.0  0.20774  0.80604  0.85228  1.0000
  H   H799      1.0  0.15465  0.81294  0.84650  1.0000
  H   H800      1.0  0.13304  0.78228  0.85473  1.0000
  H   H801      1.0  0.13000  0.85260  0.86493  1.0000
  H   H802      1.0  0.10911  0.82284  0.87491  1.0000
  H   H803      1.0  0.21963  0.84711  0.87051  1.0000
  H   H804      1.0  0.18376  0.85540  0.85965  1.0000
  H   H805      1.0  0.17596  0.75837  0.84192  1.0000
  H   H806      1.0  0.19846  0.73512  0.85616  1.0000
  H   H807      1.0  0.13855  0.79355  0.89960  1.0000
  H   H808      1.0  0.11438  0.77542  0.88461  1.0000
  H   H809      1.0  0.11293  0.74792  0.91052  1.0000
  H   H810      1.0  0.13008  0.72262  0.89512  1.0000
  H   H811      1.0  0.15481  0.74046  0.91000  1.0000
  H   H812      1.0  0.08245  0.81039  0.84880  1.0000
  H   H813      1.0  0.07582  0.85087  0.85491  1.0000
  H   H814      1.0  0.10350  0.84119  0.83921  1.0000
  H   H815      1.0  0.20201  0.90123  0.87603  1.0000
  H   H816      1.0  0.16315  0.88981  0.88117  1.0000
  H   H817      1.0  0.19582  0.87895  0.89408  1.0000
  H   H818      1.0  0.22475  0.77476  0.82901  1.0000
  H   H819      1.0  0.24798  0.75211  0.84350  1.0000
  H   H820      1.0  0.22276  0.73246  0.82967  1.0000
  N   N29       1.0  0.07233  0.72743  0.76099  1.0000
  C   C488      1.0  0.09874  0.74988  0.76061  1.0000
  C   C489      1.0  0.07974  0.70054  0.74948  1.0000
  H   H821      1.0  0.28603  0.92840  0.75771  1.0000
  C   C490      1.0  0.06584  0.71520  0.77768  1.0000
  C   C491      1.0  0.09399  0.71168  0.78952  1.0000
  C   C492      1.0  0.09188  0.78209  0.76908  1.0000
  C   C493      1.0  0.23635  0.87492  0.74350  1.0000
  C   C494      1.0  0.11049  0.68064  0.75252  1.0000
  C   C495      1.0  0.11646  0.65642  0.73912  1.0000
  C   C496      1.0  0.08495  0.69440  0.80481  1.0000
  C   C497      1.0  0.12201  0.79888  0.77266  1.0000
  H   H822      1.0  0.25466  0.85114  0.77212  1.0000
  H   H823      1.0  0.10504  0.75512  0.74793  1.0000
  H   H824      1.0  0.12055  0.73900  0.76588  1.0000
  H   H825      1.0  0.29793  0.87387  0.92972  1.0000
  H   H826      1.0  0.18563  0.57023  0.92071  1.0000
  H   H827      1.0  0.03337  0.82868  0.67986  1.0000
  H   H828      1.0  0.17754  0.66659  0.94000  1.0000
  H   H829      1.0  0.04806  0.73089  0.78392  1.0000
  H   H830      1.0  0.05204  0.53445  0.89569  1.0000
  H   H831      1.0  0.10191  0.73518  0.79319  1.0000
  H   H832      1.0  0.11428  0.69853  0.78416  1.0000
  H   H833      1.0  0.07704  0.79774  0.76116  1.0000
  H   H834      1.0  0.07915  0.77918  0.78054  1.0000
  H   H835      1.0  0.28490  0.85204  0.94676  1.0000
  H   H836      1.0  0.02031  0.80213  0.98220  1.0000
  H   H837      1.0  0.13108  0.69553  0.75290  1.0000
  H   H838      1.0  0.10890  0.66722  0.76387  1.0000
  C   C498      1.0  0.16887  0.66621  0.92745  1.0000
  H   H839      1.0  0.13862  0.64248  0.74160  1.0000
  C   C499      1.0  0.11956  0.97330  0.94389  1.0000
  C   C500      1.0  0.12948  0.86177  0.69793  1.0000
  H   H840      1.0  0.06482  0.70695  0.81086  1.0000
  H   H841      1.0  0.07882  0.66982  0.80199  1.0000
  H   H842      1.0  0.13575  0.80167  0.76149  1.0000
  H   H843      1.0  0.11620  0.82263  0.77776  1.0000
  H   H844      1.0  0.13660  0.78519  0.78152  1.0000
  H   H845      1.0  0.06082  0.68340  0.74953  1.0000
  H   H846      1.0  0.34824  0.72749  0.89685  1.0000
  H   H847      1.0  0.10666  0.97805  0.97695  1.0000
  H   H848      1.0  0.46827  0.90372  0.76602  1.0000
  C   C501      1.0  0.21123  0.61372  0.93980  1.0000
  C   C502      1.0  0.12400  0.98058  0.98666  1.0000
  C   C503      1.0  0.45489  0.79386  0.74473  1.0000
  H   H849      1.0  0.45329  0.85677  0.75157  1.0000
  C   C504      1.0  0.02817  0.53915  0.90056  1.0000
  C   C505      1.0  0.35115  0.83812  0.92278  1.0000
  C   C506      1.0  0.44019  0.76220  0.74017  1.0000
  C   C507      1.0  0.03700  0.59538  0.89694  1.0000
  C   C508      1.0  0.50243  0.79323  0.84716  1.0000
  C   C509      1.0  0.12975  0.83327  0.68667  1.0000
  C   C510      1.0  0.41856  0.76643  0.72558  1.0000
  H   H850      1.0  0.05502  0.57322  0.86647  1.0000
  C   C511      1.0  0.46045  0.77866  0.80373  1.0000
  H   H851      1.0  0.04805  0.75704  0.74324  1.0000
  S   S119      1.0  0.44441  0.87272  0.68159  1.0000
  H   H852      1.0  0.46560  0.80334  0.73367  1.0000
  H   H853      1.0  0.43482  0.81036  0.74769  1.0000
  H   H854      1.0  0.44087  0.80007  0.77526  1.0000
  H   H855      1.0  0.45254  0.76013  0.77233  1.0000
  C   C512      1.0  0.28076  0.69279  0.67893  1.0000
  H   H856      1.0  0.31946  0.66009  0.68444  1.0000
  C   C513      1.0  0.12989  0.95612  0.89747  1.0000
  H   H857      1.0  0.09702  0.63997  0.73838  1.0000
  H   H858      1.0  0.42580  0.75361  0.75017  1.0000
  H   H859      1.0  0.45837  0.74365  0.73710  1.0000
  H   H860      1.0  0.12074  0.66139  0.93544  1.0000
  C   C514      1.0  0.48583  0.88380  0.76438  1.0000
  C   C515      1.0  0.00886  0.50957  0.89769  1.0000
  H   H861      1.0  0.09717  0.88868  0.99348  1.0000
  C   C516      1.0  0.11901  0.53872  0.92639  1.0000
  H   H862      1.0  0.21509  0.82822  0.74205  1.0000
  H   H863      1.0  0.06533  0.97249  0.89270  1.0000
  C   C517      1.0  0.36231  0.78667  0.90894  1.0000
  C   C518      1.0  0.06899  0.78039  0.71308  1.0000
  H   H864      1.0  0.26847  0.68817  0.76885  1.0000
  C   C519      1.0  0.10951  0.50525  0.89812  1.0000
  C   C520      1.0  0.17339  0.63303  0.91951  1.0000
  H   H865      1.0  0.05194  0.81488  0.94729  1.0000
  H   H866      1.0  0.17195  0.88692  0.74869  1.0000
  H   H867      1.0  0.01459  0.96750  0.88508  1.0000
  S   S120      1.0  0.19091  0.75206  0.69311  1.0000
  H   H868      1.0  0.05798  0.81712  0.97817  1.0000
  H   H869      1.0  0.38306  0.70377  0.67233  1.0000
  C   C521      1.0  0.30853  0.67501  0.67529  1.0000
  H   H870      1.0  0.27844  0.63998  0.89141  1.0000
  C   C522      1.0  0.03944  0.73577  0.70504  1.0000
  C   C523      1.0  0.30140  0.70950  0.75351  1.0000
  C   C524      1.0  0.02438  0.79664  0.86615  1.0000
  S   S121      1.0  0.18424  0.70525  0.72434  1.0000
  H   H871      1.0  0.17203  0.59154  0.89373  1.0000
  H   H872      1.0  0.12424  0.67784  0.91551  1.0000
  C   C525      1.0  0.04106  0.79243  0.94821  1.0000
  H   H873      1.0  0.08061  0.70976  0.73697  1.0000
  C   C526      1.0  0.09670  0.82897  0.67932  1.0000
  C   C527      1.0  0.19919  0.54852  0.88997  1.0000
  C   C528      1.0  0.29820  0.68617  0.73967  1.0000
  H   H874      1.0  0.33032  0.76684  0.92687  1.0000
  Fe  Fe62      1.0  0.15431  0.85667  0.97435  1.0000
  H   H875      1.0  0.16840  0.63687  0.90653  1.0000
  H   H876      1.0  0.31453  0.66525  0.74126  1.0000
  H   H877      1.0  0.27376  0.67833  0.73880  1.0000
  H   H878      1.0  0.30391  0.69780  0.72817  1.0000
  S   S122      1.0  0.17141  0.81223  0.96180  1.0000
  H   H879      1.0  0.31154  0.74961  0.90002  1.0000
  Fe  Fe63      1.0  0.15297  0.74048  0.71081  1.0000
  H   H880      1.0  0.33924  0.84638  0.91152  1.0000
  H   H881      1.0  0.02297  0.88423  0.89595  1.0000
  H   H882      1.0  0.34240  0.78306  0.73273  1.0000
  H   H883      1.0  0.33310  0.81673  0.94508  1.0000
  S   S123      1.0  0.46404  0.96089  0.67613  1.0000
  C   C529      1.0  0.06312  0.97899  0.94193  1.0000
  H   H884      1.0  0.05780  0.96657  0.86409  1.0000
  H   H885      1.0  0.31404  0.77588  0.74807  1.0000
  H   H886      1.0  0.21816  0.59042  0.97095  1.0000
  C   C530      1.0  0.12026  0.55421  0.91141  1.0000
  C   C531      1.0  0.39134  0.84167  0.89310  1.0000
  C   C532      1.0  0.30306  0.85964  0.77468  1.0000
  H   H887      1.0  0.32225  0.71664  0.91269  1.0000
  H   H888      1.0  0.13714  0.81216  0.69388  1.0000
  C   C533      1.0  0.31177  0.82350  0.73866  1.0000
  C   C534      1.0  0.31777  0.78803  0.73652  1.0000
  C   C535      1.0  0.30167  0.86609  0.79276  1.0000
  H   H889      1.0  0.31600  0.88276  0.74403  1.0000
  H   H890      1.0  0.32172  0.87397  0.76968  1.0000
  H   H891      1.0  0.32762  0.83123  0.74814  1.0000
  H   H892      1.0  0.30216  0.77877  0.72711  1.0000
  H   H893      1.0  0.28277  0.85299  0.79845  1.0000
  H   H894      1.0  0.16050  0.95409  0.97366  1.0000
  H   H895      1.0  0.02590  0.69948  0.99914  1.0000
  H   H896      1.0  0.48331  0.80682  0.84157  1.0000
  C   C536      1.0  0.40578  0.82219  0.94579  1.0000
  H   H897      1.0  0.44330  0.79902  0.80513  1.0000
  H   H898      1.0  0.12433  0.98184  0.89890  1.0000
  H   H899      1.0  0.26163  0.93241  0.73996  1.0000
  H   H900      1.0  0.04727  0.54656  0.84077  1.0000
  H   H901      1.0  0.05961  0.77579  0.67726  1.0000
  H   H902      1.0  0.28275  0.66750  0.90779  1.0000
  C   C537      1.0  0.22928  0.63572  0.91390  1.0000
  H   H903      1.0  0.29760  0.89175  0.79510  1.0000
  H   H904      1.0  0.30939  0.94000  0.72338  1.0000
  H   H905      1.0  0.18870  0.61239  0.94647  1.0000
  H   H906      1.0  0.02889  0.61763  0.89081  1.0000
  H   H907      1.0  0.26594  0.59786  0.91019  1.0000
  C   C538      1.0  0.29111  0.88829  0.74082  1.0000
  H   H908      1.0  0.48086  0.51542  0.69678  1.0000
  C   C539      1.0  0.41982  0.85120  0.88350  1.0000
  H   H909      1.0  0.32420  0.85825  0.79848  1.0000
  H   H910      1.0  0.05497  0.69187  0.77690  1.0000
  C   C540      1.0  0.27093  0.86763  0.76670  1.0000
  H   H911      1.0  0.40940  0.78038  0.93072  1.0000
  H   H912      1.0  0.32056  0.87311  0.94811  1.0000
  N   N30       1.0  0.26952  0.86563  0.74863  1.0000
  H   H913      1.0  0.26881  0.81480  0.75171  1.0000
  H   H914      1.0  0.26412  0.82740  0.73155  1.0000
  N   N31       1.0  0.47868  0.79261  0.75823  1.0000
  C   C541      1.0  0.46887  0.85317  0.76215  1.0000
  H   H915      1.0  0.28997  0.88557  0.72754  1.0000
  H   H916      1.0  0.26232  0.89137  0.77092  1.0000
  H   H917      1.0  0.16365  0.79411  0.99772  1.0000
  H   H918      1.0  0.22299  0.64001  0.90113  1.0000
  H   H919      1.0  0.42644  0.83275  0.94029  1.0000
  H   H920      1.0  0.33318  0.93719  0.74139  1.0000
  H   H921      1.0  0.22866  0.89804  0.74886  1.0000
  H   H922      1.0  0.46934  0.72315  0.83308  1.0000
  C   C542      1.0  0.30942  0.94364  0.73660  1.0000
  C   C543      1.0  0.28487  0.92384  0.74461  1.0000
  C   C544      1.0  0.03602  0.55638  0.86569  1.0000
  H   H923      1.0  0.05535  0.75832  0.98690  1.0000
  C   C545      1.0  0.20372  0.58381  0.91446  1.0000
  H   H924      1.0  0.02784  0.55336  0.94468  1.0000
  H   H925      1.0  0.43372  0.86808  0.89044  1.0000
  H   H926      1.0  0.22936  0.65969  0.91935  1.0000
  C   C546      1.0  0.05404  0.75728  0.00028  1.0000
  H   H927      1.0  0.06006  0.58868  0.89145  1.0000
  H   H928      1.0  0.18365  0.53315  0.89679  1.0000
  H   H929      1.0  0.31931  0.88534  0.69218  1.0000
  N   N32       1.0  0.01411  0.56986  0.89408  1.0000
  H   H930      1.0  0.40784  0.74375  0.72266  1.0000
  H   H931      1.0  0.02005  0.95345  0.85858  1.0000
  H   H932      1.0  0.04994  0.98884  0.97556  1.0000
  C   C547      1.0  0.05011  0.98648  0.00205  1.0000
  H   H933      1.0  0.43499  0.83005  0.88039  1.0000
  C   C548      1.0  0.04080  0.79897  0.71407  1.0000
  H   H934      1.0  0.20953  0.84763  0.76107  1.0000
  H   H935      1.0  0.16048  0.84699  0.74564  1.0000
  H   H936      1.0  0.38863  0.84138  0.94932  1.0000
  H   H937      1.0  0.05441  0.65217  0.91011  1.0000
  H   H938      1.0  0.36645  0.74415  0.92396  1.0000
  H   H939      1.0  0.41195  0.84645  0.91627  1.0000
  C   C549      1.0  0.26360  0.62250  0.91463  1.0000
  C   C550      1.0  0.01256  0.73439  0.95058  1.0000
  H   H940      1.0  0.14790  0.83645  0.67745  1.0000
  H   H941      1.0  0.36228  0.85941  0.92760  1.0000
  H   H942      1.0  0.12310  0.55174  0.93733  1.0000
  C   C551      1.0  0.01177  0.78612  0.71051  1.0000
  H   H943      1.0  0.37597  0.86322  0.89493  1.0000
  H   H944      1.0  0.47502  0.77692  0.81479  1.0000
  H   H945      1.0  0.48576  0.63985  0.67924  1.0000
  H   H946      1.0  0.08313  0.93092  0.84368  1.0000
  C   C552      1.0  0.34772  0.75870  0.91779  1.0000
  H   H947      1.0  0.23532  0.87827  0.73022  1.0000
  C   C553      1.0  0.33152  0.73688  0.90607  1.0000
  S   S124      1.0  0.01562  0.83651  0.87106  1.0000
  C   C554      1.0  0.19634  0.58247  0.89621  1.0000
  H   H948      1.0  0.05293  0.95645  0.83475  1.0000
  H   H949      1.0  0.04544  0.91569  0.83857  1.0000
  H   H950      1.0  0.39732  0.79565  0.96767  1.0000
  H   H951      1.0  0.10504  0.69324  0.81333  1.0000
  H   H952      1.0  0.43493  0.78637  0.95833  1.0000
  C   C555      1.0  0.32443  0.82942  0.93423  1.0000
  C   C556      1.0  0.49603  0.77065  0.85875  1.0000
  H   H953      1.0  0.06819  0.63694  0.92918  1.0000
  H   H954      1.0  0.04548  0.53263  0.86930  1.0000
  H   H955      1.0  0.18161  0.68388  0.92051  1.0000
  C   C557      1.0  0.40142  0.82698  0.90950  1.0000
  H   H956      1.0  0.06384  0.84900  0.92097  1.0000
  H   H957      1.0  0.04241  0.90257  0.91217  1.0000
  H   H958      1.0  0.42833  0.82288  0.96919  1.0000
  H   H959      1.0  0.04146  0.82359  0.71744  1.0000
  S   S125      1.0  0.26369  0.68932  0.69832  1.0000
  H   H960      1.0  0.08849  0.62507  0.91108  1.0000
  N   N33       1.0  0.37579  0.81247  0.91911  1.0000
  H   H961      1.0  0.43197  0.77396  0.71494  1.0000
  H   H962      1.0  0.21843  0.56290  0.94444  1.0000
  H   H963      1.0  0.30783  0.81455  0.92774  1.0000
  C   C558      1.0  0.00828  0.79141  0.94933  1.0000
  C   C559      1.0  0.04413  0.60304  0.91475  1.0000
  H   H964      1.0  0.19205  0.54799  0.87712  1.0000
  C   C560      1.0  0.06510  0.63107  0.91628  1.0000
  C   C561      1.0  0.17828  0.86422  0.74257  1.0000
  H   H965      1.0  0.08683  0.85242  0.67526  1.0000
  H   H966      1.0  0.42090  0.80903  0.90722  1.0000
  C   C562      1.0  0.30591  0.85898  0.94003  1.0000
  H   H967      1.0  0.01447  0.94572  0.97087  1.0000
  C   C563      1.0  0.39083  0.79855  0.93411  1.0000
  C   C564      1.0  0.13430  0.67727  0.92781  1.0000
  H   H968      1.0  0.34434  0.79691  0.90049  1.0000
  H   H969      1.0  0.22377  0.53893  0.89095  1.0000
  H   H970      1.0  0.11293  0.85863  0.70801  1.0000
  H   H971      1.0  0.03153  0.54069  0.91378  1.0000
  H   H972      1.0  0.11444  0.76787  0.68099  1.0000
  H   H973      1.0  0.49681  0.74398  0.75750  1.0000
  H   H974      1.0  0.03070  0.90087  0.86845  1.0000
  C   C565      1.0  0.48136  0.78342  0.78914  1.0000
  H   H975      1.0  0.21280  0.59627  0.88914  1.0000
  H   H976      1.0  0.44748  0.75667  0.80250  1.0000
  H   H977      1.0  0.30961  0.63360  0.90577  1.0000
  C   C566      1.0  0.15538  0.76970  0.99719  1.0000
  H   H978      1.0  0.15330  0.86426  0.70299  1.0000
  H   H979      1.0  0.15297  0.95280  0.89144  1.0000
  C   C567      1.0  0.02654  0.55446  0.84802  1.0000
  H   H980      1.0  0.46108  0.68447  0.84040  1.0000
  H   H981      1.0  0.09850  0.78870  0.98747  1.0000
  H   H982      1.0  0.25408  0.60894  0.96561  1.0000
  C   C568      1.0  0.00482  0.54441  0.94658  1.0000
  H   H983      1.0  0.27246  0.62362  0.92715  1.0000
  H   H984      1.0  0.12267  0.88376  0.69132  1.0000
  C   C569      1.0  0.01528  0.95724  0.98286  1.0000
  H   H985      1.0  0.49332  0.70477  0.84877  1.0000
  H   H986      1.0  0.13640  0.93015  0.98584  1.0000
  C   C570      1.0  0.14813  0.95294  0.98533  1.0000
  H   H987      1.0  0.02245  0.60924  0.92136  1.0000
  H   H988      1.0  0.47876  0.56773  0.67916  1.0000
  C   C571      1.0  0.01430  0.56430  0.98857  1.0000
  H   H989      1.0  0.01121  0.93921  0.99218  1.0000
  C   C572      1.0  0.04312  0.74507  0.75480  1.0000
  H   H990      1.0  0.03008  0.56749  0.99902  1.0000
  C   C573      1.0  0.01414  0.72497  0.75192  1.0000
  H   H991      1.0  0.01011  0.72390  0.98300  1.0000
  C   C574      1.0  0.23161  0.58476  0.94581  1.0000
  C   C575      1.0  0.00998  0.72013  0.99617  1.0000
  H   H992      1.0  0.01508  0.85472  0.96999  1.0000
  H   H993      1.0  0.01253  0.70503  0.88745  1.0000
  H   H994      1.0  0.15122  0.76300  0.98447  1.0000
  H   H995      1.0  0.01059  0.70863  0.76207  1.0000
  S   S126      1.0  0.16047  0.86407  0.00124  1.0000
  H   H996      1.0  0.13946  0.71490  0.67272  1.0000
  H   H997      1.0  0.48705  0.67793  0.81476  1.0000
  H   H998      1.0  0.01799  0.57802  0.84357  1.0000
  H   H999      1.0  0.49333  0.80572  0.79112  1.0000
  C   C576      1.0  0.01118  0.75421  0.70629  1.0000
  H   H1000     1.0  0.16577  0.95369  0.99515  1.0000
  H   H1001     1.0  0.00554  0.51532  0.99206  1.0000
  H   H1002     1.0  0.03834  0.87126  0.98566  1.0000
  H   H1003     1.0  0.45588  0.51687  0.67256  1.0000
  C   C577      1.0  0.00781  0.56771  0.87627  1.0000
  H   H1004     1.0  0.50123  0.88242  0.77516  1.0000
  H   H1005     1.0  0.00799  0.53725  0.84632  1.0000
  H   H1006     1.0  0.50005  0.88869  0.75359  1.0000
  H   H1007     1.0  0.01733  0.71088  0.74072  1.0000
  C   C578      1.0  0.09906  0.79079  0.00081  1.0000
  H   H1008     1.0  0.50166  0.89314  0.67018  1.0000
  C   C579      1.0  0.00501  0.95247  0.90904  1.0000
  C   C580      1.0  0.01518  0.74927  0.85077  1.0000
  C   C581      1.0  0.00812  0.78134  0.85406  1.0000
  H   H1009     1.0  0.10698  0.81506  0.00309  1.0000
  H   H1010     1.0  0.17408  0.75344  0.00217  1.0000
  H   H1011     1.0  0.98628  0.29813  0.10845  1.0000
  C   C582      1.0  0.90811  0.11407  0.15914  1.0000
  H   H1012     1.0  0.81417  0.06625  0.12006  1.0000
  H   H1013     1.0  0.90136  0.12168  0.14685  1.0000
  C   C583      1.0  0.93971  0.11211  0.01576  1.0000
  C   C584      1.0  0.97241  0.03120  0.11945  1.0000
  S   S127      1.0  0.65237  0.11126  0.30988  1.0000
  C   C585      1.0  0.63701  0.17287  0.11283  1.0000
  Fe  Fe64      1.0  0.90562  0.38117  0.22772  1.0000
  S   S128      1.0  0.91418  0.33167  0.21921  1.0000
  S   S129      1.0  0.89259  0.38962  0.25387  1.0000
  Fe  Fe65      1.0  0.92618  0.40964  0.19503  1.0000
  S   S130      1.0  0.93569  0.36105  0.18450  1.0000
  S   S131      1.0  0.94673  0.45351  0.18359  1.0000
  Fe  Fe66      1.0  0.89060  0.34912  0.19670  1.0000
  S   S132      1.0  0.85853  0.31383  0.18623  1.0000
  Fe  Fe67      1.0  0.95798  0.34805  0.20814  1.0000
  H   H1014     1.0  0.93182  0.15770  0.16225  1.0000
  S   S133      1.0  0.87907  0.39848  0.20569  1.0000
  S   S134      1.0  0.95133  0.39684  0.21813  1.0000
  Fe  Fe68      1.0  0.89398  0.15296  0.07999  1.0000
  S   S135      1.0  0.94185  0.15427  0.09103  1.0000
  S   S136      1.0  0.88650  0.14247  0.05356  1.0000
  Fe  Fe69      1.0  0.86015  0.17257  0.11167  1.0000
  S   S137      1.0  0.90603  0.17469  0.12481  1.0000
  S   S138      1.0  0.81443  0.19341  0.12246  1.0000
  Fe  Fe70      1.0  0.92407  0.19882  0.10300  1.0000
  S   S139      1.0  0.94735  0.24551  0.10454  1.0000
  Fe  Fe71      1.0  0.91937  0.12980  0.11154  1.0000
  S   S140      1.0  0.94695  0.09081  0.12424  1.0000
  S   S141      1.0  0.87753  0.19956  0.09049  1.0000
  S   S142      1.0  0.87218  0.12558  0.09991  1.0000
  Fe  Fe72      1.0  0.69304  0.26590  0.20578  1.0000
  S   S143      1.0  0.71752  0.22434  0.21770  1.0000
  S   S144      1.0  0.71471  0.31327  0.20444  1.0000
  Fe  Fe73      1.0  0.63379  0.22993  0.19815  1.0000
  S   S145      1.0  0.65440  0.18518  0.20927  1.0000
  S   S146      1.0  0.58660  0.23518  0.18507  1.0000
  Fe  Fe74      1.0  0.67079  0.21664  0.22925  1.0000
  S   S147      1.0  0.66361  0.21717  0.25635  1.0000
  Fe  Fe75      1.0  0.69944  0.19700  0.19662  1.0000
  S   S148      1.0  0.72995  0.16059  0.18264  1.0000
  S   S149      1.0  0.64757  0.26065  0.21864  1.0000
  S   S150      1.0  0.67756  0.23937  0.18416  1.0000
  C   C586      1.0  0.55031  0.23942  0.19544  1.0000
  C   C587      1.0  0.52373  0.25301  0.18757  1.0000
  H   H1015     1.0  0.68353  0.35749  0.23054  1.0000
  H   H1016     1.0  0.77241  0.06302  0.18145  1.0000
  C   C588      1.0  0.54699  0.22771  0.21099  1.0000
  H   H1017     1.0  0.52602  0.26204  0.17552  1.0000
  C   C589      1.0  0.86770  0.30710  0.28645  1.0000
  H   H1018     1.0  0.56711  0.21684  0.21712  1.0000
  H   H1019     1.0  0.93162  0.20043  0.04094  1.0000
  C   C590      1.0  0.79447  0.18409  0.14040  1.0000
  C   C591      1.0  0.77730  0.20831  0.14853  1.0000
  C   C592      1.0  0.75895  0.20168  0.16204  1.0000
  C   C593      1.0  0.75612  0.17050  0.16706  1.0000
  C   C594      1.0  0.77346  0.14628  0.15902  1.0000
  C   C595      1.0  0.79291  0.15304  0.14591  1.0000
  H   H1020     1.0  0.77828  0.23241  0.14441  1.0000
  H   H1021     1.0  0.74644  0.22065  0.16837  1.0000
  H   H1022     1.0  0.77130  0.12211  0.16278  1.0000
  H   H1023     1.0  0.80546  0.13414  0.13958  1.0000
  H   H1024     1.0  0.71200  0.27397  0.33014  1.0000
  C   C596      1.0  0.94807  0.05307  0.11536  1.0000
  C   C597      1.0  0.92414  0.04394  0.10508  1.0000
  H   H1025     1.0  0.50953  0.33099  0.26384  1.0000
  H   H1026     1.0  0.89771  0.23474  0.05778  1.0000
  H   H1027     1.0  0.90552  0.06075  0.10173  1.0000
  C   C598      1.0  0.81929  0.31339  0.19266  1.0000
  C   C599      1.0  0.80390  0.34030  0.19915  1.0000
  C   C600      1.0  0.77174  0.34008  0.20268  1.0000
  C   C601      1.0  0.75503  0.31279  0.20009  1.0000
  C   C602      1.0  0.77059  0.28569  0.19394  1.0000
  C   C603      1.0  0.80259  0.28607  0.19018  1.0000
  H   H1028     1.0  0.81650  0.36156  0.20094  1.0000
  H   H1029     1.0  0.75968  0.36120  0.20727  1.0000
  H   H1030     1.0  0.75788  0.26456  0.19191  1.0000
  H   H1031     1.0  0.81440  0.26516  0.18524  1.0000
  C   C604      1.0  0.93960  0.47559  0.16559  1.0000
  C   C605      1.0  0.51493  0.29394  0.24573  1.0000
  C   C606      1.0  0.99374  0.03489  0.05778  1.0000
  C   C607      1.0  0.81819  0.06757  0.17073  1.0000
  H   H1032     1.0  0.96510  0.27919  0.19737  1.0000
  C   C608      1.0  0.94817  0.12169  0.04873  1.0000
  C   C609      1.0  0.91865  0.12830  0.04188  1.0000
  H   H1033     1.0  0.61589  0.18122  0.14874  1.0000
  H   H1034     1.0  0.95167  0.12487  0.06143  1.0000
  H   H1035     1.0  0.89171  0.12821  0.01995  1.0000
  C   C610      1.0  0.87415  0.33643  0.29308  1.0000
  C   C611      1.0  0.88198  0.36151  0.28299  1.0000
  C   C612      1.0  0.88350  0.35743  0.26625  1.0000
  C   C613      1.0  0.87720  0.32800  0.25971  1.0000
  C   C614      1.0  0.86951  0.30296  0.26976  1.0000
  H   H1036     1.0  0.87256  0.34001  0.30592  1.0000
  H   H1037     1.0  0.88666  0.38424  0.28817  1.0000
  H   H1038     1.0  0.87748  0.32465  0.24687  1.0000
  C   C615      1.0  0.65324  0.14031  0.29460  1.0000
  C   C616      1.0  0.66337  0.13175  0.27906  1.0000
  C   C617      1.0  0.66565  0.15473  0.26692  1.0000
  C   C618      1.0  0.65819  0.18653  0.27034  1.0000
  C   C619      1.0  0.64792  0.19495  0.28583  1.0000
  C   C620      1.0  0.64520  0.17200  0.29783  1.0000
  H   H1039     1.0  0.66966  0.10728  0.27643  1.0000
  H   H1040     1.0  0.67378  0.14796  0.25506  1.0000
  H   H1041     1.0  0.64211  0.21947  0.28859  1.0000
  H   H1042     1.0  0.63718  0.17900  0.30962  1.0000
  H   H1043     1.0  0.50741  0.12249  0.19982  1.0000
  H   H1044     1.0  0.69909  0.21726  0.15319  1.0000
  C   C621      1.0  0.73705  0.13725  0.11116  1.0000
  C   C622      1.0  0.95833  0.27570  0.31088  1.0000
  H   H1045     1.0  0.94764  0.21382  0.14486  1.0000
  N   N34       1.0  0.87181  0.28429  0.13400  1.0000
  C   C623      1.0  0.86189  0.25243  0.13964  1.0000
  C   C624      1.0  0.86839  0.28586  0.11596  1.0000
  C   C625      1.0  0.90622  0.28640  0.13802  1.0000
  C   C626      1.0  0.85373  0.31168  0.14189  1.0000
  C   C627      1.0  0.81960  0.30605  0.14723  1.0000
  C   C628      1.0  0.87152  0.24357  0.15711  1.0000
  C   C629      1.0  0.92285  0.31504  0.13107  1.0000
  C   C630      1.0  0.83480  0.28357  0.10917  1.0000
  C   C631      1.0  0.83488  0.28376  0.09081  1.0000
  C   C632      1.0  0.80244  0.33684  0.15239  1.0000
  C   C633      1.0  0.85320  0.21644  0.16363  1.0000
  H   H1046     1.0  0.91978  0.00766  0.01608  1.0000
  H   H1047     1.0  0.87223  0.23349  0.13176  1.0000
  H   H1048     1.0  0.83629  0.25011  0.13836  1.0000
  H   H1049     1.0  0.87670  0.30852  0.11130  1.0000
  H   H1050     1.0  0.88348  0.26685  0.11027  1.0000
  H   H1051     1.0  0.91959  0.26471  0.13392  1.0000
  H   H1052     1.0  0.90963  0.28741  0.15128  1.0000
  H   H1053     1.0  0.86605  0.31959  0.15287  1.0000
  H   H1054     1.0  0.85313  0.33273  0.13390  1.0000
  H   H1055     1.0  0.81987  0.28975  0.15761  1.0000
  H   H1056     1.0  0.80550  0.29533  0.13768  1.0000
  H   H1057     1.0  0.89680  0.23610  0.15755  1.0000
  H   H1058     1.0  0.86773  0.26399  0.16523  1.0000
  H   H1059     1.0  0.90884  0.33739  0.13314  1.0000
  H   H1060     1.0  0.92665  0.31188  0.11797  1.0000
  H   H1061     1.0  0.82403  0.26162  0.11310  1.0000
  H   H1062     1.0  0.81994  0.30435  0.11301  1.0000
  H   H1063     1.0  0.84942  0.26350  0.08606  1.0000
  H   H1064     1.0  0.81057  0.28185  0.08625  1.0000
  H   H1065     1.0  0.84421  0.30603  0.08624  1.0000
  H   H1066     1.0  0.77916  0.33167  0.15741  1.0000
  H   H1067     1.0  0.81593  0.34890  0.16184  1.0000
  H   H1068     1.0  0.79894  0.35291  0.14196  1.0000
  H   H1069     1.0  0.86254  0.20946  0.17563  1.0000
  H   H1070     1.0  0.82824  0.22413  0.16512  1.0000
  H   H1071     1.0  0.85518  0.19575  0.15543  1.0000
  H   H1072     1.0  0.97395  0.22221  0.19094  1.0000
  H   H1073     1.0  0.87376  0.03216  0.06705  1.0000
  C   C634      1.0  0.83535  0.05092  0.11740  1.0000
  H   H1074     1.0  0.55692  0.29127  0.23112  1.0000
  H   H1075     1.0  0.62518  0.13028  0.16277  1.0000
  N   N35       1.0  0.74134  0.18781  0.31061  1.0000
  C   C635      1.0  0.73714  0.18118  0.29293  1.0000
  C   C636      1.0  0.73252  0.15904  0.31991  1.0000
  C   C637      1.0  0.71834  0.21452  0.31516  1.0000
  C   C638      1.0  0.77416  0.19714  0.31487  1.0000
  C   C639      1.0  0.80145  0.18312  0.30438  1.0000
  C   C640      1.0  0.73881  0.21011  0.28165  1.0000
  H   H1076     1.0  0.96207  0.43648  0.13091  1.0000
  C   C641      1.0  0.75342  0.12864  0.31742  1.0000
  C   C642      1.0  0.74002  0.10066  0.32617  1.0000
  C   C643      1.0  0.83325  0.18988  0.31175  1.0000
  C   C644      1.0  0.74459  0.19984  0.26426  1.0000
  H   H1077     1.0  0.96121  0.39278  0.25457  1.0000
  H   H1078     1.0  0.71394  0.17102  0.29075  1.0000
  H   H1079     1.0  0.75423  0.16262  0.28865  1.0000
  H   H1080     1.0  0.98203  0.23447  0.13920  1.0000
  H   H1081     1.0  0.70774  0.15351  0.31720  1.0000
  H   H1082     1.0  0.69420  0.20921  0.31117  1.0000
  H   H1083     1.0  0.72415  0.23653  0.30880  1.0000
  H   H1084     1.0  0.77596  0.22326  0.31421  1.0000
  H   H1085     1.0  0.77956  0.19113  0.32764  1.0000
  H   H1086     1.0  0.80063  0.19390  0.29225  1.0000
  H   H1087     1.0  0.80054  0.15728  0.30284  1.0000
  H   H1088     1.0  0.71612  0.22407  0.28201  1.0000
  H   H1089     1.0  0.75755  0.22588  0.28536  1.0000
  H   H1090     1.0  0.97562  0.26232  0.01594  1.0000
  H   H1091     1.0  0.75596  0.07943  0.32465  1.0000
  H   H1092     1.0  0.75538  0.12208  0.30457  1.0000
  H   H1093     1.0  0.77713  0.13192  0.32249  1.0000
  C   C645      1.0  0.91173  0.21438  0.01748  1.0000
  H   H1094     1.0  0.56335  0.13547  0.20096  1.0000
  C   C646      1.0  0.99372  0.41467  0.14849  1.0000
  H   H1095     1.0  0.83527  0.21564  0.31357  1.0000
  H   H1096     1.0  0.83635  0.17767  0.32346  1.0000
  H   H1097     1.0  0.85234  0.18131  0.30360  1.0000
  H   H1098     1.0  0.74078  0.22041  0.25617  1.0000
  H   H1099     1.0  0.76897  0.19001  0.26278  1.0000
  H   H1100     1.0  0.72796  0.18177  0.26058  1.0000
  H   H1101     1.0  0.71674  0.09534  0.32113  1.0000
  C   C647      1.0  0.98621  0.38542  0.25654  1.0000
  H   H1102     1.0  0.99135  0.30800  0.29003  1.0000
  C   C648      1.0  0.51744  0.22923  0.21847  1.0000
  S   S151      1.0  0.85484  0.27567  0.29826  1.0000
  C   C649      1.0  0.95986  0.26667  0.24001  1.0000
  H   H1103     1.0  0.98733  0.48992  0.16436  1.0000
  C   C650      1.0  0.95509  0.31805  0.13881  1.0000
  H   H1104     1.0  0.93794  0.24188  0.22042  1.0000
  C   C651      1.0  0.95441  0.26923  0.00883  1.0000
  C   C652      1.0  0.97337  0.41284  0.13340  1.0000
  H   H1105     1.0  0.73338  0.16364  0.33298  1.0000
  C   C653      1.0  0.69847  0.24899  0.13291  1.0000
  C   C654      1.0  0.91475  0.14367  0.16881  1.0000
  H   H1106     1.0  0.88200  0.08015  0.13486  1.0000
  H   H1107     1.0  0.92486  0.13721  0.18074  1.0000
  C   C655      1.0  0.99147  0.19430  0.15503  1.0000
  N   N36       1.0  0.97742  0.29555  0.26583  1.0000
  C   C656      1.0  0.95476  0.27379  0.25810  1.0000
  C   C657      1.0  0.97059  0.29907  0.28362  1.0000
  H   H1108     1.0  0.89928  0.19187  0.01822  1.0000
  H   H1109     1.0  0.70707  0.19302  0.11359  1.0000
  H   H1110     1.0  0.87416  0.21161  0.04468  1.0000
  H   H1111     1.0  0.68229  0.25803  0.12336  1.0000
  H   H1112     1.0  0.99083  0.36642  0.15446  1.0000
  H   H1113     1.0  0.93035  0.28364  0.25970  1.0000
  H   H1114     1.0  0.95531  0.25043  0.26405  1.0000
  H   H1115     1.0  0.89385  0.23251  0.01326  1.0000
  C   C658      1.0  0.92379  0.01261  0.09953  1.0000
  H   H1116     1.0  0.94673  0.33476  0.25777  1.0000
  C   C659      1.0  0.68318  0.22293  0.14291  1.0000
  H   H1117     1.0  0.55476  0.17139  0.19003  1.0000
  H   H1118     1.0  0.98148  0.45087  0.08766  1.0000
  H   H1119     1.0  0.93368  0.22367  0.23975  1.0000
  H   H1120     1.0  0.87653  0.07173  0.05954  1.0000
  H   H1121     1.0  0.97993  0.48567  0.01690  1.0000
  C   C660      1.0  0.93389  0.24664  0.23338  1.0000
  H   H1122     1.0  0.98005  0.32739  0.24548  1.0000
  C   C661      1.0  0.60775  0.18324  0.10322  1.0000
  H   H1123     1.0  0.74104  0.11127  0.11010  1.0000
  H   H1124     1.0  0.96623  0.31839  0.00726  1.0000
  H   H1125     1.0  0.65731  0.21796  0.11335  1.0000
  C   C662      1.0  0.97222  0.32778  0.25820  1.0000
  C   C663      1.0  0.79512  0.04919  0.18060  1.0000
  C   C664      1.0  0.86325  0.07025  0.14230  1.0000
  H   H1126     1.0  0.95899  0.49883  0.04250  1.0000
  C   C665      1.0  0.92353  0.00474  0.04963  1.0000
  H   H1127     1.0  0.66158  0.23435  0.14818  1.0000
  H   H1128     1.0  0.97983  0.18400  0.16553  1.0000
  C   C666      1.0  0.91595  0.04013  0.05319  1.0000
  H   H1129     1.0  0.98331  0.11754  0.15609  1.0000
  H   H1130     1.0  0.97577  0.05399  0.05587  1.0000
  H   H1131     1.0  0.85105  0.06370  0.10940  1.0000
  H   H1132     1.0  0.51312  0.15900  0.21000  1.0000
  H   H1133     1.0  0.99857  0.19819  0.10102  1.0000
  C   C667      1.0  0.98849  0.24769  0.10502  1.0000
  H   H1134     1.0  0.72066  0.24022  0.12721  1.0000
  C   C668      1.0  0.96749  0.19708  0.01378  1.0000
  H   H1135     1.0  0.96335  0.03866  0.03047  1.0000
  C   C669      1.0  0.85240  0.04115  0.13290  1.0000
  H   H1136     1.0  0.97317  0.46906  0.06849  1.0000
  H   H1137     1.0  0.85983  0.04614  0.18201  1.0000
  C   C670      1.0  0.90518  0.04429  0.15918  1.0000
  H   H1138     1.0  0.94900  0.25496  0.31706  1.0000
  H   H1139     1.0  0.97820  0.36081  0.27842  1.0000
  H   H1140     1.0  0.92186  0.05540  0.04298  1.0000
  H   H1141     1.0  0.92868  0.04738  0.06414  1.0000
  C   C671      1.0  0.69146  0.34696  0.24215  1.0000
  H   H1142     1.0  0.67508  0.25460  0.33158  1.0000
  H   H1143     1.0  0.56441  0.28861  0.25238  1.0000
  H   H1144     1.0  0.91066  0.25932  0.23467  1.0000
  C   C672      1.0  0.89096  0.23083  0.04505  1.0000
  C   C673      1.0  0.99721  0.16921  0.14155  1.0000
  C   C674      1.0  0.70634  0.27697  0.14358  1.0000
  H   H1145     1.0  0.98783  0.40551  0.12286  1.0000
  C   C675      1.0  0.97047  0.22207  0.14913  1.0000
  C   C676      1.0  0.90988  0.47909  0.15849  1.0000
  H   H1146     1.0  0.97423  0.15942  0.13834  1.0000
  C   C677      1.0  0.85054  0.04938  0.16955  1.0000
  H   H1147     1.0  0.95977  0.28853  0.23286  1.0000
  H   H1148     1.0  0.95624  0.42440  0.00779  1.0000
  H   H1149     1.0  0.73148  0.14698  0.09906  1.0000
  H   H1150     1.0  0.89065  0.46651  0.16339  1.0000
  C   C678      1.0  0.98003  0.00162  0.05720  1.0000
  H   H1151     1.0  0.68644  0.16485  0.15521  1.0000
  C   C679      1.0  0.90463  0.50015  0.14551  1.0000
  H   H1152     1.0  0.98565  0.07084  0.17377  1.0000
  H   H1153     1.0  0.99107  0.03813  0.12735  1.0000
  S   S152      1.0  0.00089  0.08978  0.01124  1.0000
  N   N37       1.0  0.77374  0.33236  0.26227  1.0000
  C   C680      1.0  0.78857  0.31010  0.24997  1.0000
  C   C681      1.0  0.78892  0.36393  0.26168  1.0000
  C   C682      1.0  0.77998  0.31817  0.27869  1.0000
  C   C683      1.0  0.73870  0.33625  0.26015  1.0000
  C   C684      1.0  0.72692  0.34950  0.24386  1.0000
  C   C685      1.0  0.77612  0.27638  0.24926  1.0000
  C   C686      1.0  0.77049  0.33930  0.29336  1.0000
  C   C687      1.0  0.80003  0.37554  0.24503  1.0000
  C   C688      1.0  0.80854  0.41011  0.24571  1.0000
  C   C689      1.0  0.79383  0.25636  0.23665  1.0000
  C   C690      1.0  0.78055  0.32342  0.30915  1.0000
  H   H1154     1.0  0.81431  0.30779  0.25206  1.0000
  H   H1155     1.0  0.78601  0.31958  0.23761  1.0000
  H   H1156     1.0  0.77298  0.38273  0.26695  1.0000
  H   H1157     1.0  0.81057  0.36335  0.26926  1.0000
  H   H1158     1.0  0.80528  0.31130  0.27998  1.0000
  H   H1159     1.0  0.76730  0.29609  0.28021  1.0000
  H   H1160     1.0  0.72754  0.31344  0.26232  1.0000
  H   H1161     1.0  0.72845  0.35273  0.26931  1.0000
  H   H1162     1.0  0.73800  0.33647  0.23374  1.0000
  H   H1163     1.0  0.73198  0.37486  0.24293  1.0000
  H   H1164     1.0  0.77942  0.26396  0.26087  1.0000
  H   H1165     1.0  0.75088  0.27724  0.24594  1.0000
  H   H1166     1.0  0.74470  0.34358  0.29384  1.0000
  H   H1167     1.0  0.78156  0.36242  0.29298  1.0000
  H   H1168     1.0  0.82136  0.36140  0.24125  1.0000
  H   H1169     1.0  0.78207  0.37331  0.23556  1.0000
  H   H1170     1.0  0.78735  0.42559  0.24804  1.0000
  H   H1171     1.0  0.82617  0.41378  0.25529  1.0000
  H   H1172     1.0  0.81876  0.41694  0.23404  1.0000
  H   H1173     1.0  0.78434  0.23246  0.23611  1.0000
  H   H1174     1.0  0.79107  0.26730  0.22461  1.0000
  H   H1175     1.0  0.81918  0.25391  0.23970  1.0000
  C   C691      1.0  0.88108  0.04634  0.05663  1.0000
  H   H1176     1.0  0.80652  0.32122  0.30999  1.0000
  H   H1177     1.0  0.95262  0.32423  0.15173  1.0000
  H   H1178     1.0  0.61301  0.20252  0.09476  1.0000
  H   H1179     1.0  0.68526  0.32179  0.24216  1.0000
  H   H1180     1.0  0.63949  0.20047  0.16339  1.0000
  C   C692      1.0  0.99233  0.23491  0.19667  1.0000
  H   H1181     1.0  0.77185  0.33797  0.31946  1.0000
  C   C693      1.0  0.54734  0.14695  0.19195  1.0000
  H   H1182     1.0  0.93996  0.47659  0.01962  1.0000
  H   H1183     1.0  0.95117  0.31727  0.28554  1.0000
  C   C694      1.0  0.51360  0.14724  0.19804  1.0000
  H   H1184     1.0  0.99713  0.14279  0.11221  1.0000
  C   C695      1.0  0.97332  0.11042  0.03915  1.0000
  H   H1185     1.0  0.93489  0.27636  0.01702  1.0000
  H   H1186     1.0  0.86426  0.28042  0.26453  1.0000
  C   C696      1.0  0.91451  0.12340  0.02534  1.0000
  H   H1187     1.0  0.61012  0.16046  0.17639  1.0000
  C   C697      1.0  0.99326  0.19741  0.32761  1.0000
  H   H1188     1.0  0.89298  0.15858  0.17052  1.0000
  H   H1189     1.0  0.98506  0.19762  0.31495  1.0000
  N   N38       1.0  0.93847  0.21112  0.00559  1.0000
  C   C698      1.0  0.92021  0.22175  0.03525  1.0000
  C   C699      1.0  0.63051  0.15271  0.16888  1.0000
  H   H1190     1.0  0.65113  0.14855  0.17692  1.0000
  H   H1191     1.0  0.87934  0.25292  0.04037  1.0000
  H   H1192     1.0  0.71609  0.13319  0.13440  1.0000
  H   H1193     1.0  0.66249  0.14597  0.14122  1.0000
  H   H1194     1.0  0.98259  0.25346  0.23802  1.0000
  H   H1195     1.0  0.99571  0.22223  0.33155  1.0000
  H   H1196     1.0  0.82026  0.09075  0.17675  1.0000
  H   H1197     1.0  0.93654  0.24111  0.03638  1.0000
  H   H1198     1.0  0.99606  0.10540  0.04458  1.0000
  H   H1199     1.0  0.93029  0.09949  0.15852  1.0000
  H   H1200     1.0  0.80765  0.07146  0.15866  1.0000
  H   H1201     1.0  0.86025  0.11225  0.16616  1.0000
  H   H1202     1.0  0.72338  0.26943  0.15311  1.0000
  H   H1203     1.0  0.54960  0.13364  0.18048  1.0000
  C   C700      1.0  0.95604  0.48911  0.01156  1.0000
  H   H1204     1.0  0.55288  0.32631  0.24337  1.0000
  C   C701      1.0  0.64964  0.20082  0.12245  1.0000
  H   H1205     1.0  0.59953  0.16297  0.09614  1.0000
  C   C702      1.0  0.95953  0.26973  0.29276  1.0000
  H   H1206     1.0  0.93534  0.26453  0.28887  1.0000
  N   N39       1.0  0.67586  0.19291  0.13413  1.0000
  H   H1207     1.0  0.97592  0.21294  0.02329  1.0000
  C   C703      1.0  0.88132  0.09584  0.16679  1.0000
  H   H1208     1.0  0.84402  0.08888  0.14218  1.0000
  H   H1209     1.0  0.75903  0.14734  0.11558  1.0000
  C   C704      1.0  0.71005  0.14486  0.12276  1.0000
  C   C705      1.0  0.66662  0.16930  0.14662  1.0000
  C   C706      1.0  0.63687  0.17832  0.15659  1.0000
  H   H1210     1.0  0.65491  0.16403  0.10408  1.0000
  H   H1211     1.0  0.88695  0.09273  0.17981  1.0000
  H   H1212     1.0  0.98208  0.27971  0.31575  1.0000
  H   H1213     1.0  0.86677  0.04059  0.04594  1.0000
  H   H1214     1.0  0.97779  0.42180  0.15840  1.0000
  C   C707      1.0  0.70522  0.18102  0.12542  1.0000
  H   H1215     1.0  0.96935  0.29557  0.13771  1.0000
  H   H1216     1.0  0.67890  0.35974  0.25204  1.0000
  H   H1217     1.0  0.58857  0.19155  0.11140  1.0000
  H   H1218     1.0  0.63053  0.15333  0.12078  1.0000
  N   N40       1.0  0.87481  0.06433  0.15924  1.0000
  H   H1219     1.0  0.62962  0.21326  0.12871  1.0000
  H   H1220     1.0  0.91931  0.04965  0.14838  1.0000
  C   C708      1.0  0.96918  0.10554  0.02266  1.0000
  H   H1221     1.0  0.72646  0.18732  0.13227  1.0000
  H   H1222     1.0  0.51845  0.29270  0.27136  1.0000
  Fe  Fe76      1.0  0.85463  0.27702  0.32555  1.0000
  C   C709      1.0  0.94528  0.00507  0.01367  1.0000
  H   H1223     1.0  0.68889  0.13414  0.11791  1.0000
  H   H1224     1.0  0.51515  0.21932  0.23034  1.0000
  H   H1225     1.0  0.71701  0.29545  0.13624  1.0000
  H   H1226     1.0  0.92015  0.05032  0.16965  1.0000
  H   H1227     1.0  0.99198  0.04126  0.08374  1.0000
  C   C710      1.0  0.71664  0.22289  0.33332  1.0000
  H   H1228     1.0  0.96615  0.23915  0.15910  1.0000
  C   C711      1.0  0.96418  0.49248  0.15907  1.0000
  H   H1229     1.0  0.94249  0.29655  0.31368  1.0000
  H   H1230     1.0  0.68483  0.28745  0.14935  1.0000
  C   C712      1.0  0.98892  0.35531  0.26655  1.0000
  H   H1231     1.0  0.77092  0.29962  0.31012  1.0000
  C   C713      1.0  0.54940  0.30053  0.24308  1.0000
  H   H1232     1.0  0.96769  0.33682  0.13263  1.0000
  H   H1233     1.0  0.95464  0.39590  0.13514  1.0000
  H   H1234     1.0  0.96164  0.17502  0.02011  1.0000
  C   C714      1.0  0.98726  0.26712  0.20033  1.0000
  C   C715      1.0  0.96484  0.01270  0.02886  1.0000
  H   H1235     1.0  0.98988  0.00700  0.02587  1.0000
  H   H1236     1.0  0.51285  0.26811  0.24490  1.0000
  C   C716      1.0  0.90282  0.00791  0.16007  1.0000
  H   H1237     1.0  0.87313  0.02587  0.12945  1.0000
  H   H1238     1.0  0.97491  0.24848  0.29058  1.0000
  H   H1239     1.0  0.99798  0.38165  0.24477  1.0000
  H   H1240     1.0  0.99631  0.39708  0.18294  1.0000
  H   H1241     1.0  0.96211  0.15968  0.33323  1.0000
  C   C717      1.0  0.99066  0.45430  0.07535  1.0000
  H   H1242     1.0  0.80425  0.04506  0.19296  1.0000
  H   H1243     1.0  0.99392  0.43079  0.06952  1.0000
  H   H1244     1.0  0.90474  0.00536  0.09200  1.0000
  H   H1245     1.0  0.84577  0.02526  0.16537  1.0000
  H   H1246     1.0  0.00409  0.18230  0.13074  1.0000
  Fe  Fe77      1.0  0.63371  0.12365  0.33482  1.0000
  C   C718      1.0  0.00147  0.27711  0.10747  1.0000
  H   H1247     1.0  0.83603  0.02719  0.13992  1.0000
  H   H1248     1.0  0.99768  0.40478  0.26295  1.0000
  H   H1249     1.0  0.82794  0.02956  0.11094  1.0000
  H   H1250     1.0  0.79080  0.02616  0.17481  1.0000
  C   C719      1.0  0.69955  0.25486  0.33615  1.0000
  S   S153      1.0  0.58611  0.11022  0.34309  1.0000
  H   H1251     1.0  0.72706  0.23178  0.38094  1.0000
  S   S154      1.0  0.58529  0.05892  0.38182  1.0000
  S   S155      1.0  0.60098  0.14563  0.37684  1.0000
  Fe  Fe78      1.0  0.61758  0.37519  0.44997  1.0000
  S   S156      1.0  0.66774  0.38239  0.45696  1.0000
  S   S157      1.0  0.58371  0.40923  0.43746  1.0000
  Fe  Fe79      1.0  0.61753  0.30872  0.46369  1.0000
  S   S158      1.0  0.66753  0.31114  0.47157  1.0000
  S   S159      1.0  0.59390  0.26414  0.47098  1.0000
  Fe  Fe80      1.0  0.65354  0.35986  0.48029  1.0000
  S   S160      1.0  0.66779  0.37489  0.50543  1.0000
  Fe  Fe81      1.0  0.67689  0.33282  0.44743  1.0000
  S   S161      1.0  0.71799  0.30892  0.43355  1.0000
  S   S162      1.0  0.60299  0.35601  0.47373  1.0000
  S   S163      1.0  0.62737  0.32733  0.43904  1.0000
  Fe  Fe82      1.0  0.84438  0.23267  0.35364  1.0000
  H   H1252     1.0  0.93422  0.36111  0.43831  1.0000
  H   H1253     1.0  0.50725  0.15220  0.40998  1.0000
  Fe  Fe83      1.0  0.89895  0.27745  0.35443  1.0000
  S   S164      1.0  0.86916  0.31557  0.34197  1.0000
  S   S165      1.0  0.94964  0.29208  0.35785  1.0000
  Fe  Fe84      1.0  0.82967  0.30196  0.35825  1.0000
  S   S166      1.0  0.79451  0.33743  0.36984  1.0000
  H   H1254     1.0  0.70979  0.11186  0.39570  1.0000
  H   H1255     1.0  0.81621  0.11370  0.38471  1.0000
  S   S167      1.0  0.86052  0.26726  0.37218  1.0000
  C   C720      1.0  0.72427  0.15661  0.41689  1.0000
  H   H1256     1.0  0.65278  0.06696  0.41099  1.0000
  C   C721      1.0  0.56575  0.47285  0.48543  1.0000
  H   H1257     1.0  0.53780  0.02348  0.48296  1.0000
  H   H1258     1.0  0.58520  0.09411  0.65917  1.0000
  Fe  Fe85      1.0  0.54539  0.10022  0.60279  1.0000
  S   S168      1.0  0.59171  0.07518  0.60880  1.0000
  Fe  Fe86      1.0  0.56721  0.43062  0.58125  1.0000
  H   H1259     1.0  0.53289  0.44546  0.47199  1.0000
  S   S169      1.0  0.56597  0.43228  0.55405  1.0000
  Fe  Fe87      1.0  0.58674  0.45191  0.61527  1.0000
  S   S170      1.0  0.55037  0.42303  0.62707  1.0000
  Fe  Fe88      1.0  0.56380  0.38437  0.60920  1.0000
  H   H1260     1.0  0.90086  0.29861  0.43591  1.0000
  Fe  Fe89      1.0  0.51893  0.44297  0.60744  1.0000
  S   S171      1.0  0.60318  0.41176  0.59888  1.0000
  S   S172      1.0  0.55455  0.47320  0.59641  1.0000
  H   H1261     1.0  0.56949  0.12959  0.51269  1.0000
  H   H1262     1.0  0.54992  0.46729  0.65589  1.0000
  C   C722      1.0  0.51609  0.03167  0.47662  1.0000
  C   C723      1.0  0.55102  0.29861  0.61005  1.0000
  C   C724      1.0  0.53737  0.03170  0.35052  1.0000
  H   H1263     1.0  0.62225  0.47294  0.52524  1.0000
  C   C725      1.0  0.74464  0.21103  0.42144  1.0000
  H   H1264     1.0  0.72738  0.16244  0.40404  1.0000
  H   H1265     1.0  0.53998  0.44642  0.35572  1.0000
  H   H1266     1.0  0.53117  0.11472  0.65504  1.0000
  H   H1267     1.0  0.68289  0.42961  0.48421  1.0000
  H   H1268     1.0  0.86578  0.34116  0.44611  1.0000
  C   C726      1.0  0.63915  0.38877  0.51940  1.0000
  C   C727      1.0  0.64854  0.39925  0.53462  1.0000
  C   C728      1.0  0.62627  0.41164  0.54570  1.0000
  C   C729      1.0  0.59446  0.41351  0.54159  1.0000
  C   C730      1.0  0.58507  0.40251  0.52652  1.0000
  C   C731      1.0  0.60726  0.39020  0.51550  1.0000
  H   H1269     1.0  0.67318  0.39830  0.53775  1.0000
  H   H1270     1.0  0.63379  0.42037  0.55725  1.0000
  H   H1271     1.0  0.56052  0.40420  0.52319  1.0000
  H   H1272     1.0  0.59961  0.38249  0.50388  1.0000
  C   C732      1.0  0.55751  0.25680  0.46216  1.0000
  C   C733      1.0  0.54540  0.22675  0.46357  1.0000
  H   H1273     1.0  0.54212  0.48360  0.36608  1.0000
  S   S173      1.0  0.82509  0.18487  0.35859  1.0000
  C   C734      1.0  0.57066  0.15570  0.51232  1.0000
  C   C735      1.0  0.54049  0.28046  0.45382  1.0000
  H   H1274     1.0  0.55854  0.20837  0.47003  1.0000
  H   H1275     1.0  0.55958  0.28708  0.36901  1.0000
  H   H1276     1.0  0.54954  0.30379  0.45290  1.0000
  C   C736      1.0  0.73578  0.31661  0.41472  1.0000
  C   C737      1.0  0.75692  0.29354  0.40830  1.0000
  C   C738      1.0  0.77407  0.29915  0.39426  1.0000
  C   C739      1.0  0.77054  0.32822  0.38646  1.0000
  C   C740      1.0  0.74876  0.35114  0.39258  1.0000
  C   C741      1.0  0.73126  0.34530  0.40657  1.0000
  H   H1277     1.0  0.76080  0.27146  0.41448  1.0000
  H   H1278     1.0  0.79059  0.28125  0.38970  1.0000
  H   H1279     1.0  0.74579  0.37374  0.38662  1.0000
  H   H1280     1.0  0.71506  0.36336  0.41130  1.0000
  N   N41       1.0  0.53703  0.43682  0.39041  1.0000
  C   C742      1.0  0.61560  0.46199  0.44553  1.0000
  C   C743      1.0  0.58659  0.44942  0.44220  1.0000
  C   C744      1.0  0.55945  0.46932  0.44214  1.0000
  H   H1281     1.0  0.61563  0.21317  0.56963  1.0000
  H   H1282     1.0  0.63668  0.44686  0.44527  1.0000
  H   H1283     1.0  0.53694  0.45978  0.43949  1.0000
  Fe  Fe90      1.0  0.64807  0.15489  0.36621  1.0000
  C   C745      1.0  0.72152  0.18394  0.37293  1.0000
  C   C746      1.0  0.73837  0.21118  0.37536  1.0000
  C   C747      1.0  0.76989  0.21198  0.37058  1.0000
  C   C748      1.0  0.78506  0.18518  0.36383  1.0000
  H   H1284     1.0  0.53538  0.01624  0.33982  1.0000
  C   C749      1.0  0.73647  0.15737  0.36588  1.0000
  H   H1285     1.0  0.69893  0.25999  0.34923  1.0000
  H   H1286     1.0  0.78264  0.23315  0.37241  1.0000
  H   H1287     1.0  0.91272  0.32257  0.41923  1.0000
  H   H1288     1.0  0.82068  0.36694  0.45045  1.0000
  C   C750      1.0  0.59425  0.02775  0.39572  1.0000
  S   S174      1.0  0.53289  0.18284  0.34875  1.0000
  C   C751      1.0  0.51980  0.42580  0.40498  1.0000
  H   H1289     1.0  0.75640  0.22591  0.43040  1.0000
  C   C752      1.0  0.58762  0.03516  0.61371  1.0000
  S   S175      1.0  0.68295  0.18255  0.38031  1.0000
  Fe  Fe91      1.0  0.60859  0.09661  0.36679  1.0000
  C   C753      1.0  0.83460  0.30160  0.42754  1.0000
  N   N42       1.0  0.60091  0.31005  0.55801  1.0000
  C   C754      1.0  0.59911  0.31077  0.53989  1.0000
  C   C755      1.0  0.57159  0.32655  0.56467  1.0000
  C   C756      1.0  0.62841  0.32901  0.56303  1.0000
  C   C757      1.0  0.60551  0.27712  0.56484  1.0000
  C   C758      1.0  0.59100  0.24980  0.55536  1.0000
  C   C759      1.0  0.62983  0.30110  0.53089  1.0000
  C   C760      1.0  0.63272  0.33404  0.58134  1.0000
  C   C761      1.0  0.54092  0.46335  0.66826  1.0000
  C   C762      1.0  0.56517  0.26794  0.60947  1.0000
  C   C763      1.0  0.59149  0.21956  0.56534  1.0000
  C   C764      1.0  0.62364  0.29513  0.51306  1.0000
  H   H1290     1.0  0.59197  0.33504  0.53572  1.0000
  H   H1291     1.0  0.58062  0.29565  0.53533  1.0000
  H   H1292     1.0  0.57232  0.32720  0.57800  1.0000
  H   H1293     1.0  0.57014  0.35175  0.56073  1.0000
  H   H1294     1.0  0.62665  0.35273  0.55737  1.0000
  H   H1295     1.0  0.65079  0.31752  0.55872  1.0000
  H   H1296     1.0  0.63094  0.27025  0.56600  1.0000
  H   H1297     1.0  0.59642  0.27665  0.57738  1.0000
  H   H1298     1.0  0.60460  0.24465  0.54425  1.0000
  C   C765      1.0  0.81943  0.35769  0.42434  1.0000
  H   H1299     1.0  0.64645  0.32048  0.53162  1.0000
  H   H1300     1.0  0.64145  0.27957  0.53617  1.0000
  H   H1301     1.0  0.63233  0.31145  0.58802  1.0000
  H   H1302     1.0  0.61383  0.35023  0.58600  1.0000
  H   H1303     1.0  0.55459  0.49526  0.48095  1.0000
  H   H1304     1.0  0.83546  0.32590  0.39748  1.0000
  C   C766      1.0  0.54010  0.31166  0.56060  1.0000
  H   H1305     1.0  0.52439  0.08858  0.36518  1.0000
  H   H1306     1.0  0.75679  0.21285  0.40972  1.0000
  C   C767      1.0  0.96780  0.18333  0.33784  1.0000
  H   H1307     1.0  0.71012  0.04941  0.46162  1.0000
  C   C768      1.0  0.98933  0.24025  0.36582  1.0000
  H   H1308     1.0  0.61252  0.31653  0.50735  1.0000
  H   H1309     1.0  0.64617  0.28944  0.50684  1.0000
  H   H1310     1.0  0.60822  0.27499  0.51140  1.0000
  H   H1311     1.0  0.53647  0.42016  0.41493  1.0000
  H   H1312     1.0  0.58580  0.45320  0.50735  1.0000
  H   H1313     1.0  0.62737  0.44098  0.49079  1.0000
  C   C769      1.0  0.51195  0.12995  0.38640  1.0000
  H   H1314     1.0  0.54621  0.02623  0.40346  1.0000
  H   H1315     1.0  0.53151  0.20243  0.54586  1.0000
  C   C770      1.0  0.67296  0.45423  0.48351  1.0000
  C   C771      1.0  0.55837  0.46238  0.39561  1.0000
  H   H1316     1.0  0.53749  0.04978  0.50898  1.0000
  N   N43       1.0  0.60963  0.23918  0.41308  1.0000
  H   H1317     1.0  0.95149  0.32193  0.44107  1.0000
  C   C772      1.0  0.59200  0.26968  0.41722  1.0000
  C   C773      1.0  0.80375  0.35973  0.44117  1.0000
  C   C774      1.0  0.64143  0.23858  0.42113  1.0000
  C   C775      1.0  0.64129  0.23835  0.43975  1.0000
  C   C776      1.0  0.70542  0.10562  0.40844  1.0000
  C   C777      1.0  0.62666  0.26621  0.38676  1.0000
  C   C778      1.0  0.55853  0.27390  0.41001  1.0000
  C   C779      1.0  0.54596  0.30815  0.41138  1.0000
  C   C780      1.0  0.67394  0.23070  0.44663  1.0000
  H   H1318     1.0  0.66022  0.24359  0.37028  1.0000
  H   H1319     1.0  0.69294  0.08883  0.46361  1.0000
  H   H1320     1.0  0.60495  0.46569  0.66468  1.0000
  H   H1321     1.0  0.58101  0.21686  0.43088  1.0000
  H   H1322     1.0  0.58906  0.27186  0.43044  1.0000
  H   H1323     1.0  0.62432  0.49839  0.48155  1.0000
  H   H1324     1.0  0.82726  0.38178  0.42171  1.0000
  H   H1325     1.0  0.82353  0.11219  0.40601  1.0000
  H   H1326     1.0  0.65636  0.21807  0.41678  1.0000
  H   H1327     1.0  0.65449  0.25960  0.41769  1.0000
  H   H1328     1.0  0.62532  0.22114  0.44481  1.0000
  H   H1329     1.0  0.63372  0.26199  0.44423  1.0000
  H   H1330     1.0  0.56073  0.06349  0.65223  1.0000
  H   H1331     1.0  0.69989  0.16534  0.41965  1.0000
  H   H1332     1.0  0.64614  0.27647  0.39350  1.0000
  H   H1333     1.0  0.60737  0.28461  0.38580  1.0000
  H   H1334     1.0  0.63438  0.02031  0.60644  1.0000
  H   H1335     1.0  0.76568  0.38535  0.45347  1.0000
  H   H1336     1.0  0.58201  0.34906  0.37941  1.0000
  H   H1337     1.0  0.69579  0.07077  0.43513  1.0000
  H   H1338     1.0  0.84732  0.22072  0.41985  1.0000
  H   H1339     1.0  0.67304  0.23211  0.45995  1.0000
  H   H1340     1.0  0.68228  0.20648  0.44314  1.0000
  H   H1341     1.0  0.69071  0.24802  0.44235  1.0000
  H   H1342     1.0  0.65528  0.08489  0.39137  1.0000
  H   H1343     1.0  0.88797  0.38215  0.37640  1.0000
  H   H1344     1.0  0.60572  0.29015  0.41370  1.0000
  C   C781      1.0  0.98633  0.27028  0.35892  1.0000
  H   H1345     1.0  0.70943  0.07949  0.40889  1.0000
  C   C782      1.0  0.74607  0.17684  0.42714  1.0000
  H   H1346     1.0  0.52098  0.31015  0.40763  1.0000
  H   H1347     1.0  0.69152  0.47033  0.48713  1.0000
  H   H1348     1.0  0.77992  0.13701  0.35642  1.0000
  H   H1349     1.0  0.61619  0.48255  0.55450  1.0000
  C   C783      1.0  0.64470  0.45816  0.49467  1.0000
  C   C784      1.0  0.76089  0.10916  0.41552  1.0000
  H   H1350     1.0  0.52962  0.17367  0.39556  1.0000
  H   H1351     1.0  0.97550  0.18110  0.35056  1.0000
  H   H1352     1.0  0.61793  0.17354  0.40682  1.0000
  H   H1353     1.0  0.62078  0.24752  0.36245  1.0000
  C   C785      1.0  0.50873  0.21592  0.54659  1.0000
  H   H1354     1.0  0.87454  0.27070  0.41884  1.0000
  H   H1355     1.0  0.59617  0.40712  0.40005  1.0000
  C   C786      1.0  0.57781  0.47682  0.50286  1.0000
  H   H1356     1.0  0.55510  0.04931  0.34796  1.0000
  H   H1357     1.0  0.92238  0.33717  0.45504  1.0000
  H   H1358     1.0  0.59958  0.13074  0.42516  1.0000
  C   C787      1.0  0.52654  0.46429  0.36301  1.0000
  H   H1359     1.0  0.55030  0.26535  0.49970  1.0000
  H   H1360     1.0  0.51184  0.37715  0.39639  1.0000
  H   H1361     1.0  0.55817  0.21770  0.60789  1.0000
  H   H1362     1.0  0.55789  0.26722  0.39717  1.0000
  C   C788      1.0  0.76827  0.15785  0.36156  1.0000
  H   H1363     1.0  0.84631  0.23975  0.43926  1.0000
  H   H1364     1.0  0.54233  0.25874  0.41655  1.0000
  H   H1365     1.0  0.51006  0.48910  0.34157  1.0000
  S   S176      1.0  0.53891  0.14054  0.58536  1.0000
  H   H1366     1.0  0.57570  0.22265  0.57587  1.0000
  H   H1367     1.0  0.80668  0.07905  0.39586  1.0000
  H   H1368     1.0  0.73859  0.17667  0.43991  1.0000
  S   S177      1.0  0.52878  0.40192  0.59090  1.0000
  H   H1369     1.0  0.59038  0.26486  0.61053  1.0000
  C   C789      1.0  0.50769  0.07073  0.36884  1.0000
  H   H1370     1.0  0.72376  0.13615  0.36420  1.0000
  H   H1371     1.0  0.64348  0.02227  0.39048  1.0000
  H   H1372     1.0  0.57109  0.23016  0.36265  1.0000
  C   C790      1.0  0.72161  0.11451  0.43686  1.0000
  H   H1373     1.0  0.55185  0.42438  0.48836  1.0000
  C   C791      1.0  0.83779  0.24157  0.42666  1.0000
  C   C792      1.0  0.54695  0.24110  0.60797  1.0000
  H   H1374     1.0  0.53331  0.11574  0.39013  1.0000
  C   C793      1.0  0.61245  0.01284  0.61127  1.0000
  C   C794      1.0  0.61740  0.49439  0.44883  1.0000
  H   H1375     1.0  0.72005  0.22032  0.41998  1.0000
  H   H1376     1.0  0.53853  0.28895  0.56710  1.0000
  H   H1377     1.0  0.84744  0.38223  0.39734  1.0000
  C   C795      1.0  0.86709  0.36419  0.39809  1.0000
  H   H1378     1.0  0.54045  0.04258  0.62193  1.0000
  H   H1379     1.0  0.50823  0.01226  0.46889  1.0000
  C   C796      1.0  0.55974  0.01758  0.52567  1.0000
  H   H1380     1.0  0.58332  0.19970  0.55796  1.0000
  H   H1381     1.0  0.55692  0.48387  0.51020  1.0000
  C   C797      1.0  0.51321  0.44887  0.37824  1.0000
  H   H1382     1.0  0.51599  0.13812  0.37405  1.0000
  C   C798      1.0  0.56532  0.07947  0.66250  1.0000
  C   C799      1.0  0.61463  0.23637  0.39517  1.0000
  H   H1383     1.0  0.70065  0.12854  0.44125  1.0000
  H   H1384     1.0  0.54175  0.05019  0.45655  1.0000
  H   H1385     1.0  0.54418  0.31600  0.51502  1.0000
  H   H1386     1.0  0.66592  0.45918  0.47089  1.0000
  H   H1387     1.0  0.61323  0.35182  0.39395  1.0000
  H   H1388     1.0  0.64440  0.28145  0.36382  1.0000
  H   H1389     1.0  0.66375  0.13715  0.40542  1.0000
  H   H1390     1.0  0.73499  0.08174  0.46554  1.0000
  H   H1391     1.0  0.57158  0.41965  0.37320  1.0000
  C   C800      1.0  0.58601  0.15346  0.42350  1.0000
  C   C801      1.0  0.77629  0.38419  0.44131  1.0000
  H   H1392     1.0  0.57289  0.03609  0.53186  1.0000
  H   H1393     1.0  0.55540  0.21505  0.52290  1.0000
  H   H1394     1.0  0.80893  0.30077  0.42545  1.0000
  H   H1395     1.0  0.62445  0.09738  0.40493  1.0000
  H   H1396     1.0  0.70343  0.20502  0.33988  1.0000
  H   H1397     1.0  0.84040  0.27159  0.40620  1.0000
  C   C802      1.0  0.52462  0.05892  0.46573  1.0000
  C   C803      1.0  0.63861  0.25910  0.36980  1.0000
  C   C804      1.0  0.52895  0.31098  0.50460  1.0000
  H   H1398     1.0  0.58088  0.16240  0.50062  1.0000
  H   H1399     1.0  0.57383  0.15950  0.43495  1.0000
  H   H1400     1.0  0.56945  0.21016  0.41088  1.0000
  N   N44       1.0  0.72801  0.12151  0.41944  1.0000
  C   C805      1.0  0.77437  0.11994  0.39924  1.0000
  C   C806      1.0  0.87268  0.34281  0.43329  1.0000
  C   C807      1.0  0.87991  0.35944  0.38110  1.0000
  C   C808      1.0  0.54864  0.24133  0.35967  1.0000
  H   H1401     1.0  0.68387  0.33351  0.58128  1.0000
  C   C809      1.0  0.55670  0.41030  0.38286  1.0000
  H   H1402     1.0  0.53718  0.30777  0.54755  1.0000
  H   H1403     1.0  0.52310  0.16199  0.50433  1.0000
  H   H1404     1.0  0.54163  0.39328  0.37663  1.0000
  H   H1405     1.0  0.66473  0.37229  0.57878  1.0000
  C   C810      1.0  0.64951  0.08935  0.40418  1.0000
  H   H1406     1.0  0.53532  0.07780  0.47287  1.0000
  H   H1407     1.0  0.56610  0.38000  0.40405  1.0000
  H   H1408     1.0  0.73764  0.06427  0.43692  1.0000
  C   C811      1.0  0.51165  0.27395  0.44668  1.0000
  H   H1409     1.0  0.66554  0.35350  0.59818  1.0000
  C   C812      1.0  0.59799  0.36549  0.38536  1.0000
  H   H1410     1.0  0.54774  0.31692  0.42390  1.0000
  C   C813      1.0  0.66369  0.34925  0.58504  1.0000
  S   S178      1.0  0.81235  0.26688  0.34043  1.0000
  H   H1411     1.0  0.57508  0.46778  0.38588  1.0000
  H   H1412     1.0  0.75789  0.37751  0.43267  1.0000
  C   C814      1.0  0.54136  0.44767  0.48456  1.0000
  H   H1413     1.0  0.77637  0.14593  0.39889  1.0000
  S   S179      1.0  0.62077  0.48121  0.62975  1.0000
  H   H1414     1.0  0.52096  0.45424  0.49231  1.0000
  C   C815      1.0  0.80720  0.10520  0.39636  1.0000
  C   C816      1.0  0.56974  0.01602  0.40490  1.0000
  H   H1415     1.0  0.81180  0.24125  0.42649  1.0000
  H   H1416     1.0  0.66407  0.11653  0.42417  1.0000
  H   H1417     1.0  0.59280  0.22997  0.38890  1.0000
  H   H1418     1.0  0.87753  0.36812  0.43152  1.0000
  H   H1419     1.0  0.57348  0.45395  0.40580  1.0000
  H   H1420     1.0  0.86132  0.35124  0.37297  1.0000
  H   H1421     1.0  0.79439  0.33683  0.44478  1.0000
  H   H1422     1.0  0.56835  0.15015  0.41393  1.0000
  S   S180      1.0  0.62749  0.17392  0.34312  1.0000
  S   S181      1.0  0.65726  0.10514  0.35756  1.0000
  C   C817      1.0  0.59061  0.21216  0.41862  1.0000
  C   C818      1.0  0.60803  0.17925  0.41879  1.0000
  C   C819      1.0  0.52591  0.22347  0.35239  1.0000
  H   H1423     1.0  0.50544  0.03086  0.42605  1.0000
  C   C820      1.0  0.90393  0.32306  0.43174  1.0000
  H   H1424     1.0  0.63145  0.21635  0.39250  1.0000
  H   H1425     1.0  0.83757  0.29813  0.44072  1.0000
  H   H1426     1.0  0.87435  0.31449  0.40262  1.0000
  C   C821      1.0  0.62449  0.01403  0.39766  1.0000
  C   C822      1.0  0.84862  0.27174  0.41886  1.0000
  C   C823      1.0  0.51254  0.28763  0.35964  1.0000
  H   H1427     1.0  0.54557  0.01691  0.36084  1.0000
  C   C824      1.0  0.92946  0.33676  0.44221  1.0000
  C   C825      1.0  0.67012  0.11427  0.41130  1.0000
  H   H1428     1.0  0.77772  0.11558  0.42509  1.0000
  H   H1429     1.0  0.65295  0.45171  0.50691  1.0000
  C   C826      1.0  0.51007  0.00672  0.51028  1.0000
  H   H1430     1.0  0.77088  0.16805  0.42652  1.0000
  S   S182      1.0  0.57507  0.33143  0.61301  1.0000
  C   C827      1.0  0.71363  0.07471  0.45905  1.0000
  Fe  Fe92      1.0  0.58121  0.15955  0.35280  1.0000
  C   C828      1.0  0.55942  0.02534  0.61996  1.0000
  H   H1431     1.0  0.80068  0.35318  0.41538  1.0000
  H   H1432     1.0  0.75936  0.11279  0.38911  1.0000
  C   C829      1.0  0.71722  0.07933  0.44096  1.0000
  H   H1433     1.0  0.90009  0.34189  0.38099  1.0000
  H   H1434     1.0  0.57513  0.00623  0.51637  1.0000
  C   C830      1.0  0.53004  0.03244  0.51797  1.0000
  H   H1435     1.0  0.61313  0.37591  0.37614  1.0000
  C   C831      1.0  0.85559  0.33283  0.40502  1.0000
  H   H1436     1.0  0.96869  0.22920  0.37018  1.0000
  C   C832      1.0  0.51649  0.22025  0.45646  1.0000
  H   H1437     1.0  0.78428  0.40795  0.43818  1.0000
  H   H1438     1.0  0.62759  0.17842  0.42758  1.0000
  H   H1439     1.0  0.88614  0.37357  0.40551  1.0000
  H   H1440     1.0  0.51665  0.04531  0.52752  1.0000
  H   H1441     1.0  0.76202  0.08289  0.41536  1.0000
  C   C833      1.0  0.54202  0.27336  0.36325  1.0000
  N   N45       1.0  0.84623  0.33335  0.42251  1.0000
  H   H1442     1.0  0.58500  0.46544  0.47719  1.0000
  C   C834      1.0  0.57921  0.39146  0.39438  1.0000
  H   H1443     1.0  0.56651  0.25551  0.55177  1.0000
  H   H1444     1.0  0.74115  0.12249  0.44455  1.0000
  H   H1445     1.0  0.55941  0.32335  0.40341  1.0000
  C   C835      1.0  0.54194  0.49391  0.40129  1.0000
  H   H1446     1.0  0.51962  0.05757  0.37888  1.0000
  H   H1447     1.0  0.50626  0.06171  0.66223  1.0000
  H   H1448     1.0  0.58615  0.16309  0.52225  1.0000
  H   H1449     1.0  0.73754  0.10570  0.33920  1.0000
  C   C836      1.0  0.63061  0.49256  0.49420  1.0000
  C   C837      1.0  0.50887  0.15919  0.39716  1.0000
  H   H1450     1.0  0.54877  0.21332  0.50197  1.0000
  H   H1451     1.0  0.52940  0.26374  0.52727  1.0000
  C   C838      1.0  0.51421  0.24459  0.60724  1.0000
  C   C839      1.0  0.53827  0.20736  0.51374  1.0000
  C   C840      1.0  0.52640  0.27545  0.50223  1.0000
  H   H1452     1.0  0.94622  0.19895  0.33740  1.0000
  H   H1453     1.0  0.57070  0.49181  0.53550  1.0000
  H   H1454     1.0  0.52797  0.49026  0.41228  1.0000
  H   H1455     1.0  0.53947  0.32124  0.49371  1.0000
  H   H1456     1.0  0.53267  0.01024  0.58084  1.0000
  H   H1457     1.0  0.74036  0.22386  0.33871  1.0000
  C   C841      1.0  0.51836  0.30214  0.60883  1.0000
  C   C842      1.0  0.53631  0.10085  0.66604  1.0000
  S   S183      1.0  0.51079  0.07054  0.59053  1.0000
  H   H1458     1.0  0.51334  0.33700  0.57918  1.0000
  C   C843      1.0  0.53773  0.17085  0.51425  1.0000
  H   H1459     1.0  0.51165  0.27216  0.49142  1.0000
  H   H1460     1.0  0.52845  0.16252  0.52583  1.0000
  H   H1461     1.0  0.51295  0.24078  0.54975  1.0000
  C   C844      1.0  0.61462  0.49773  0.52231  1.0000
  H   H1462     1.0  0.59080  0.00397  0.57783  1.0000
  N   N46       1.0  0.60318  0.49995  0.50517  1.0000
  S   S184      1.0  0.88546  0.23944  0.33730  1.0000
  S   S185      1.0  0.51124  0.12084  0.62088  1.0000
  H   H1463     1.0  0.50743  0.19697  0.45742  1.0000
  H   H1464     1.0  0.50723  0.37658  0.42608  1.0000
  C   C845      1.0  0.51231  0.33302  0.56602  1.0000
  N   N47       1.0  0.50731  0.47598  0.66950  1.0000
  H   H1465     1.0  0.51228  0.35617  0.55978  1.0000
  H   H1466     1.0  0.57977  0.00212  0.65890  1.0000
  H   H1467     1.0  0.50538  0.32261  0.50645  1.0000
  C   C846      1.0  0.51263  0.25972  0.51732  1.0000
  H   H1468     1.0  0.50706  0.32548  0.60939  1.0000
  H   H1469     1.0  0.51065  0.41101  0.65632  1.0000
  N   N48       1.0  0.50699  0.22497  0.51578  1.0000
  C   C847      1.0  0.50557  0.04809  0.35420  1.0000
  C   C848      1.0  0.56115  0.50152  0.44582  1.0000
  H   H1470     1.0  0.97706  0.26897  0.96280  1.0000
  C   C849      1.0  0.95554  0.47007  0.99565  1.0000
  S   S186      1.0  0.96356  0.12092  0.96856  1.0000
  H   H1471     1.0  0.94701  0.18773  0.98271  1.0000
  H   H1472     1.0  0.94034  0.01895  0.98864  1.0000
  Fe  Fe93      1.0  0.97659  0.08306  0.95020  1.0000
  S   S187      1.0  0.94081  0.05103  0.93866  1.0000
  H   H1473     1.0  0.92909  0.16416  0.99732  1.0000
  C   C850      1.0  0.89058  0.17047  0.97158  1.0000
  C   C851      1.0  0.89714  0.19568  0.98415  1.0000
  C   C852      1.0  0.95229  0.02689  0.99970  1.0000
  H   H1474     1.0  0.99056  0.16894  0.99457  1.0000
  Fe  Fe94      1.0  0.00274  0.14881  0.95820  1.0000
  H   H1475     1.0  0.98295  0.29357  0.99157  1.0000
  H   H1476     1.0  0.93620  0.10813  0.00306  1.0000
  H   H1477     1.0  0.00288  0.20904  0.99570  1.0000
  C   C853      1.0  0.96402  0.02497  0.89252  1.0000
  H   H1478     1.0  0.86733  0.17573  0.96593  1.0000
  H   H1479     1.0  0.83914  0.00514  0.93019  1.0000
  H   H1480     1.0  0.79715  0.00691  0.92681  1.0000
  H   H1481     1.0  0.89044  0.14674  0.97721  1.0000
  H   H1482     1.0  0.57222  0.06511  0.67319  1.0000
  S   S188      1.0  0.96850  0.45889  0.95318  1.0000
  H   H1483     1.0  0.87758  0.19614  0.99288  1.0000
  C   C854      1.0  0.96337  0.04080  0.90749  1.0000
  H   H1484     1.0  0.97733  0.06114  0.90935  1.0000
  C   C855      1.0  0.94411  0.03075  0.91987  1.0000
  H   H1485     1.0  0.54238  0.11735  0.67582  1.0000
  H   H1486     1.0  0.99417  0.43647  0.00110  1.0000
  H   H1487     1.0  0.97784  0.02690  0.99734  1.0000
  C   C856      1.0  0.96177  0.29843  0.99905  1.0000
  H   H1488     1.0  0.97875  0.03325  0.88303  1.0000
  H   H1489     1.0  0.96932  0.48105  0.98615  1.0000
  H   H1490     1.0  0.90866  0.17021  0.96200  1.0000
  H   H1491     1.0  0.51525  0.16050  0.70574  1.0000
  H   H1492     1.0  0.93109  0.46836  0.99123  1.0000
  S   S189      1.0  0.99180  0.20264  0.95856  1.0000
  H   H1493     1.0  0.59865  0.43651  0.67989  1.0000
  H   H1494     1.0  0.96209  0.23902  0.98798  1.0000
  C   C857      1.0  0.56475  0.47668  0.68024  1.0000
  C   C858      1.0  0.59772  0.46221  0.67730  1.0000
  H   H1495     1.0  0.96598  0.42281  0.98680  1.0000
  H   H1496     1.0  0.55861  0.47042  0.69271  1.0000
  C   C859      1.0  0.92583  0.00446  0.91707  1.0000
  C   C860      1.0  0.96883  0.43638  0.99808  1.0000
  H   H1497     1.0  0.92289  0.25168  0.99153  1.0000
  C   C861      1.0  0.92932  0.18853  0.99249  1.0000
  H   H1498     1.0  0.89671  0.21863  0.97780  1.0000
  C   C862      1.0  0.97211  0.49977  0.95041  1.0000
  H   H1499     1.0  0.94350  0.05129  0.00239  1.0000
  H   H1500     1.0  0.51567  0.06915  0.68241  1.0000
  H   H1501     1.0  0.61476  0.47371  0.68525  1.0000
  H   H1502     1.0  0.84533  0.00946  0.85306  1.0000
  C   C863      1.0  0.94441  0.24226  0.99771  1.0000
  C   C864      1.0  0.50832  0.08111  0.67110  1.0000
  H   H1503     1.0  0.50999  0.10280  0.70229  1.0000
  H   H1504     1.0  0.94176  0.30571  0.99110  1.0000
  H   H1505     1.0  0.88727  0.00238  0.85344  1.0000
  C   C865      1.0  0.00177  0.26650  0.96005  1.0000
  Fe  Fe95      1.0  0.00071  0.09840  0.98437  1.0000
  H   H1506     1.0  0.50636  0.46232  0.71898  1.0000
  C   C866      1.0  0.99597  0.18850  0.00286  1.0000
  H   H1507     1.0  0.54258  0.43745  0.67020  1.0000
  H   H1508     1.0  0.88341  0.72141  0.08601  1.0000
  H   H1509     1.0  0.92872  0.55969  0.02764  1.0000
  C   C867      1.0  0.97266  0.00021  0.11344  1.0000
  H   H1510     1.0  0.97386  0.94031  0.06351  1.0000
  S   S190      1.0  0.94334  0.62072  0.09692  1.0000
  Fe  Fe96      1.0  0.95622  0.57724  0.11186  1.0000
  S   S191      1.0  0.92071  0.54589  0.12380  1.0000
  Fe  Fe97      1.0  0.98027  0.60291  0.07958  1.0000
  H   H1511     1.0  0.90594  0.99649  0.04090  1.0000
  S   S192      1.0  0.94666  0.95121  0.09722  1.0000
  H   H1512     1.0  0.97267  0.80834  0.07446  1.0000
  C   C868      1.0  0.93355  0.71461  0.08126  1.0000
  H   H1513     1.0  0.91047  0.72975  0.05966  1.0000
  H   H1514     1.0  0.94613  0.76887  0.05711  1.0000
  H   H1515     1.0  0.90026  0.71902  0.03297  1.0000
  C   C869      1.0  0.99192  0.76140  0.06809  1.0000
  H   H1516     1.0  0.92995  0.55924  0.05791  1.0000
  C   C870      1.0  0.96761  0.75353  0.05493  1.0000
  C   C871      1.0  0.95128  0.71346  0.03570  1.0000
  H   H1517     1.0  0.92185  0.63208  0.18710  1.0000
  H   H1518     1.0  0.00011  0.80781  0.05788  1.0000
  C   C872      1.0  0.91016  0.64268  0.01573  1.0000
  C   C873      1.0  0.94129  0.63558  0.01140  1.0000
  C   C874      1.0  0.96326  0.62467  0.02293  1.0000
  C   C875      1.0  0.95435  0.61995  0.03888  1.0000
  C   C876      1.0  0.92327  0.62714  0.04337  1.0000
  C   C877      1.0  0.90125  0.63849  0.03181  1.0000
  H   H1519     1.0  0.91938  0.75602  0.03356  1.0000
  C   C878      1.0  0.90597  0.61653  0.15560  1.0000
  H   H1520     1.0  0.91609  0.62350  0.05565  1.0000
  H   H1521     1.0  0.87719  0.64381  0.03529  1.0000
  H   H1522     1.0  0.97846  0.65850  0.20868  1.0000
  H   H1523     1.0  0.95263  0.69823  0.08561  1.0000
  H   H1524     1.0  0.87818  0.63953  0.13670  1.0000
  H   H1525     1.0  0.00379  0.61184  0.16075  1.0000
  C   C879      1.0  0.90401  0.52579  0.19803  1.0000
  H   H1526     1.0  0.90117  0.58199  0.18408  1.0000
  C   C880      1.0  0.90348  0.70525  0.08953  1.0000
  H   H1527     1.0  0.93918  0.95488  0.03170  1.0000
  Fe  Fe98      1.0  0.98312  0.64368  0.10974  1.0000
  H   H1528     1.0  0.92216  0.68889  0.05975  1.0000
  H   H1529     1.0  0.99243  0.53946  0.01730  1.0000
  C   C881      1.0  0.95440  0.93810  0.05479  1.0000
  S   S193      1.0  0.98282  0.60367  0.05232  1.0000
  H   H1530     1.0  0.93193  0.94291  0.06114  1.0000
  H   H1531     1.0  0.97535  0.53703  0.04201  1.0000
  H   H1532     1.0  0.89773  0.63468  0.16438  1.0000
  C   C882      1.0  0.97988  0.57678  0.17554  1.0000
  H   H1533     1.0  0.99363  0.70075  0.07037  1.0000
  H   H1534     1.0  0.91793  0.65201  0.13789  1.0000
  H   H1535     1.0  0.89265  0.51500  0.18747  1.0000
  C   C883      1.0  0.95312  0.52454  0.04196  1.0000
  H   H1536     1.0  0.88133  0.50336  0.14045  1.0000
  H   H1537     1.0  0.89812  0.68060  0.08640  1.0000
  N   N49       1.0  0.94648  0.52393  0.01080  1.0000
  N   N50       1.0  0.94752  0.59280  0.17582  1.0000
  C   C884      1.0  0.93024  0.71284  0.06280  1.0000
  H   H1538     1.0  0.95534  0.62432  0.15583  1.0000
  C   C885      1.0  0.92326  0.56932  0.18013  1.0000
  H   H1539     1.0  0.95094  0.88812  0.05957  1.0000
  C   C886      1.0  0.90291  0.63140  0.13891  1.0000
  H   H1540     1.0  0.94584  0.58544  0.15008  1.0000
  C   C887      1.0  0.95797  0.96072  0.04035  1.0000
  C   C888      1.0  0.93289  0.53363  0.02694  1.0000
  C   C889      1.0  0.95477  0.90374  0.04915  1.0000
  S   S194      1.0  0.97322  0.69473  0.11804  1.0000
  H   H1541     1.0  0.91684  0.55548  0.16927  1.0000
  C   C890      1.0  0.95865  0.64573  0.21377  1.0000
  H   H1542     1.0  0.93688  0.66110  0.21307  1.0000
  H   H1543     1.0  0.93576  0.90024  0.04028  1.0000
  H   H1544     1.0  0.97826  0.52578  0.14108  1.0000
  H   H1545     1.0  0.90658  0.70669  0.10277  1.0000
  H   H1546     1.0  0.93798  0.73903  0.08512  1.0000
  H   H1547     1.0  0.98051  0.55734  0.16655  1.0000
  N   N51       1.0  0.95908  0.71941  0.05314  1.0000
  H   H1548     1.0  0.96094  0.63969  0.18228  1.0000
  H   H1549     1.0  0.88990  0.59670  0.15600  1.0000
  H   H1550     1.0  0.91357  0.52064  0.05829  1.0000
  H   H1551     1.0  0.90982  0.61387  0.12952  1.0000
  C   C891      1.0  0.97438  0.54353  0.00780  1.0000
  C   C892      1.0  0.94797  0.99064  0.10377  1.0000
  C   C893      1.0  0.99498  0.72858  0.11371  1.0000
  C   C894      1.0  0.99731  0.78639  0.11326  1.0000
  N   N52       1.0  0.95639  0.99568  0.04407  1.0000
  C   C895      1.0  0.92138  0.73134  0.02910  1.0000
  H   H1552     1.0  0.94829  0.68788  0.03360  1.0000
  H   H1553     1.0  0.97742  0.76250  0.04352  1.0000
  H   H1554     1.0  0.95605  0.76109  0.11902  1.0000
  H   H1555     1.0  0.97774  0.89676  0.04366  1.0000
  H   H1556     1.0  0.97107  0.71974  0.02791  1.0000
  C   C896      1.0  0.95908  0.51299  0.14588  1.0000
  H   H1557     1.0  0.88668  0.54180  0.20427  1.0000
  C   C897      1.0  0.94591  0.62098  0.18692  1.0000
  C   C898      1.0  0.93454  0.99091  0.15683  1.0000
  H   H1558     1.0  0.95109  0.98060  0.00952  1.0000
  C   C899      1.0  0.93247  0.54375  0.19285  1.0000
  C   C900      1.0  0.95454  0.61477  0.20473  1.0000
  H   H1559     1.0  0.96736  0.56893  0.00869  1.0000
  C   C901      1.0  0.94034  0.60454  0.15899  1.0000
  C   C902      1.0  0.92114  0.73236  0.01075  1.0000
  H   H1560     1.0  0.96387  0.64068  0.22661  1.0000
  H   H1561     1.0  0.92565  0.70838  0.00565  1.0000
  H   H1562     1.0  0.94319  0.55353  0.20373  1.0000
  C   C903      1.0  0.98524  0.69610  0.05800  1.0000
  H   H1563     1.0  0.93520  0.60276  0.21069  1.0000
  C   C904      1.0  0.92908  0.51756  0.13924  1.0000
  S   S195      1.0  0.99281  0.60166  0.12602  1.0000
  H   H1564     1.0  0.91841  0.99243  0.06103  1.0000
  H   H1565     1.0  0.93921  0.74814  0.00629  1.0000
  H   H1566     1.0  0.94979  0.52628  0.18767  1.0000
  H   H1567     1.0  0.89993  0.57502  0.00757  1.0000
  H   H1568     1.0  0.93253  0.96505  0.15823  1.0000
  H   H1569     1.0  0.90955  0.52335  0.02856  1.0000
  H   H1570     1.0  0.97635  0.67185  0.05859  1.0000
  H   H1571     1.0  0.88579  0.99897  0.15134  1.0000
  C   C905      1.0  0.93561  0.53342  0.05742  1.0000
  H   H1572     1.0  0.94218  0.99548  0.14435  1.0000
  H   H1573     1.0  0.98565  0.75210  0.07998  1.0000
  H   H1574     1.0  0.99149  0.98347  0.11673  1.0000
  C   C906      1.0  0.99474  0.79711  0.06965  1.0000
  H   H1575     1.0  0.98075  0.95385  0.03445  1.0000
  H   H1576     1.0  0.91161  0.50649  0.20638  1.0000
  H   H1577     1.0  0.98726  0.61923  0.01934  1.0000
  H   H1578     1.0  0.95051  0.52691  0.06796  1.0000
  H   H1579     1.0  0.00092  0.98499  0.05599  1.0000
  H   H1580     1.0  0.97665  0.60028  0.20606  1.0000
  H   H1581     1.0  0.89786  0.74155  0.00639  1.0000
  S   S196      1.0  0.98929  0.55754  0.09305  1.0000
  Fe  Fe99      1.0  0.99449  0.92640  0.09692  1.0000
  H   H1582     1.0  0.98585  0.56506  0.18710  1.0000
  H   H1583     1.0  0.96992  0.99645  0.06919  1.0000
  C   C907      1.0  0.98044  0.75888  0.11555  1.0000
  H   H1584     1.0  0.98588  0.80944  0.11500  1.0000
  H   H1585     1.0  0.89532  0.00109  0.17231  1.0000
  H   H1586     1.0  0.95263  0.99888  0.16535  1.0000
  H   H1587     1.0  0.58824  0.90367  0.39098  1.0000
  H   H1588     1.0  0.79177  0.73450  0.64281  1.0000
  Fe  Fe100     1.0  0.54510  0.57839  0.45828  1.0000
  S   S197      1.0  0.59260  0.55427  0.45429  1.0000
  H   H1589     1.0  0.54856  0.78334  0.66582  1.0000
  S   S198      1.0  0.53756  0.62377  0.47196  1.0000
  Fe  Fe101     1.0  0.56033  0.91679  0.48481  1.0000
  C   C908      1.0  0.57033  0.95456  0.66647  1.0000
  S   S199      1.0  0.56203  0.92955  0.51131  1.0000
  Fe  Fe102     1.0  0.57843  0.92560  0.44914  1.0000
  S   S200      1.0  0.54025  0.89476  0.44044  1.0000
  S   S201      1.0  0.61393  0.94662  0.43207  1.0000
  H   H1590     1.0  0.56278  0.51831  0.63643  1.0000
  H   H1591     1.0  0.54093  0.93775  0.39548  1.0000
  Fe  Fe103     1.0  0.55387  0.86211  0.46094  1.0000
  S   S202      1.0  0.56543  0.80883  0.46139  1.0000
  S   S203      1.0  0.54788  0.95393  0.46630  1.0000
  S   S204      1.0  0.59453  0.89106  0.46849  1.0000
  Fe  Fe104     1.0  0.61489  0.82402  0.60563  1.0000
  S   S205      1.0  0.66602  0.82652  0.60020  1.0000
  S   S206      1.0  0.59447  0.77657  0.60121  1.0000
  Fe  Fe105     1.0  0.60939  0.89412  0.61476  1.0000
  S   S207      1.0  0.66017  0.90161  0.60986  1.0000
  S   S208      1.0  0.57338  0.93061  0.62382  1.0000
  Fe  Fe106     1.0  0.65147  0.87203  0.58769  1.0000
  S   S209      1.0  0.66545  0.87944  0.56169  1.0000
  Fe  Fe107     1.0  0.66971  0.85527  0.62288  1.0000
  S   S210      1.0  0.69824  0.84271  0.64566  1.0000
  S   S211      1.0  0.60025  0.86765  0.59201  1.0000
  S   S212      1.0  0.61880  0.84976  0.62889  1.0000
  H   H1592     1.0  0.70127  0.68924  0.66430  1.0000
  C   C909      1.0  0.55029  0.88244  0.66311  1.0000
  C   C910      1.0  0.51402  0.77767  0.44942  1.0000
  H   H1593     1.0  0.58898  0.79347  0.42918  1.0000
  H   H1594     1.0  0.53714  0.70667  0.55116  1.0000
  C   C911      1.0  0.61123  0.56017  0.50546  1.0000
  H   H1595     1.0  0.55359  0.80580  0.41875  1.0000
  C   C912      1.0  0.58018  0.97087  0.62066  1.0000
  C   C913      1.0  0.60857  0.98068  0.61450  1.0000
  H   H1596     1.0  0.57811  0.52558  0.39407  1.0000
  H   H1597     1.0  0.82626  0.91249  0.66114  1.0000
  H   H1598     1.0  0.62748  0.96356  0.61208  1.0000
  C   C914      1.0  0.71257  0.68676  0.65238  1.0000
  H   H1599     1.0  0.79053  0.93249  0.65436  1.0000
  C   C915      1.0  0.73815  0.84234  0.65187  1.0000
  C   C916      1.0  0.58984  0.53266  0.50130  1.0000
  C   C917      1.0  0.64487  0.85892  0.36541  1.0000
  C   C918      1.0  0.53835  0.82374  0.57155  1.0000
  C   C919      1.0  0.79346  0.85108  0.64761  1.0000
  C   C920      1.0  0.76219  0.85220  0.64198  1.0000
  H   H1600     1.0  0.63556  0.70301  0.65002  1.0000
  C   C921      1.0  0.51042  0.72001  0.45024  1.0000
  H   H1601     1.0  0.81180  0.85933  0.63997  1.0000
  H   H1602     1.0  0.75667  0.86098  0.63006  1.0000
  H   H1603     1.0  0.81793  0.95353  0.66640  1.0000
  H   H1604     1.0  0.51623  0.70972  0.48968  1.0000
  H   H1605     1.0  0.62640  0.86929  0.66355  1.0000
  C   C922      1.0  0.53522  0.79762  0.61071  1.0000
  C   C923      1.0  0.55422  0.77274  0.60453  1.0000
  C   C924      1.0  0.54086  0.74431  0.60039  1.0000
  C   C925      1.0  0.52776  0.75740  0.54815  1.0000
  H   H1606     1.0  0.54544  0.81964  0.61394  1.0000
  H   H1607     1.0  0.55551  0.72509  0.59554  1.0000
  C   C926      1.0  0.57669  0.79302  0.41744  1.0000
  C   C927      1.0  0.59118  0.91444  0.52478  1.0000
  C   C928      1.0  0.61968  0.90032  0.51962  1.0000
  C   C929      1.0  0.64233  0.88954  0.53100  1.0000
  C   C930      1.0  0.63646  0.89243  0.54756  1.0000
  C   C931      1.0  0.60775  0.90607  0.55261  1.0000
  C   C932      1.0  0.58542  0.91721  0.54128  1.0000
  H   H1608     1.0  0.62452  0.89822  0.50691  1.0000
  H   H1609     1.0  0.66454  0.87912  0.52696  1.0000
  H   H1610     1.0  0.60322  0.90900  0.56526  1.0000
  H   H1611     1.0  0.56369  0.92842  0.54527  1.0000
  H   H1612     1.0  0.59681  0.86219  0.37262  1.0000
  C   C933      1.0  0.53929  0.71779  0.45824  1.0000
  C   C934      1.0  0.55552  0.74526  0.46165  1.0000
  C   C935      1.0  0.54307  0.77534  0.45727  1.0000
  H   H1613     1.0  0.65358  0.97893  0.41022  1.0000
  H   H1614     1.0  0.58822  0.72320  0.63611  1.0000
  C   C936      1.0  0.59673  0.80780  0.40415  1.0000
  H   H1615     1.0  0.55383  0.99945  0.53461  1.0000
  H   H1616     1.0  0.52567  0.99115  0.50265  1.0000
  H   H1617     1.0  0.73695  0.71907  0.62150  1.0000
  H   H1618     1.0  0.59745  0.83973  0.66183  1.0000
  H   H1619     1.0  0.52375  0.80336  0.57402  1.0000
  H   H1620     1.0  0.57749  0.74829  0.54875  1.0000
  H   H1621     1.0  0.58192  0.68463  0.65839  1.0000
  C   C937      1.0  0.53298  0.55369  0.58156  1.0000
  H   H1622     1.0  0.58528  0.80258  0.39248  1.0000
  H   H1623     1.0  0.56367  0.88267  0.65164  1.0000
  H   H1624     1.0  0.61460  0.82291  0.37300  1.0000
  H   H1625     1.0  0.55574  0.95184  0.65562  1.0000
  H   H1626     1.0  0.60106  0.91557  0.65945  1.0000
  H   H1627     1.0  0.61546  0.56168  0.51858  1.0000
  C   C938      1.0  0.53951  0.91167  0.39603  1.0000
  H   H1628     1.0  0.84561  0.73434  0.65453  1.0000
  C   C939      1.0  0.60233  0.80513  0.55453  1.0000
  H   H1629     1.0  0.53966  0.57516  0.57504  1.0000
  H   H1630     1.0  0.63991  0.50412  0.45125  1.0000
  H   H1631     1.0  0.64885  0.88429  0.36759  1.0000
  H   H1632     1.0  0.55930  0.82145  0.57934  1.0000
  H   H1633     1.0  0.55149  0.61288  0.59734  1.0000
  S   S213      1.0  0.52066  0.88629  0.47834  1.0000
  H   H1634     1.0  0.55324  0.85590  0.41162  1.0000
  H   H1635     1.0  0.55408  0.53963  0.41063  1.0000
  H   H1636     1.0  0.60906  0.97270  0.65276  1.0000
  H   H1637     1.0  0.63341  0.87628  0.39628  1.0000
  H   H1638     1.0  0.69490  0.75847  0.61290  1.0000
  H   H1639     1.0  0.72791  0.75717  0.59943  1.0000
  H   H1640     1.0  0.61154  0.61120  0.50360  1.0000
  H   H1641     1.0  0.72933  0.63830  0.65731  1.0000
  H   H1642     1.0  0.65023  0.50792  0.49712  1.0000
  H   H1643     1.0  0.58453  0.53460  0.48823  1.0000
  C   C940      1.0  0.62817  0.55062  0.66360  1.0000
  H   H1644     1.0  0.99973  0.79070  0.65406  1.0000
  C   C941      1.0  0.59631  0.59182  0.50008  1.0000
  C   C942      1.0  0.61828  0.84799  0.37597  1.0000
  C   C943      1.0  0.80118  0.83945  0.66302  1.0000
  H   H1645     1.0  0.61000  0.82936  0.52465  1.0000
  H   H1646     1.0  0.53411  0.98612  0.62873  1.0000
  H   H1647     1.0  0.58887  0.98277  0.55895  1.0000
  H   H1648     1.0  0.72469  0.64755  0.63618  1.0000
  H   H1649     1.0  0.65055  0.86768  0.44772  1.0000
  H   H1650     1.0  0.53839  0.71988  0.65872  1.0000
  H   H1651     1.0  0.51607  0.88604  0.63424  1.0000
  C   C944      1.0  0.74550  0.70031  0.65306  1.0000
  H   H1652     1.0  0.57301  0.59617  0.50574  1.0000
  H   H1653     1.0  0.54602  0.79854  0.52493  1.0000
  H   H1654     1.0  0.76456  0.75008  0.62203  1.0000
  C   C945      1.0  0.62645  0.85164  0.39404  1.0000
  H   H1655     1.0  0.64143  0.80810  0.42743  1.0000
  H   H1656     1.0  0.59236  0.84804  0.49819  1.0000
  H   H1657     1.0  0.59382  0.80557  0.49857  1.0000
  H   H1658     1.0  0.55703  0.74833  0.42356  1.0000
  H   H1659     1.0  0.64294  0.70839  0.62898  1.0000
  N   N53       1.0  0.54123  0.67830  0.64345  1.0000
  H   H1660     1.0  0.51691  0.92281  0.65765  1.0000
  C   C946      1.0  0.57626  0.67693  0.64599  1.0000
  C   C947      1.0  0.53291  0.67034  0.62635  1.0000
  C   C948      1.0  0.52693  0.65447  0.65429  1.0000
  H   H1661     1.0  0.56033  0.96142  0.59067  1.0000
  C   C949      1.0  0.78057  0.74417  0.65391  1.0000
  C   C950      1.0  0.54816  0.63911  0.61962  1.0000
  C   C951      1.0  0.59506  0.69782  0.63450  1.0000
  C   C952      1.0  0.63021  0.69417  0.63780  1.0000
  C   C953      1.0  0.57401  0.55155  0.65516  1.0000
  H   H1662     1.0  0.56681  0.53733  0.50730  1.0000
  C   C954      1.0  0.53815  0.63379  0.60223  1.0000
  H   H1663     1.0  0.75752  0.68824  0.66337  1.0000
  C   C955      1.0  0.73979  0.74447  0.62405  1.0000
  H   H1664     1.0  0.75888  0.69198  0.64230  1.0000
  H   H1665     1.0  0.58604  0.65215  0.64530  1.0000
  H   H1666     1.0  0.53905  0.68967  0.61820  1.0000
  S   S214      1.0  0.51168  0.55247  0.47329  1.0000
  H   H1667     1.0  0.55851  0.67233  0.49901  1.0000
  H   H1668     1.0  0.53831  0.63061  0.65236  1.0000
  H   H1669     1.0  0.54303  0.65454  0.59468  1.0000
  H   H1670     1.0  0.53909  0.55615  0.59447  1.0000
  C   C956      1.0  0.63508  0.52611  0.65244  1.0000
  H   H1671     1.0  0.67125  0.82991  0.44992  1.0000
  H   H1672     1.0  0.54119  0.61849  0.62670  1.0000
  H   H1673     1.0  0.57409  0.63951  0.61976  1.0000
  C   C957      1.0  0.57538  0.99140  0.41608  1.0000
  H   H1674     1.0  0.55718  0.75651  0.40237  1.0000
  H   H1675     1.0  0.55751  0.84846  0.55150  1.0000
  H   H1676     1.0  0.65879  0.51613  0.65155  1.0000
  C   C958      1.0  0.58159  0.82717  0.50349  1.0000
  H   H1677     1.0  0.72298  0.78917  0.61362  1.0000
  H   H1678     1.0  0.51837  0.56084  0.62887  1.0000
  H   H1679     1.0  0.56285  0.76528  0.56675  1.0000
  H   H1680     1.0  0.55630  0.98289  0.42310  1.0000
  H   H1681     1.0  0.52655  0.75498  0.53490  1.0000
  C   C959      1.0  0.00216  0.80097  0.66626  1.0000
  C   C960      1.0  0.57077  0.75849  0.41370  1.0000
  H   H1682     1.0  0.51276  0.62928  0.60162  1.0000
  H   H1683     1.0  0.78219  0.77033  0.65324  1.0000
  C   C961      1.0  0.63011  0.98932  0.40882  1.0000
  C   C962      1.0  0.83532  0.74306  0.66603  1.0000
  H   H1684     1.0  0.54935  0.69486  0.46160  1.0000
  H   H1685     1.0  0.52066  0.72663  0.56863  1.0000
  H   H1686     1.0  0.63858  0.66907  0.63670  1.0000
  C   C963      1.0  0.52883  0.71146  0.64708  1.0000
  H   H1687     1.0  0.61565  0.87696  0.42330  1.0000
  H   H1688     1.0  0.57806  0.74312  0.46763  1.0000
  C   C964      1.0  0.64239  0.83409  0.42845  1.0000
  C   C965      1.0  0.80198  0.73223  0.66799  1.0000
  H   H1689     1.0  0.73127  0.77886  0.64296  1.0000
  H   H1690     1.0  0.83555  0.76924  0.66637  1.0000
  C   C966      1.0  0.80748  0.93031  0.66449  1.0000
  C   C967      1.0  0.58845  0.98038  0.57223  1.0000
  H   H1691     1.0  0.59272  0.84723  0.43126  1.0000
  H   H1692     1.0  0.64822  0.83672  0.39605  1.0000
  C   C968      1.0  0.72923  0.75295  0.64138  1.0000
  H   H1693     1.0  0.53731  0.72823  0.63799  1.0000
  H   H1694     1.0  0.69751  0.69862  0.64316  1.0000
  H   H1695     1.0  0.59365  0.59213  0.48681  1.0000
  H   H1696     1.0  0.60225  0.80375  0.56786  1.0000
  C   C969      1.0  0.61164  0.85128  0.42243  1.0000
  H   H1697     1.0  0.58384  0.50879  0.41384  1.0000
  C   C970      1.0  0.71461  0.65154  0.64833  1.0000
  H   H1698     1.0  0.70371  0.74923  0.64182  1.0000
  H   H1699     1.0  0.53401  0.87454  0.57524  1.0000
  H   H1700     1.0  0.59329  0.74443  0.41266  1.0000
  C   C971      1.0  0.64878  0.84181  0.44605  1.0000
  H   H1701     1.0  0.57897  0.90743  0.41185  1.0000
  C   C972      1.0  0.56088  0.76707  0.55342  1.0000
  N   N54       1.0  0.60137  0.84278  0.40567  1.0000
  C   C973      1.0  0.57055  0.86030  0.40204  1.0000
  H   H1702     1.0  0.53662  0.66417  0.51685  1.0000
  H   H1703     1.0  0.55647  0.94280  0.57158  1.0000
  H   H1704     1.0  0.54002  0.51660  0.44581  1.0000
  C   C974      1.0  0.51701  0.89715  0.65979  1.0000
  C   C975      1.0  0.50596  0.51067  0.66549  1.0000
  H   H1705     1.0  0.62980  0.83330  0.45378  1.0000
  H   H1706     1.0  0.69079  0.64210  0.64852  1.0000
  C   C976      1.0  0.58094  0.52709  0.64401  1.0000
  C   C977      1.0  0.54094  0.68236  0.50765  1.0000
  H   H1707     1.0  0.57251  0.85053  0.52593  1.0000
  C   C978      1.0  0.59312  0.98028  0.66271  1.0000
  N   N55       1.0  0.74660  0.73567  0.65479  1.0000
  C   C979      1.0  0.55593  0.99345  0.62375  1.0000
  H   H1708     1.0  0.54641  0.85710  0.66558  1.0000
  H   H1709     1.0  0.55074  0.70325  0.51356  1.0000
  H   H1710     1.0  0.60887  0.82973  0.55194  1.0000
  H   H1711     1.0  0.59124  0.69153  0.62175  1.0000
  N   N56       1.0  0.57027  0.79905  0.54779  1.0000
  C   C980      1.0  0.54756  0.82498  0.55356  1.0000
  C   C981      1.0  0.57168  0.89674  0.40040  1.0000
  H   H1712     1.0  0.58068  0.53228  0.53354  1.0000
  C   C982      1.0  0.60570  0.50654  0.55205  1.0000
  C   C983      1.0  0.58468  0.82837  0.52177  1.0000
  C   C984      1.0  0.56604  0.51839  0.40518  1.0000
  H   H1713     1.0  0.60893  0.96497  0.57597  1.0000
  H   H1714     1.0  0.66691  0.84475  0.36787  1.0000
  H   H1715     1.0  0.51526  0.89948  0.54729  1.0000
  C   C985      1.0  0.60565  0.97791  0.41816  1.0000
  C   C986      1.0  0.72011  0.76349  0.61178  1.0000
  H   H1716     1.0  0.55655  0.82766  0.49981  1.0000
  C   C987      1.0  0.57038  0.79930  0.52966  1.0000
  H   H1717     1.0  0.63417  0.55724  0.49933  1.0000
  H   H1718     1.0  0.66274  0.84175  0.42146  1.0000
  H   H1719     1.0  0.52183  0.90611  0.40523  1.0000
  C   C988      1.0  0.55816  0.96583  0.57765  1.0000
  H   H1720     1.0  0.61969  0.79424  0.40380  1.0000
  H   H1721     1.0  0.53172  0.90308  0.38413  1.0000
  H   H1722     1.0  0.58271  0.77764  0.52480  1.0000
  C   C989      1.0  0.74586  0.83107  0.66733  1.0000
  H   H1723     1.0  0.55979  0.85106  0.39089  1.0000
  H   H1724     1.0  0.62419  0.52400  0.55303  1.0000
  C   C990      1.0  0.62942  0.78199  0.54895  1.0000
  C   C991      1.0  0.66124  0.79345  0.55419  1.0000
  H   H1725     1.0  0.63006  0.77933  0.53572  1.0000
  H   H1726     1.0  0.62688  0.75839  0.55439  1.0000
  H   H1727     1.0  0.55031  0.56149  0.65610  1.0000
  C   C992      1.0  0.59013  0.51413  0.44924  1.0000
  H   H1728     1.0  0.68001  0.77556  0.55100  1.0000
  H   H1729     1.0  0.66614  0.81584  0.54800  1.0000
  H   H1730     1.0  0.66184  0.79730  0.56738  1.0000
  C   C993      1.0  0.52011  0.72553  0.55532  1.0000
  C   C994      1.0  0.61142  0.51383  0.64274  1.0000
  H   H1731     1.0  0.52543  0.82542  0.54644  1.0000
  H   H1732     1.0  0.51858  0.50397  0.62187  1.0000
  H   H1733     1.0  0.54644  0.53283  0.57673  1.0000
  C   C995      1.0  0.59741  0.56311  0.66522  1.0000
  H   H1734     1.0  0.63593  0.51154  0.52400  1.0000
  H   H1735     1.0  0.63862  0.85590  0.35255  1.0000
  H   H1736     1.0  0.58776  0.51195  0.56136  1.0000
  H   H1737     1.0  0.80348  0.70609  0.66846  1.0000
  C   C996      1.0  0.59044  0.50789  0.53541  1.0000
  H   H1738     1.0  0.69310  0.77786  0.66471  1.0000
  H   H1739     1.0  0.53083  0.99494  0.56120  1.0000
  Fe  Fe108     1.0  0.51069  0.92153  0.45866  1.0000
  H   H1740     1.0  0.68337  0.73769  0.66790  1.0000
  H   H1741     1.0  0.51783  0.51444  0.65384  1.0000
  S   S215      1.0  0.51043  0.59189  0.43884  1.0000
  H   H1742     1.0  0.50606  0.97576  0.43601  1.0000
  C   C997      1.0  0.51957  0.85363  0.57664  1.0000
  C   C998      1.0  0.52927  0.98812  0.57398  1.0000
  H   H1743     1.0  0.51397  0.95830  0.54599  1.0000
  S   S216      1.0  0.50477  0.60381  0.51261  1.0000
  H   H1744     1.0  0.64795  0.81522  0.66884  1.0000
  H   H1745     1.0  0.51348  0.94739  0.59840  1.0000
  H   H1746     1.0  0.51297  0.85183  0.58948  1.0000
  C   C999      1.0  0.51064  0.69185  0.49870  1.0000
  H   H1747     1.0  0.51117  0.75911  0.49740  1.0000
  H   H1748     1.0  0.50577  0.62450  0.54520  1.0000
  H   H1749     1.0  0.98259  0.81876  0.66821  1.0000
  H   H1750     1.0  0.50925  0.77502  0.55194  1.0000
  H   H1751     1.0  0.50802  0.81007  0.48360  1.0000
  C   C1000     1.0  0.50863  0.74060  0.60241  1.0000
  H   H1752     1.0  0.50857  0.92622  0.57319  1.0000
  H   H1753     1.0  0.52607  0.50440  0.39197  1.0000
  S   S217      1.0  0.84063  0.84027  0.66990  1.0000
  H   H1754     1.0  0.50718  0.98828  0.60260  1.0000
  H   H1755     1.0  0.50708  0.66866  0.62505  1.0000
  H   H1756     1.0  0.50640  0.53169  0.55575  1.0000
  H   H1757     1.0  0.50509  0.99795  0.65778  1.0000
  Fe  Fe109     1.0  0.86683  0.82039  0.72937  1.0000
  S   S218      1.0  0.90086  0.77866  0.73074  1.0000
  S   S219      1.0  0.84683  0.84502  0.75152  1.0000
  H   H1758     1.0  0.81933  0.65929  0.97796  1.0000
  Fe  Fe110     1.0  0.86976  0.75794  0.71197  1.0000
  S   S220      1.0  0.85698  0.70716  0.71331  1.0000
  S   S221      1.0  0.83345  0.79761  0.71238  1.0000
  Fe  Fe111     1.0  0.67803  0.65879  0.69893  1.0000
  S   S222      1.0  0.65142  0.62357  0.71312  1.0000
  S   S223      1.0  0.72923  0.64814  0.69366  1.0000
  Fe  Fe112     1.0  0.61958  0.69947  0.69134  1.0000
  S   S224      1.0  0.58915  0.66795  0.70516  1.0000
  H   H1759     1.0  0.86366  0.99779  0.88019  1.0000
  Fe  Fe113     1.0  0.62742  0.66718  0.72382  1.0000
  S   S225      1.0  0.61308  0.67891  0.74951  1.0000
  Fe  Fe114     1.0  0.61595  0.62752  0.69294  1.0000
  H   H1760     1.0  0.91348  0.96774  0.90045  1.0000
  S   S226      1.0  0.65613  0.70188  0.71074  1.0000
  H   H1761     1.0  0.60697  0.92821  0.67938  1.0000
  Fe  Fe115     1.0  0.88376  0.67398  0.93989  1.0000
  S   S227      1.0  0.93430  0.68147  0.93415  1.0000
  S   S228      1.0  0.85482  0.67052  0.91682  1.0000
  S   S229      1.0  0.58632  0.59087  0.68053  1.0000
  S   S230      1.0  0.97743  0.81143  0.71067  1.0000
  C   C1001     1.0  0.94575  0.52072  0.95161  1.0000
  Fe  Fe116     1.0  0.94573  0.64265  0.95168  1.0000
  S   S231      1.0  0.98476  0.60620  0.94760  1.0000
  S   S232      1.0  0.89569  0.63218  0.95595  1.0000
  Fe  Fe117     1.0  0.68584  0.71268  0.83388  1.0000
  S   S233      1.0  0.67230  0.76155  0.82578  1.0000
  S   S234      1.0  0.68288  0.67068  0.81685  1.0000
  Fe  Fe118     1.0  0.70196  0.73491  0.86807  1.0000
  S   S235      1.0  0.68766  0.78554  0.86215  1.0000
  S   S236      1.0  0.72011  0.72470  0.89361  1.0000
  Fe  Fe119     1.0  0.64602  0.76635  0.84914  1.0000
  S   S237      1.0  0.59797  0.79212  0.84584  1.0000
  Fe  Fe120     1.0  0.71460  0.77604  0.83948  1.0000
  S   S238      1.0  0.74771  0.81007  0.82863  1.0000
  S   S239      1.0  0.65789  0.71636  0.85683  1.0000
  S   S240      1.0  0.73072  0.72654  0.84583  1.0000
  Fe  Fe121     1.0  0.93651  0.88853  0.83126  1.0000
  S   S241      1.0  0.93656  0.84266  0.84458  1.0000
  S   S242      1.0  0.94414  0.88809  0.80432  1.0000
  Fe  Fe122     1.0  0.93908  0.92850  0.86240  1.0000
  S   S243      1.0  0.93908  0.88542  0.87792  1.0000
  S   S244      1.0  0.94879  0.97872  0.87085  1.0000
  Fe  Fe123     1.0  0.97302  0.86262  0.86047  1.0000
  C   C1002     1.0  0.94909  0.55357  0.95061  1.0000
  Fe  Fe124     1.0  0.90250  0.86834  0.86092  1.0000
  S   S245      1.0  0.86464  0.84046  0.87205  1.0000
  S   S246      1.0  0.97599  0.90676  0.84601  1.0000
  S   S247      1.0  0.89930  0.91327  0.84647  1.0000
  C   C1003     1.0  0.82699  0.97074  0.90256  1.0000
  C   C1004     1.0  0.55928  0.74366  0.75694  1.0000
  H   H1762     1.0  0.60797  0.88034  0.69190  1.0000
  H   H1763     1.0  0.83273  0.54717  0.94154  1.0000
  H   H1764     1.0  0.98623  0.51184  0.90419  1.0000
  C   C1005     1.0  0.55055  0.63316  0.77412  1.0000
  C   C1006     1.0  0.55905  0.78234  0.85071  1.0000
  C   C1007     1.0  0.53376  0.79923  0.84330  1.0000
  H   H1765     1.0  0.79672  0.95209  0.73835  1.0000
  C   C1008     1.0  0.86445  0.99118  0.85497  1.0000
  C   C1009     1.0  0.55263  0.75899  0.86190  1.0000
  H   H1766     1.0  0.53847  0.81742  0.83467  1.0000
  C   C1010     1.0  0.85159  0.92613  0.72252  1.0000
  H   H1767     1.0  0.57179  0.74590  0.86775  1.0000
  C   C1011     1.0  0.77989  0.81869  0.84090  1.0000
  C   C1012     1.0  0.80050  0.84158  0.83600  1.0000
  C   C1013     1.0  0.82699  0.84793  0.84530  1.0000
  C   C1014     1.0  0.83254  0.83191  0.85976  1.0000
  C   C1015     1.0  0.81161  0.80951  0.86485  1.0000
  C   C1016     1.0  0.78544  0.80274  0.85539  1.0000
  H   H1768     1.0  0.79590  0.85456  0.82501  1.0000
  H   H1769     1.0  0.84282  0.86553  0.84141  1.0000
  H   H1770     1.0  0.81563  0.79725  0.87611  1.0000
  H   H1771     1.0  0.76951  0.78526  0.85935  1.0000
  C   C1017     1.0  0.97880  0.56543  0.94838  1.0000
  H   H1772     1.0  0.92562  0.76488  0.83966  1.0000
  H   H1773     1.0  0.69995  0.78736  0.69305  1.0000
  H   H1774     1.0  0.72740  0.82373  0.67512  1.0000
  H   H1775     1.0  0.92888  0.56965  0.95173  1.0000
  C   C1018     1.0  0.81890  0.68943  0.91030  1.0000
  C   C1019     1.0  0.79866  0.70614  0.92080  1.0000
  C   C1020     1.0  0.76885  0.71756  0.91539  1.0000
  C   C1021     1.0  0.75929  0.71335  0.89934  1.0000
  C   C1022     1.0  0.78008  0.69772  0.88872  1.0000
  C   C1023     1.0  0.80950  0.68554  0.89423  1.0000
  H   H1776     1.0  0.80548  0.70935  0.93319  1.0000
  H   H1777     1.0  0.75290  0.72949  0.92372  1.0000
  H   H1778     1.0  0.77302  0.69402  0.87640  1.0000
  H   H1779     1.0  0.82491  0.67264  0.88599  1.0000
  C   C1024     1.0  0.63811  0.67672  0.76648  1.0000
  C   C1025     1.0  0.64534  0.70447  0.77467  1.0000
  C   C1026     1.0  0.65964  0.70305  0.78997  1.0000
  C   C1027     1.0  0.66635  0.67386  0.79732  1.0000
  C   C1028     1.0  0.65954  0.64615  0.78901  1.0000
  C   C1029     1.0  0.64543  0.64756  0.77371  1.0000
  H   H1780     1.0  0.63908  0.72717  0.76937  1.0000
  H   H1781     1.0  0.66493  0.72456  0.79617  1.0000
  H   H1782     1.0  0.66446  0.62346  0.79463  1.0000
  H   H1783     1.0  0.63873  0.62612  0.76784  1.0000
  C   C1030     1.0  0.57167  0.76518  0.68718  1.0000
  C   C1031     1.0  0.57324  0.76706  0.70390  1.0000
  N   N57       1.0  0.56904  0.89644  0.67663  1.0000
  C   C1032     1.0  0.80167  0.67167  0.97008  1.0000
  H   H1784     1.0  0.90311  0.73723  0.85061  1.0000
  C   C1033     1.0  0.78407  0.64805  0.95997  1.0000
  H   H1785     1.0  0.59023  0.75226  0.71043  1.0000
  H   H1786     1.0  0.73604  0.62100  0.80528  1.0000
  S   S248      1.0  0.88223  0.70843  0.96056  1.0000
  C   C1034     1.0  0.99405  0.69161  0.89331  1.0000
  H   H1787     1.0  0.89191  0.77901  0.85106  1.0000
  H   H1788     1.0  0.53418  0.88647  0.69440  1.0000
  C   C1035     1.0  0.87391  0.85700  0.76619  1.0000
  C   C1036     1.0  0.90615  0.85168  0.76398  1.0000
  C   C1037     1.0  0.92731  0.86134  0.77579  1.0000
  C   C1038     1.0  0.91647  0.87572  0.79006  1.0000
  C   C1039     1.0  0.88419  0.88112  0.79227  1.0000
  C   C1040     1.0  0.86301  0.87210  0.78028  1.0000
  H   H1789     1.0  0.91487  0.84040  0.75312  1.0000
  H   H1790     1.0  0.95226  0.85749  0.77390  1.0000
  H   H1791     1.0  0.87564  0.89267  0.80310  1.0000
  H   H1792     1.0  0.83815  0.87679  0.78199  1.0000
  C   C1041     1.0  0.82051  0.69520  0.70617  1.0000
  C   C1042     1.0  0.82021  0.66678  0.69770  1.0000
  C   C1043     1.0  0.79187  0.65372  0.69354  1.0000
  C   C1044     1.0  0.76332  0.66842  0.69811  1.0000
  C   C1045     1.0  0.76322  0.69740  0.70632  1.0000
  C   C1046     1.0  0.79192  0.71094  0.71026  1.0000
  H   H1793     1.0  0.84211  0.65437  0.69462  1.0000
  H   H1794     1.0  0.55427  0.65860  0.67635  1.0000
  H   H1795     1.0  0.74121  0.70901  0.70981  1.0000
  H   H1796     1.0  0.79198  0.73286  0.71692  1.0000
  C   C1047     1.0  0.98335  0.57702  0.90250  1.0000
  S   S249      1.0  0.95325  0.76197  0.95386  1.0000
  C   C1048     1.0  0.00149  0.51176  0.94755  1.0000
  N   N58       1.0  0.80761  0.77693  0.79028  1.0000
  C   C1049     1.0  0.77761  0.79446  0.78519  1.0000
  C   C1050     1.0  0.80062  0.75201  0.80256  1.0000
  C   C1051     1.0  0.82845  0.80048  0.79811  1.0000
  C   C1052     1.0  0.82541  0.76288  0.77615  1.0000
  C   C1053     1.0  0.80853  0.73826  0.76604  1.0000
  C   C1054     1.0  0.78104  0.82139  0.77288  1.0000
  C   C1055     1.0  0.85587  0.78646  0.80867  1.0000
  C   C1056     1.0  0.76999  0.73402  0.80037  1.0000
  C   C1057     1.0  0.77168  0.70308  0.80972  1.0000
  C   C1058     1.0  0.82710  0.72963  0.75088  1.0000
  C   C1059     1.0  0.74938  0.83837  0.76943  1.0000
  C   C1060     1.0  0.88046  0.81071  0.81186  1.0000
  H   H1797     1.0  0.76558  0.80476  0.79597  1.0000
  H   H1798     1.0  0.76065  0.77846  0.77985  1.0000
  H   H1799     1.0  0.82082  0.73449  0.80350  1.0000
  H   H1800     1.0  0.79806  0.76294  0.81473  1.0000
  H   H1801     1.0  0.81443  0.81700  0.80593  1.0000
  H   H1802     1.0  0.83892  0.81558  0.78884  1.0000
  H   H1803     1.0  0.83282  0.78186  0.76795  1.0000
  H   H1804     1.0  0.84782  0.75104  0.78018  1.0000
  H   H1805     1.0  0.78496  0.74732  0.76220  1.0000
  H   H1806     1.0  0.80659  0.71621  0.77304  1.0000
  H   H1807     1.0  0.79689  0.83931  0.77746  1.0000
  H   H1808     1.0  0.79023  0.81183  0.76132  1.0000
  H   H1809     1.0  0.86793  0.76564  0.80298  1.0000
  H   H1810     1.0  0.84683  0.77906  0.82051  1.0000
  H   H1811     1.0  0.74977  0.74887  0.80498  1.0000
  H   H1812     1.0  0.76476  0.72824  0.78774  1.0000
  H   H1813     1.0  0.74867  0.69195  0.80915  1.0000
  H   H1814     1.0  0.78990  0.68663  0.80451  1.0000
  H   H1815     1.0  0.77768  0.70736  0.82250  1.0000
  H   H1816     1.0  0.82858  0.75052  0.74293  1.0000
  H   H1817     1.0  0.85124  0.72060  0.75394  1.0000
  H   H1818     1.0  0.81532  0.71091  0.74415  1.0000
  H   H1819     1.0  0.73931  0.84881  0.78064  1.0000
  H   H1820     1.0  0.75257  0.85772  0.76071  1.0000
  H   H1821     1.0  0.73272  0.82175  0.76422  1.0000
  H   H1822     1.0  0.89262  0.81631  0.80054  1.0000
  H   H1823     1.0  0.86951  0.83268  0.81708  1.0000
  H   H1824     1.0  0.89828  0.80099  0.82045  1.0000
  N   N59       1.0  0.93422  0.76429  0.89642  1.0000
  C   C1061     1.0  0.91564  0.76007  0.88120  1.0000
  C   C1062     1.0  0.91456  0.75435  0.91036  1.0000
  C   C1063     1.0  0.94230  0.79849  0.89789  1.0000
  C   C1064     1.0  0.96447  0.74437  0.89634  1.0000
  C   C1065     1.0  0.96200  0.70906  0.89183  1.0000
  C   C1066     1.0  0.93331  0.76572  0.86537  1.0000
  C   C1067     1.0  0.95693  0.80810  0.91419  1.0000
  C   C1068     1.0  0.88364  0.77436  0.91312  1.0000
  C   C1069     1.0  0.86743  0.76436  0.92847  1.0000
  C   C1070     1.0  0.54970  0.78465  0.67879  1.0000
  C   C1071     1.0  0.91205  0.76140  0.85082  1.0000
  H   H1825     1.0  0.80934  0.98968  0.89898  1.0000
  H   H1826     1.0  0.89475  0.77678  0.88101  1.0000
  H   H1827     1.0  0.90611  0.73607  0.88071  1.0000
  H   H1828     1.0  0.90755  0.72961  0.90872  1.0000
  H   H1829     1.0  0.92849  0.75400  0.92168  1.0000
  H   H1830     1.0  0.92143  0.81450  0.89544  1.0000
  H   H1831     1.0  0.95951  0.80446  0.88849  1.0000
  C   C1072     1.0  0.96813  0.61054  0.89989  1.0000
  H   H1832     1.0  0.52777  0.91145  0.72251  1.0000
  H   H1833     1.0  0.95380  0.70622  0.87930  1.0000
  H   H1834     1.0  0.94547  0.69721  0.89977  1.0000
  H   H1835     1.0  0.94154  0.79001  0.86505  1.0000
  H   H1836     1.0  0.95393  0.74918  0.86404  1.0000
  H   H1837     1.0  0.55527  0.96343  0.67645  1.0000
  H   H1838     1.0  0.94006  0.80582  0.92417  1.0000
  H   H1839     1.0  0.88787  0.79982  0.91425  1.0000
  H   H1840     1.0  0.86699  0.77114  0.90305  1.0000
  H   H1841     1.0  0.88257  0.76844  0.93908  1.0000
  H   H1842     1.0  0.84502  0.77841  0.92996  1.0000
  H   H1843     1.0  0.86210  0.73901  0.92783  1.0000
  H   H1844     1.0  0.81017  0.57544  0.91804  1.0000
  C   C1073     1.0  0.77667  0.58031  0.94767  1.0000
  H   H1845     1.0  0.73757  0.69145  0.76743  1.0000
  C   C1074     1.0  0.75339  0.61912  0.79536  1.0000
  H   H1846     1.0  0.73948  0.50938  0.94195  1.0000
  S   S250      1.0  0.89254  0.84404  0.70963  1.0000
  Fe  Fe125     1.0  0.93344  0.71369  0.95539  1.0000
  H   H1847     1.0  0.83337  0.94057  0.86449  1.0000
  H   H1848     1.0  0.54271  0.61308  0.78139  1.0000
  H   H1849     1.0  0.75396  0.99102  0.73016  1.0000
  Fe  Fe126     1.0  0.92531  0.80065  0.70994  1.0000
  H   H1850     1.0  0.62628  0.66210  0.84113  1.0000
  H   H1851     1.0  0.78526  0.91853  0.86478  1.0000
  H   H1852     1.0  0.97790  0.84810  0.92553  1.0000
  H   H1853     1.0  0.74222  0.89792  0.88180  1.0000
  H   H1854     1.0  0.95985  0.93032  0.90724  1.0000
  C   C1075     1.0  0.83233  0.95905  0.87403  1.0000
  H   H1855     1.0  0.00175  0.71191  0.95153  1.0000
  H   H1856     1.0  0.86239  0.90882  0.88235  1.0000
  H   H1857     1.0  0.81269  0.89085  0.87399  1.0000
  H   H1858     1.0  0.76105  0.86821  0.86913  1.0000
  C   C1076     1.0  0.81909  0.59015  0.92789  1.0000
  C   C1077     1.0  0.52920  0.80580  0.68715  1.0000
  C   C1078     1.0  0.79112  0.90575  0.87612  1.0000
  H   H1859     1.0  0.91075  0.99654  0.92650  1.0000
  H   H1860     1.0  0.87109  0.85686  0.91979  1.0000
  S   S251      1.0  0.95019  0.67586  0.97244  1.0000
  H   H1861     1.0  0.89056  0.93943  0.73755  1.0000
  C   C1079     1.0  0.85398  0.92034  0.89368  1.0000
  C   C1080     1.0  0.76447  0.88398  0.87961  1.0000
  H   H1862     1.0  0.87468  0.93241  0.89836  1.0000
  C   C1081     1.0  0.69853  0.75651  0.67210  1.0000
  H   H1863     1.0  0.89116  0.86637  0.90162  1.0000
  H   H1864     1.0  0.61558  0.76183  0.79362  1.0000
  H   H1865     1.0  0.76678  0.66181  0.95249  1.0000
  H   H1866     1.0  0.75979  0.61865  0.72410  1.0000
  N   N60       1.0  0.82746  0.94433  0.89032  1.0000
  C   C1082     1.0  0.87701  0.87644  0.91168  1.0000
  H   H1867     1.0  0.98669  0.76295  0.74000  1.0000
  H   H1868     1.0  0.71305  0.62095  0.90917  1.0000
  H   H1869     1.0  0.88712  0.54139  0.93217  1.0000
  H   H1870     1.0  0.94847  0.63781  0.99909  1.0000
  H   H1871     1.0  0.85014  0.73345  0.67604  1.0000
  H   H1872     1.0  0.84116  0.95058  0.72274  1.0000
  C   C1083     1.0  0.79582  0.92982  0.88993  1.0000
  C   C1084     1.0  0.84690  0.89290  0.90532  1.0000
  H   H1873     1.0  0.57804  0.78339  0.79520  1.0000
  H   H1874     1.0  0.77681  0.94861  0.88874  1.0000
  H   H1875     1.0  0.89113  0.89326  0.91854  1.0000
  H   H1876     1.0  0.77026  0.86894  0.89022  1.0000
  H   H1877     1.0  0.57339  0.67641  0.77685  1.0000
  H   H1878     1.0  0.00203  0.73732  0.84165  1.0000
  C   C1085     1.0  0.59733  0.77116  0.80206  1.0000
  H   H1879     1.0  0.56174  0.74013  0.74376  1.0000
  C   C1086     1.0  0.92716  0.98814  0.90226  1.0000
  H   H1880     1.0  0.79079  0.91795  0.90141  1.0000
  H   H1881     1.0  0.74621  0.76750  0.67526  1.0000
  H   H1882     1.0  0.51977  0.61276  0.67933  1.0000
  H   H1883     1.0  0.83329  0.87498  0.89897  1.0000
  H   H1884     1.0  0.59167  0.70846  0.79484  1.0000
  H   H1885     1.0  0.86093  0.54448  0.91518  1.0000
  H   H1886     1.0  0.74624  0.62606  0.93373  1.0000
  H   H1887     1.0  0.77119  0.63317  0.96839  1.0000
  H   H1888     1.0  0.81369  0.68835  0.96219  1.0000
  Fe  Fe127     1.0  0.86185  0.81769  0.69262  1.0000
  S   S252      1.0  0.89691  0.77633  0.69111  1.0000
  H   H1889     1.0  0.81588  0.60230  0.71414  1.0000
  H   H1890     1.0  0.73105  0.57224  0.75655  1.0000
  H   H1891     1.0  0.73896  0.72796  0.68012  1.0000
  H   H1892     1.0  0.55558  0.73080  0.79245  1.0000
  H   H1893     1.0  0.83286  0.90067  0.91582  1.0000
  C   C1087     1.0  0.56500  0.65788  0.78487  1.0000
  S   S253      1.0  0.88215  0.65656  0.00128  1.0000
  H   H1894     1.0  0.73597  0.65360  0.90319  1.0000
  H   H1895     1.0  0.76440  0.59487  0.79538  1.0000
  H   H1896     1.0  0.83161  0.60912  0.92172  1.0000
  H   H1897     1.0  0.78408  0.61652  0.90258  1.0000
  C   C1088     1.0  0.86264  0.97742  0.87189  1.0000
  H   H1898     1.0  0.88293  0.57801  0.92131  1.0000
  C   C1089     1.0  0.57118  0.71881  0.80152  1.0000
  C   C1090     1.0  0.58480  0.74460  0.81224  1.0000
  H   H1899     1.0  0.58542  0.64649  0.79122  1.0000
  H   H1900     1.0  0.82208  0.64390  0.94288  1.0000
  H   H1901     1.0  0.77688  0.64785  0.92584  1.0000
  C   C1091     1.0  0.73448  0.62757  0.90273  1.0000
  H   H1902     1.0  0.76861  0.67695  0.74473  1.0000
  H   H1903     1.0  0.77210  0.59030  0.73877  1.0000
  H   H1904     1.0  0.98365  0.84584  0.90415  1.0000
  C   C1092     1.0  0.54076  0.67257  0.79688  1.0000
  H   H1905     1.0  0.98175  0.75453  0.88803  1.0000
  H   H1906     1.0  0.60473  0.73448  0.81944  1.0000
  H   H1907     1.0  0.50716  0.76677  0.74059  1.0000
  H   H1908     1.0  0.73239  0.62041  0.88994  1.0000
  C   C1093     1.0  0.80724  0.62747  0.94954  1.0000
  C   C1094     1.0  0.76933  0.62335  0.92756  1.0000
  H   H1909     1.0  0.98807  0.55217  0.87378  1.0000
  C   C1095     1.0  0.63457  0.82844  0.67830  1.0000
  H   H1910     1.0  0.79904  0.94902  0.92161  1.0000
  H   H1911     1.0  0.97866  0.75903  0.76118  1.0000
  C   C1096     1.0  0.61209  0.85279  0.67037  1.0000
  H   H1912     1.0  0.84109  0.94758  0.92508  1.0000
  N   N61       1.0  0.55382  0.69334  0.80985  1.0000
  H   H1913     1.0  0.59980  0.67179  0.81514  1.0000
  H   H1914     1.0  0.51221  0.82067  0.68068  1.0000
  H   H1915     1.0  0.75720  0.59159  0.95478  1.0000
  H   H1916     1.0  0.81378  0.98467  0.94345  1.0000
  C   C1097     1.0  0.72501  0.68828  0.75588  1.0000
  H   H1917     1.0  0.70632  0.62544  0.73408  1.0000
  H   H1918     1.0  0.96577  0.55997  0.89865  1.0000
  H   H1919     1.0  0.59532  0.63675  0.84687  1.0000
  H   H1920     1.0  0.56841  0.64842  0.82070  1.0000
  C   C1098     1.0  0.52941  0.66098  0.67253  1.0000
  H   H1921     1.0  0.70435  0.71940  0.73752  1.0000
  H   H1922     1.0  0.70607  0.73659  0.75727  1.0000
  H   H1923     1.0  0.56683  0.75548  0.82028  1.0000
  H   H1924     1.0  0.74133  0.73178  0.74541  1.0000
  H   H1925     1.0  0.84871  0.61617  0.72533  1.0000
  H   H1926     1.0  0.82314  0.61480  0.95820  1.0000
  H   H1927     1.0  0.76056  0.58552  0.90972  1.0000
  C   C1099     1.0  0.76366  0.61124  0.91022  1.0000
  H   H1928     1.0  0.99399  0.81314  0.94938  1.0000
  H   H1929     1.0  0.57826  0.94083  0.70188  1.0000
  C   C1100     1.0  0.82081  0.96195  0.92025  1.0000
  C   C1101     1.0  0.82584  0.90150  0.72178  1.0000
  H   H1930     1.0  0.52251  0.68604  0.78973  1.0000
  C   C1102     1.0  0.59143  0.87067  0.68303  1.0000
  C   C1103     1.0  0.57575  0.67328  0.82039  1.0000
  H   H1931     1.0  0.86175  0.55275  0.98851  1.0000
  N   N62       1.0  0.79277  0.60470  0.93797  1.0000
  H   H1932     1.0  0.79217  0.63143  0.68716  1.0000
  H   H1933     1.0  0.97828  0.79321  0.91694  1.0000
  H   H1934     1.0  0.71964  0.60745  0.77774  1.0000
  H   H1935     1.0  0.72253  0.57148  0.73542  1.0000
  H   H1936     1.0  0.79309  0.56956  0.95676  1.0000
  Fe  Fe128     1.0  0.89935  0.66735  0.97611  1.0000
  N   N63       1.0  0.79943  0.90860  0.71005  1.0000
  H   H1937     1.0  0.77938  0.89770  0.67653  1.0000
  H   H1938     1.0  0.58647  0.70779  0.83948  1.0000
  H   H1939     1.0  0.60520  0.66918  0.85964  1.0000
  C   C1104     1.0  0.71895  0.72102  0.74854  1.0000
  H   H1940     1.0  0.68201  0.54512  0.75019  1.0000
  H   H1941     1.0  0.91967  0.59660  0.90069  1.0000
  C   C1105     1.0  0.57901  0.68327  0.83824  1.0000
  C   C1106     1.0  0.68951  0.76495  0.68938  1.0000
  H   H1942     1.0  0.98594  0.57335  0.91565  1.0000
  H   H1943     1.0  0.85866  0.92344  0.74852  1.0000
  H   H1944     1.0  0.96629  0.61653  0.88697  1.0000
  C   C1107     1.0  0.60294  0.66143  0.84695  1.0000
  H   H1945     1.0  0.93561  0.60809  0.91994  1.0000
  S   S254      1.0  0.50888  0.83630  0.71493  1.0000
  H   H1946     1.0  0.55646  0.68164  0.84469  1.0000
  H   H1947     1.0  0.74101  0.56321  0.93131  1.0000
  H   H1948     1.0  0.78281  0.86135  0.73303  1.0000
  H   H1949     1.0  0.76611  0.81737  0.71555  1.0000
  H   H1950     1.0  0.96420  0.73094  0.74701  1.0000
  H   H1951     1.0  0.85460  0.58074  0.94705  1.0000
  C   C1108     1.0  0.84370  0.56851  0.93688  1.0000
  H   H1952     1.0  0.75489  0.93511  0.70952  1.0000
  H   H1953     1.0  0.64647  0.55914  0.67126  1.0000
  C   C1109     1.0  0.98418  0.74583  0.74992  1.0000
  H   H1954     1.0  0.54783  0.79309  0.75477  1.0000
  H   H1955     1.0  0.78272  0.81959  0.68454  1.0000
  H   H1956     1.0  0.57998  0.90228  0.71107  1.0000
  C   C1110     1.0  0.56431  0.92046  0.70524  1.0000
  H   H1957     1.0  0.97125  0.94110  0.92728  1.0000
  H   H1958     1.0  0.73595  0.66981  0.73215  1.0000
  H   H1959     1.0  0.73779  0.82742  0.73088  1.0000
  H   H1960     1.0  0.86261  0.97257  0.84567  1.0000
  H   H1961     1.0  0.92893  0.52185  0.98624  1.0000
  H   H1962     1.0  0.70191  0.67870  0.75829  1.0000
  H   H1963     1.0  0.88906  0.55793  0.97223  1.0000
  C   C1111     1.0  0.73683  0.62598  0.77937  1.0000
  C   C1112     1.0  0.74520  0.66667  0.74461  1.0000
  H   H1964     1.0  0.52889  0.65238  0.80231  1.0000
  H   H1965     1.0  0.80370  0.65150  0.73036  1.0000
  H   H1966     1.0  0.69781  0.74603  0.69774  1.0000
  C   C1113     1.0  0.76530  0.86660  0.72343  1.0000
  C   C1114     1.0  0.76186  0.55359  0.93800  1.0000
  C   C1115     1.0  0.52131  0.75353  0.86605  1.0000
  H   H1967     1.0  0.76102  0.88382  0.69951  1.0000
  H   H1968     1.0  0.79589  0.86000  0.70293  1.0000
  H   H1969     1.0  0.92488  0.63756  0.90508  1.0000
  C   C1116     1.0  0.54777  0.90677  0.69030  1.0000
  H   H1970     1.0  0.72365  0.64887  0.78054  1.0000
  C   C1117     1.0  0.53752  0.77241  0.76057  1.0000
  H   H1971     1.0  0.55568  0.79095  0.72506  1.0000
  N   N64       1.0  0.74761  0.63192  0.74858  1.0000
  H   H1972     1.0  0.69842  0.62897  0.75468  1.0000
  C   C1118     1.0  0.80351  0.62802  0.73614  1.0000
  H   H1973     1.0  0.73053  0.84000  0.71047  1.0000
  H   H1974     1.0  0.77867  0.54220  0.92943  1.0000
  H   H1975     1.0  0.98204  0.62845  0.90600  1.0000
  H   H1976     1.0  0.81200  0.97540  0.87092  1.0000
  H   H1977     1.0  0.98586  0.71458  0.99968  1.0000
  C   C1119     1.0  0.99402  0.76244  0.95085  1.0000
  C   C1120     1.0  0.68206  0.57130  0.75063  1.0000
  C   C1121     1.0  0.77472  0.94339  0.73319  1.0000
  C   C1122     1.0  0.82539  0.60579  0.72642  1.0000
  H   H1978     1.0  0.51665  0.73608  0.87508  1.0000
  H   H1979     1.0  0.77813  0.64398  0.76826  1.0000
  C   C1123     1.0  0.71581  0.61855  0.74612  1.0000
  C   C1124     1.0  0.76965  0.61613  0.73650  1.0000
  H   H1980     1.0  0.81357  0.62998  0.74838  1.0000
  C   C1125     1.0  0.71500  0.58202  0.74711  1.0000
  H   H1981     1.0  0.77167  0.63629  0.79766  1.0000
  H   H1982     1.0  0.77395  0.60289  0.76582  1.0000
  C   C1126     1.0  0.76066  0.62613  0.76530  1.0000
  H   H1983     1.0  0.76908  0.92207  0.74001  1.0000
  H   H1984     1.0  0.00039  0.68804  0.90616  1.0000
  S   S255      1.0  0.59795  0.73962  0.67665  1.0000
  H   H1985     1.0  0.83104  0.89553  0.69055  1.0000
  H   H1986     1.0  0.52974  0.92484  0.68635  1.0000
  H   H1987     1.0  0.88358  0.96146  0.87392  1.0000
  C   C1127     1.0  0.55357  0.78888  0.71217  1.0000
  H   H1988     1.0  0.56839  0.62398  0.76539  1.0000
  C   C1128     1.0  0.79059  0.91996  0.67961  1.0000
  S   S256      1.0  0.64429  0.65950  0.67816  1.0000
  H   H1989     1.0  0.73322  0.53788  0.95785  1.0000
  H   H1990     1.0  0.82851  0.58252  0.73245  1.0000
  H   H1991     1.0  0.55013  0.72199  0.76228  1.0000
  H   H1992     1.0  0.58292  0.74721  0.76205  1.0000
  C   C1129     1.0  0.97998  0.93131  0.91566  1.0000
  H   H1993     1.0  0.60803  0.78879  0.81002  1.0000
  H   H1994     1.0  0.66503  0.58096  0.74159  1.0000
  H   H1995     1.0  0.99354  0.66839  0.88722  1.0000
  H   H1996     1.0  0.53763  0.77650  0.77366  1.0000
  H   H1997     1.0  0.98903  0.74400  0.70354  1.0000
  H   H1998     1.0  0.62139  0.81132  0.68537  1.0000
  H   H1999     1.0  0.67448  0.57918  0.76280  1.0000
  H   H2000     1.0  0.87279  0.59172  0.98308  1.0000
  H   H2001     1.0  0.74694  0.88375  0.72786  1.0000
  H   H2002     1.0  0.99993  0.59122  0.87148  1.0000
  C   C1130     1.0  0.73392  0.74651  0.67095  1.0000
  C   C1131     1.0  0.88142  0.56671  0.98423  1.0000
  H   H2003     1.0  0.53435  0.72226  0.82942  1.0000
  H   H2004     1.0  0.00009  0.78203  0.67532  1.0000
  H   H2005     1.0  0.57823  0.85262  0.68958  1.0000
  C   C1132     1.0  0.87022  0.55745  0.92564  1.0000
  C   C1133     1.0  0.78067  0.87949  0.70814  1.0000
  H   H2006     1.0  0.92749  0.57919  0.99142  1.0000
  H   H2007     1.0  0.52351  0.94969  0.71278  1.0000
  C   C1134     1.0  0.74876  0.96867  0.73633  1.0000
  C   C1135     1.0  0.93506  0.61323  0.90686  1.0000
  H   H2008     1.0  0.72580  0.96056  0.73206  1.0000
  H   H2009     1.0  0.97575  0.74472  0.90841  1.0000
  C   C1136     1.0  0.58826  0.92294  0.67057  1.0000
  H   H2010     1.0  0.65145  0.84016  0.68624  1.0000
  H   H2011     1.0  0.83775  0.87836  0.71884  1.0000
  H   H2012     1.0  0.97531  0.53787  0.98142  1.0000
  C   C1137     1.0  0.87260  0.92133  0.73730  1.0000
  H   H2013     1.0  0.85001  0.98189  0.90299  1.0000
  H   H2014     1.0  0.82745  0.93678  0.69441  1.0000
  H   H2015     1.0  0.86695  0.92360  0.71180  1.0000
  C   C1138     1.0  0.53149  0.80822  0.70387  1.0000
  H   H2016     1.0  0.77082  0.51659  0.95583  1.0000
  C   C1139     1.0  0.96659  0.84230  0.91394  1.0000
  C   C1140     1.0  0.77867  0.93688  0.71491  1.0000
  C   C1141     1.0  0.74897  0.83600  0.71980  1.0000
  H   H2017     1.0  0.99000  0.79410  0.84731  1.0000
  C   C1142     1.0  0.54054  0.93176  0.71789  1.0000
  H   H2018     1.0  0.77194  0.93818  0.68247  1.0000
  H   H2019     1.0  0.88492  0.89768  0.73691  1.0000
  H   H2020     1.0  0.78770  0.95900  0.70984  1.0000
  H   H2021     1.0  0.51947  0.52427  0.67430  1.0000
  H   H2022     1.0  0.55287  0.94257  0.72814  1.0000
  C   C1143     1.0  0.52642  0.70840  0.81895  1.0000
  H   H2023     1.0  0.92293  0.51151  0.95367  1.0000
  H   H2024     1.0  0.81694  0.89829  0.73412  1.0000
  H   H2025     1.0  0.51449  0.64148  0.69516  1.0000
  C   C1144     1.0  0.81385  0.91507  0.69388  1.0000
  H   H2026     1.0  0.94582  0.85862  0.91221  1.0000
  C   C1145     1.0  0.75071  0.52786  0.94915  1.0000
  H   H2027     1.0  0.66360  0.76789  0.69034  1.0000
  H   H2028     1.0  0.53036  0.64380  0.76727  1.0000
  H   H2029     1.0  0.98964  0.90702  0.91781  1.0000
  H   H2030     1.0  0.78488  0.68554  0.97778  1.0000
  C   C1146     1.0  0.90872  0.56456  0.99616  1.0000
  C   C1147     1.0  0.92108  0.52982  0.99832  1.0000
  C   C1148     1.0  0.94627  0.99828  0.88986  1.0000
  H   H2031     1.0  0.51349  0.72612  0.81127  1.0000
  C   C1149     1.0  0.99167  0.53810  0.99170  1.0000
  H   H2032     1.0  0.00102  0.58694  0.98608  1.0000
  H   H2033     1.0  0.51020  0.82551  0.76910  1.0000
  C   C1150     1.0  0.77719  0.82898  0.67277  1.0000
  H   H2034     1.0  0.74705  0.97343  0.74943  1.0000
  H   H2035     1.0  0.60729  0.98574  0.67349  1.0000
  H   H2036     1.0  0.79332  0.74134  0.67972  1.0000
  H   H2037     1.0  0.51357  0.66367  0.83026  1.0000
  C   C1151     1.0  0.51117  0.63727  0.68211  1.0000
  H   H2038     1.0  0.51998  0.68490  0.67581  1.0000
  H   H2039     1.0  0.99547  0.93165  0.88549  1.0000
  H   H2040     1.0  0.99554  0.97722  0.90964  1.0000
  H   H2041     1.0  0.99632  0.97605  0.98333  1.0000
  H   H2042     1.0  0.56591  0.50264  0.67916  1.0000
  H   H2043     1.0  0.00029  0.85631  0.99025  1.0000
  H   H2044     1.0  0.52107  0.50399  0.69968  1.0000
  H   H2045     1.0  0.90071  0.51533  0.00117  1.0000
  C   C1152     1.0  0.81752  0.99155  0.93076  1.0000
  H   H2046     1.0  0.00308  0.76939  0.00185  1.0000
  H   H2047     1.0  0.50540  0.82966  0.74820  1.0000
  H   H2048     1.0  0.00410  0.50590  0.88474  1.0000
