data_image0
_chemical_formula_structural       HSCH3C2HSHCH3CHCH2CH2SH2FeCH2NCH4CSFeHC2H3FeCSH2CHCH3NCFeCH4C2HSHFeCH4CH5C3HNHCHC2HCH2CSHFeH2CH4CH2C2HSH4SHCFeHC4HCSH4CH2CH2NHCHSC3HCHCH3C2H2FeH7S2H2CHC2FeC3H3CHFeH2SH2CNSCH2CH2CH3CH3CH5C2SHSH2CH6CH3CH2C2H2CNHC2HC2H6C3HC2H5CH5FeCH3SH3C2HCHC2SHCH5C2SCHC2H8S3HCSCHC3FeCH2CHCH2CHCH2FeH3CH2CHCSHCHC3FeHNSCHCH5C2H3CH3CH4CH2CH2SHCHC3H4CHCH2CFeCH2CSH3CNH8C3SH3CH4C3SCH3FeH3CSCH3SC2HFeSH2C3H3CFeNC4HCHCH3C2H2CH7CHCHCHSCH6CHCH3CFeHCH2C3H3SHCNCH4CHC3H3CH2CH3FeC2HSH2CH2CH3CH3SFeSCSFeHCH2C3HCH2NH2CH6SCHFeHFeHC2HCHC3H3C3H4C2H4CSH9SHSHCH2C2H3CH2C2H2C2HC2H2C2H2CHCNHCHNHCHCH5CHCH7CH5CHCH3CHC2SHSHSCFeCH4CH2SHCH3CSHCH2C4HC3H5FeH2CH3C5SH2S2HC2H2C2H7SHCHCH3C2H2CHC2H2CH4NH2CFeNHCH3CSHCNSCH5CHCHCHCHC4HCSH8C2FeHCH6FeCSC2H4CH4CFeHFeH2SCS3HC5H3CS2CHC2HFeH2CSH2SHCH3CHC
_chemical_formula_sum              "H512 S64 C288 Fe32 N16"
_cell_length_a       16.8738
_cell_length_b       17.5359
_cell_length_c       38.4022
_cell_angle_alpha    78.6564
_cell_angle_beta     86.3786
_cell_angle_gamma    73.1055

_space_group_name_H-M_alt    "P 1"
_space_group_IT_number       1

loop_
  _space_group_symop_operation_xyz
  'x, y, z'

loop_
  _atom_site_type_symbol
  _atom_site_label
  _atom_site_symmetry_multiplicity
  _atom_site_fract_x
  _atom_site_fract_y
  _atom_site_fract_z
  _atom_site_occupancy
  H   H1        1.0  0.11339  0.40090  0.40584  1.0000
  S   S1        1.0  0.46817  0.52329  0.45064  1.0000
  C   C1        1.0  0.42069  0.45927  0.39812  1.0000
  H   H2        1.0  0.07051  0.67733  0.33291  1.0000
  H   H3        1.0  0.51685  0.29533  0.37781  1.0000
  H   H4        1.0  0.50411  0.25519  0.33987  1.0000
  C   C2        1.0  0.18548  0.51147  0.45599  1.0000
  C   C3        1.0  0.28287  0.30961  0.41161  1.0000
  H   H5        1.0  0.23257  0.60758  0.42608  1.0000
  S   S2        1.0  0.05856  0.41164  0.30982  1.0000
  H   H6        1.0  0.38910  0.40861  0.35607  1.0000
  C   C4        1.0  0.45088  0.58794  0.37990  1.0000
  H   H7        1.0  0.08257  0.30340  0.48086  1.0000
  H   H8        1.0  0.20384  0.61537  0.30415  1.0000
  H   H9        1.0  0.10416  0.24225  0.30645  1.0000
  C   C5        1.0  0.04287  0.27051  0.29544  1.0000
  H   H10       1.0  0.04983  0.58058  0.34335  1.0000
  C   C6        1.0  0.09969  0.61115  0.34027  1.0000
  H   H11       1.0  0.41522  0.40931  0.41875  1.0000
  H   H12       1.0  0.16674  0.52018  0.38211  1.0000
  C   C7        1.0  0.15136  0.58726  0.37481  1.0000
  H   H13       1.0  0.13903  0.31950  0.38305  1.0000
  H   H14       1.0  0.20036  0.32934  0.45573  1.0000
  S   S3        1.0  0.29422  0.34649  0.31929  1.0000
  H   H15       1.0  0.47121  0.63642  0.38632  1.0000
  H   H16       1.0  0.26136  0.42486  0.49794  1.0000
  Fe  Fe1       1.0  0.34126  0.43143  0.27810  1.0000
  C   C8        1.0  0.17102  0.60024  0.43581  1.0000
  H   H17       1.0  0.36274  0.73396  0.41052  1.0000
  H   H18       1.0  0.21248  0.59941  0.36836  1.0000
  N   N1        1.0  0.11035  0.62655  0.40543  1.0000
  C   C9        1.0  0.44444  0.52341  0.40673  1.0000
  H   H19       1.0  0.27302  0.37355  0.39793  1.0000
  H   H20       1.0  0.33653  0.29255  0.42976  1.0000
  H   H21       1.0  0.18243  0.51809  0.31487  1.0000
  H   H22       1.0  0.31626  0.48360  0.46755  1.0000
  C   C10       1.0  0.41276  0.52326  0.33568  1.0000
  S   S4        1.0  0.40081  0.52198  0.29065  1.0000
  Fe  Fe2       1.0  0.52211  0.39614  0.48052  1.0000
  H   H23       1.0  0.30472  0.72990  0.47069  1.0000
  C   C11       1.0  0.12616  0.33405  0.41019  1.0000
  C   C12       1.0  0.15403  0.58468  0.30915  1.0000
  H   H24       1.0  0.20055  0.46867  0.43732  1.0000
  H   H25       1.0  0.33470  0.25524  0.50621  1.0000
  H   H26       1.0  0.29828  0.26894  0.39187  1.0000
  Fe  Fe3       1.0  0.18400  0.38007  0.28480  1.0000
  C   C13       1.0  0.43522  0.58782  0.34451  1.0000
  S   S5        1.0  0.45322  0.32802  0.52119  1.0000
  H   H27       1.0  0.04663  0.53450  0.42186  1.0000
  H   H28       1.0  0.24818  0.52931  0.50066  1.0000
  C   C14       1.0  0.25704  0.48622  0.48214  1.0000
  H   H29       1.0  0.15156  0.64023  0.45584  1.0000
  C   C15       1.0  0.08661  0.71767  0.39527  1.0000
  H   H30       1.0  0.44235  0.63694  0.32380  1.0000
  H   H31       1.0  0.11576  0.60120  0.28483  1.0000
  H   H32       1.0  0.12947  0.50407  0.47142  1.0000
  N   N2        1.0  0.05182  0.30890  0.42655  1.0000
  C   C16       1.0  0.20623  0.29836  0.43275  1.0000
  Fe  Fe4       1.0  0.34902  0.25467  0.28510  1.0000
  C   C17       1.0  0.40470  0.45935  0.36262  1.0000
  H   H33       1.0  0.28939  0.73207  0.30169  1.0000
  H   H34       1.0  0.21266  0.73252  0.39039  1.0000
  H   H35       1.0  0.13160  0.62923  0.52008  1.0000
  H   H36       1.0  0.19917  0.25258  0.58697  1.0000
  C   C18       1.0  0.29936  0.33039  0.62349  1.0000
  C   C19       1.0  0.50734  0.62619  0.62644  1.0000
  H   H37       1.0  0.44480  0.58481  0.58759  1.0000
  S   S6        1.0  0.09631  0.29560  0.69930  1.0000
  H   H38       1.0  0.49355  0.71909  0.69729  1.0000
  Fe  Fe5       1.0  0.16462  0.33752  0.73600  1.0000
  C   C20       1.0  0.26640  0.62564  0.69208  1.0000
  H   H39       1.0  0.43996  0.47122  0.70124  1.0000
  H   H40       1.0  0.35956  0.73251  0.52834  1.0000
  H   H41       1.0  0.23138  0.33970  0.62357  1.0000
  H   H42       1.0  0.32395  0.60177  0.64226  1.0000
  C   C21       1.0  0.08284  0.59073  0.62083  1.0000
  H   H43       1.0  0.38299  0.40241  0.60150  1.0000
  H   H44       1.0  0.04074  0.69796  0.68491  1.0000
  H   H45       1.0  0.06771  0.58167  0.64872  1.0000
  H   H46       1.0  0.08407  0.28681  0.62608  1.0000
  H   H47       1.0  0.29480  0.41682  0.57376  1.0000
  C   C22       1.0  0.11831  0.61830  0.54816  1.0000
  C   C23       1.0  0.31586  0.40708  0.60155  1.0000
  C   C24       1.0  0.38508  0.67880  0.66386  1.0000
  H   H48       1.0  0.28110  0.46056  0.61319  1.0000
  N   N3        1.0  0.43791  0.69977  0.63198  1.0000
  H   H49       1.0  0.26159  0.70417  0.64160  1.0000
  C   C25       1.0  0.44590  0.40672  0.70075  1.0000
  H   H50       1.0  0.35175  0.69604  0.59284  1.0000
  C   C26       1.0  0.30817  0.65220  0.65714  1.0000
  C   C27       1.0  0.11678  0.65376  0.60592  1.0000
  H   H51       1.0  0.41693  0.40348  0.67610  1.0000
  C   C28       1.0  0.48304  0.55983  0.61184  1.0000
  H   H52       1.0  0.31918  0.32448  0.65113  1.0000
  H   H53       1.0  0.42346  0.63108  0.68460  1.0000
  C   C29       1.0  0.13376  0.66841  0.56955  1.0000
  S   S7        1.0  0.11725  0.46865  0.71063  1.0000
  H   H54       1.0  0.44888  0.52790  0.63242  1.0000
  Fe  Fe6       1.0  0.03942  0.42647  0.67725  1.0000
  H   H55       1.0  0.07165  0.51671  0.54647  1.0000
  H   H56       1.0  0.13089  0.68989  0.62282  1.0000
  C   C30       1.0  0.08409  0.55511  0.56305  1.0000
  H   H57       1.0  0.24745  0.67571  0.70741  1.0000
  H   H58       1.0  0.30879  0.57188  0.70856  1.0000
  H   H59       1.0  0.21031  0.60931  0.68640  1.0000
  H   H60       1.0  0.26211  0.41139  0.77355  1.0000
  C   C31       1.0  0.06647  0.54131  0.59949  1.0000
  H   H61       1.0  0.41206  0.38174  0.72387  1.0000
  H   H62       1.0  0.32529  0.26365  0.57995  1.0000
  C   C32       1.0  0.34613  0.25424  0.60780  1.0000
  C   C33       1.0  0.04419  0.71162  0.71167  1.0000
  H   H63       1.0  0.41228  0.25373  0.60502  1.0000
  S   S8        1.0  0.29543  0.26141  0.74750  1.0000
  H   H64       1.0  0.35940  0.73228  0.67695  1.0000
  H   H65       1.0  0.48754  0.71915  0.56017  1.0000
  H   H66       1.0  0.05930  0.65325  0.73077  1.0000
  H   H67       1.0  0.19004  0.26540  0.52562  1.0000
  S   S9        1.0  0.40870  0.56469  0.81561  1.0000
  H   H68       1.0  0.50390  0.46893  0.98072  1.0000
  C   C34       1.0  0.34200  0.38438  0.81879  1.0000
  Fe  Fe7       1.0  0.45760  0.47425  0.86448  1.0000
  H   H69       1.0  0.11379  0.54202  0.96722  1.0000
  C   C35       1.0  0.06512  0.67020  0.96369  1.0000
  C   C36       1.0  0.30771  0.36491  0.79052  1.0000
  C   C37       1.0  0.49158  0.47310  0.00909  1.0000
  C   C38       1.0  0.39808  0.50805  0.01341  1.0000
  H   H70       1.0  0.06330  0.65400  0.89443  1.0000
  C   C39       1.0  0.16660  0.61403  0.79502  1.0000
  S   S10       1.0  0.44509  0.34741  0.87613  1.0000
  H   H71       1.0  0.05707  0.61079  0.82596  1.0000
  H   H72       1.0  0.37663  0.56751  0.99514  1.0000
  H   H73       1.0  0.12674  0.68080  0.96452  1.0000
  H   H74       1.0  0.18964  0.39959  0.90318  1.0000
  C   C40       1.0  0.40064  0.32432  0.84091  1.0000
  H   H75       1.0  0.26737  0.37273  0.97897  1.0000
  H   H76       1.0  0.36527  0.38372  0.96034  1.0000
  C   C41       1.0  0.17411  0.45200  0.91711  1.0000
  H   H77       1.0  0.10806  0.26638  0.86125  1.0000
  H   H78       1.0  0.25133  0.50887  0.94239  1.0000
  N   N4        1.0  0.12190  0.52721  0.89371  1.0000
  H   H79       1.0  0.22634  0.55275  0.86294  1.0000
  C   C42       1.0  0.10792  0.60100  0.91046  1.0000
  H   H80       1.0  0.52237  0.33466  0.97089  1.0000
  S   S11       1.0  0.40935  0.56210  0.90146  1.0000
  C   C43       1.0  0.25846  0.45718  0.92870  1.0000
  C   C44       1.0  0.16674  0.54071  0.85883  1.0000
  C   C45       1.0  0.12019  0.61315  0.83050  1.0000
  H   H81       1.0  0.29925  0.46339  0.90523  1.0000
  C   C46       1.0  0.30337  0.38009  0.95395  1.0000
  H   H82       1.0  0.16601  0.61932  0.90997  1.0000
  C   C47       1.0  0.03896  0.51461  0.88841  1.0000
  H   H83       1.0  0.32233  0.44553  0.82373  1.0000
  H   H84       1.0  0.13788  0.67121  0.77654  1.0000
  H   H85       1.0  0.05700  0.47082  0.83765  1.0000
  C   C48       1.0  0.33435  0.28589  0.78367  1.0000
  C   C49       1.0  0.04036  0.45043  0.86557  1.0000
  H   H86       1.0  0.13879  0.43341  0.94121  1.0000
  H   H87       1.0  0.31263  0.32649  0.94118  1.0000
  Fe  Fe8       1.0  0.37121  0.65507  0.85164  1.0000
  H   H88       1.0  0.18408  0.48482  0.84712  1.0000
  H   H89       1.0  0.03961  0.66340  0.99115  1.0000
  H   H90       1.0  0.19023  0.24895  0.89238  1.0000
  H   H91       1.0  0.11480  0.67133  0.83901  1.0000
  H   H92       1.0  0.08599  0.39237  0.87590  1.0000
  H   H93       1.0  0.23213  0.61137  0.79847  1.0000
  H   H94       1.0  0.20981  0.27293  0.84533  1.0000
  S   S12       1.0  0.49034  0.68873  0.84633  1.0000
  S   S13       1.0  0.06773  0.34190  0.77869  1.0000
  H   H95       1.0  0.16417  0.56189  0.78311  1.0000
  H   H96       1.0  0.52124  0.51739  0.01550  1.0000
  C   C50       1.0  0.07296  0.59337  0.94897  1.0000
  H   H97       1.0  0.36470  0.46668  0.00690  1.0000
  C   C51       1.0  0.42466  0.24472  0.83479  1.0000
  C   C52       1.0  0.17570  0.24039  0.86584  1.0000
  Fe  Fe9       1.0  0.52964  0.59264  0.81305  1.0000
  C   C53       1.0  0.27582  0.66018  0.21972  1.0000
  C   C54       1.0  0.47826  0.49714  0.16583  1.0000
  C   C55       1.0  0.39369  0.55828  0.15262  1.0000
  H   H98       1.0  0.14927  0.68316  0.05772  1.0000
  H   H99       1.0  0.37155  0.30374  0.04906  1.0000
  H   H100      1.0  0.51250  0.63256  0.26373  1.0000
  C   C56       1.0  0.52375  0.38907  0.03379  1.0000
  H   H101      1.0  0.38265  0.50025  0.10843  1.0000
  Fe  Fe10      1.0  0.28647  0.37118  0.21724  1.0000
  H   H102      1.0  0.17711  0.28023  0.16613  1.0000
  H   H103      1.0  0.31146  0.59922  0.10730  1.0000
  S   S14       1.0  0.27805  0.40598  0.15783  1.0000
  H   H104      1.0  0.48056  0.64958  0.18385  1.0000
  H   H105      1.0  0.30186  0.41058  0.08347  1.0000
  C   C57       1.0  0.38719  0.25840  0.15177  1.0000
  N   N5        1.0  0.07259  0.25352  0.14583  1.0000
  S   S15       1.0  0.22575  0.47288  0.24566  1.0000
  C   C58       1.0  0.18352  0.28055  0.05367  1.0000
  H   H106      1.0  0.15069  0.66615  0.20803  1.0000
  H   H107      1.0  0.32320  0.69228  0.21017  1.0000
  C   C59       1.0  0.33793  0.35178  0.09710  1.0000
  H   H108      1.0  0.38645  0.62074  0.15657  1.0000
  H   H109      1.0  0.38245  0.51764  0.04103  1.0000
  C   C60       1.0  0.09869  0.24620  0.10805  1.0000
  H   H110      1.0  0.22178  0.32046  0.04116  1.0000
  H   H111      1.0  0.41768  0.59028  0.09555  1.0000
  H   H112      1.0  0.05918  0.70579  0.16064  1.0000
  C   C61       1.0  0.37607  0.56187  0.11359  1.0000
  H   H113      1.0  0.51400  0.63970  0.12745  1.0000
  H   H114      1.0  0.22426  0.64385  0.17301  1.0000
  H   H115      1.0  0.30737  0.59433  0.22380  1.0000
  C   C62       1.0  0.34036  0.33435  0.13423  1.0000
  H   H116      1.0  0.16613  0.69321  0.12060  1.0000
  H   H117      1.0  0.34411  0.53761  0.16861  1.0000
  H   H118      1.0  0.12940  0.29226  0.03630  1.0000
  H   H119      1.0  0.47980  0.56447  0.21714  1.0000
  H   H120      1.0  0.46671  0.46096  0.19197  1.0000
  C   C63       1.0  0.20446  0.68202  0.19347  1.0000
  C   C64       1.0  0.15515  0.29864  0.09048  1.0000
  S   S16       1.0  0.23343  0.28059  0.25355  1.0000
  H   H121      1.0  0.12156  0.36421  0.08711  1.0000
  S   S17       1.0  0.40627  0.33712  0.24623  1.0000
  H   H122      1.0  0.25165  0.67495  0.24576  1.0000
  H   H123      1.0  0.06662  0.38006  0.14045  1.0000
  C   C65       1.0  0.37721  0.29144  0.07764  1.0000
  H   H124      1.0  0.49569  0.45206  0.14796  1.0000
  H   H125      1.0  0.04384  0.26539  0.09046  1.0000
  H   H126      1.0  0.50733  0.39894  0.06139  1.0000
  H   H127      1.0  0.23433  0.72791  0.05084  1.0000
  H   H128      1.0  0.21060  0.28686  0.10670  1.0000
  H   H129      1.0  0.39183  0.24580  0.18040  1.0000
  C   C66       1.0  0.52008  0.58889  0.19639  1.0000
  H   H130      1.0  0.51004  0.71905  0.22900  1.0000
  H   H131      1.0  0.48663  0.34964  0.02854  1.0000
  H   H132      1.0  0.38121  0.99861  0.38936  1.0000
  C   C67       1.0  0.27531  0.00733  0.33501  1.0000
  H   H133      1.0  0.33935  0.89557  0.31836  1.0000
  H   H134      1.0  0.47249  0.96741  0.36525  1.0000
  C   C68       1.0  0.36074  0.13276  0.49770  1.0000
  C   C69       1.0  0.35531  0.93668  0.33354  1.0000
  H   H135      1.0  0.28196  0.85200  0.37638  1.0000
  H   H136      1.0  0.42803  0.77698  0.34919  1.0000
  C   C70       1.0  0.32630  0.86580  0.39261  1.0000
  N   N6        1.0  0.39355  0.88930  0.36877  1.0000
  H   H137      1.0  0.43039  0.89882  0.44179  1.0000
  C   C71       1.0  0.11151  0.17522  0.40222  1.0000
  C   C72       1.0  0.50007  0.08036  0.29264  1.0000
  H   H138      1.0  0.18960  0.10253  0.29924  1.0000
  C   C73       1.0  0.45829  0.81430  0.36119  1.0000
  C   C74       1.0  0.31092  0.20395  0.50769  1.0000
  H   H139      1.0  0.06048  0.07264  0.41282  1.0000
  H   H140      1.0  0.17456  0.18247  0.39692  1.0000
  H   H141      1.0  0.10684  0.18861  0.45714  1.0000
  H   H142      1.0  0.07525  0.20019  0.37738  1.0000
  H   H143      1.0  0.29482  0.07646  0.28309  1.0000
  H   H144      1.0  0.36700  0.01232  0.49056  1.0000
  C   C75       1.0  0.35255  0.78902  0.42234  1.0000
  C   C76       1.0  0.22894  0.20970  0.51851  1.0000
  C   C77       1.0  0.12166  0.08423  0.41145  1.0000
  H   H145      1.0  0.28531  0.05259  0.34943  1.0000
  C   C78       1.0  0.24607  0.05153  0.29765  1.0000
  C   C79       1.0  0.43010  0.94354  0.38457  1.0000
  H   H146      1.0  0.13100  0.86847  0.39484  1.0000
  H   H147      1.0  0.27659  0.83903  0.46519  1.0000
  H   H148      1.0  0.06163  0.76208  0.48483  1.0000
  H   H149      1.0  0.15736  0.87423  0.34798  1.0000
  H   H150      1.0  0.41057  0.78342  0.43570  1.0000
  C   C80       1.0  0.32866  0.06722  0.49859  1.0000
  H   H151      1.0  0.28989  0.91803  0.40485  1.0000
  H   H152      1.0  0.50823  0.86438  0.30980  1.0000
  H   H153      1.0  0.40024  0.96353  0.31668  1.0000
  H   H154      1.0  0.06888  0.74561  0.41923  1.0000
  H   H155      1.0  0.22581  0.79109  0.43965  1.0000
  Fe  Fe11      1.0  0.51358  0.22307  0.49396  1.0000
  C   C81       1.0  0.19733  0.14364  0.52016  1.0000
  H   H156      1.0  0.21808  0.23253  0.44299  1.0000
  H   H157      1.0  0.22431  0.98404  0.34798  1.0000
  H   H158      1.0  0.22204  0.02217  0.51030  1.0000
  S   S18       1.0  0.41916  0.13522  0.31667  1.0000
  H   H159      1.0  0.15425  0.05702  0.43716  1.0000
  H   H160      1.0  0.05645  0.86837  0.36378  1.0000
  H   H161      1.0  0.15820  0.05444  0.39045  1.0000
  C   C82       1.0  0.24704  0.07250  0.51002  1.0000
  C   C83       1.0  0.12318  0.84700  0.37032  1.0000
  H   H162      1.0  0.40953  0.80877  0.50850  1.0000
  C   C84       1.0  0.15357  0.75453  0.37562  1.0000
  H   H163      1.0  0.45087  0.18593  0.39451  1.0000
  C   C85       1.0  0.28565  0.78754  0.45108  1.0000
  C   C86       1.0  0.47598  0.90632  0.42019  1.0000
  S   S19       1.0  0.46291  0.12459  0.48376  1.0000
  H   H164      1.0  0.05218  0.86870  0.47848  1.0000
  C   C87       1.0  0.52187  0.96240  0.42989  1.0000
  H   H165      1.0  0.16636  0.73802  0.34902  1.0000
  H   H166      1.0  0.47858  0.02363  0.43006  1.0000
  H   H167      1.0  0.23108  0.00955  0.28262  1.0000
  H   H168      1.0  0.48740  0.77452  0.38586  1.0000
  H   H169      1.0  0.41998  0.76749  0.28420  1.0000
  C   C88       1.0  0.28907  0.78377  0.28092  1.0000
  C   C89       1.0  0.51854  0.17073  0.38921  1.0000
  S   S20       1.0  0.12502  0.80164  0.27557  1.0000
  C   C90       1.0  0.06855  0.21785  0.43305  1.0000
  H   H170      1.0  0.52231  0.84724  0.41923  1.0000
  C   C91       1.0  0.53069  0.82880  0.33628  1.0000
  C   C92       1.0  0.33390  0.81388  0.73933  1.0000
  H   H171      1.0  0.50531  0.09103  0.61882  1.0000
  H   H172      1.0  0.47322  0.14687  0.57522  1.0000
  H   H173      1.0  0.33458  0.79108  0.60493  1.0000
  H   H174      1.0  0.46408  0.01968  0.55766  1.0000
  H   H175      1.0  0.42652  0.82027  0.64138  1.0000
  H   H176      1.0  0.51764  0.77890  0.61748  1.0000
  H   H177      1.0  0.44744  0.16881  0.65809  1.0000
  H   H178      1.0  0.44266  0.02299  0.66902  1.0000
  S   S21       1.0  0.09530  0.15126  0.53443  1.0000
  S   S22       1.0  0.09423  0.83958  0.63738  1.0000
  S   S23       1.0  0.05326  0.03694  0.62884  1.0000
  H   H179      1.0  0.46016  0.99249  0.73294  1.0000
  C   C93       1.0  0.37583  0.78713  0.53242  1.0000
  S   S24       1.0  0.20503  0.93576  0.58279  1.0000
  C   C94       1.0  0.44714  0.05667  0.71915  1.0000
  H   H180      1.0  0.18290  0.02029  0.71820  1.0000
  C   C95       1.0  0.09958  0.22598  0.61893  1.0000
  C   C96       1.0  0.26193  0.85568  0.71997  1.0000
  C   C97       1.0  0.18828  0.09665  0.75547  1.0000
  Fe  Fe12      1.0  0.12629  0.85483  0.57950  1.0000
  C   C98       1.0  0.25047  0.17710  0.63829  1.0000
  H   H181      1.0  0.36255  0.05097  0.62020  1.0000
  H   H182      1.0  0.33851  0.12520  0.58137  1.0000
  C   C99       1.0  0.17995  0.82953  0.77301  1.0000
  H   H183      1.0  0.12901  0.89546  0.72175  1.0000
  C   C100      1.0  0.38671  0.15544  0.66301  1.0000
  H   H184      1.0  0.39387  0.80974  0.72694  1.0000
  H   H185      1.0  0.35342  0.19661  0.68122  1.0000
  C   C101      1.0  0.40277  0.06738  0.68433  1.0000
  H   H186      1.0  0.15784  0.12589  0.69965  1.0000
  C   C102      1.0  0.52900  0.73858  0.67370  1.0000
  H   H187      1.0  0.31798  0.83568  0.53541  1.0000
  H   H188      1.0  0.08383  0.08741  0.72760  1.0000
  Fe  Fe13      1.0  0.16454  0.92837  0.63957  1.0000
  H   H189      1.0  0.25602  0.08410  0.75110  1.0000
  H   H190      1.0  0.08752  0.18188  0.64209  1.0000
  H   H191      1.0  0.44706  0.82225  0.56720  1.0000
  C   C103      1.0  0.15075  0.08138  0.72337  1.0000
  H   H192      1.0  0.22615  0.21843  0.65741  1.0000
  H   H193      1.0  0.34404  0.05127  0.69097  1.0000
  C   C104      1.0  0.18985  0.20096  0.60676  1.0000
  H   H194      1.0  0.24649  0.11653  0.65229  1.0000
  C   C105      1.0  0.18456  0.86205  0.73659  1.0000
  S   S25       1.0  0.17195  0.75029  0.55042  1.0000
  H   H195      1.0  0.40785  0.09614  0.73672  1.0000
  C   C106      1.0  0.46588  0.09560  0.59610  1.0000
  H   H196      1.0  0.16205  0.16179  0.75661  1.0000
  C   C107      1.0  0.43045  0.76649  0.56512  1.0000
  C   C108      1.0  0.37318  0.10956  0.60671  1.0000
  C   C109      1.0  0.47604  0.76290  0.63955  1.0000
  Fe  Fe14      1.0  0.08903  0.03725  0.57144  1.0000
  H   H197      1.0  0.19910  0.14792  0.59370  1.0000
  N   N7        1.0  0.33918  0.17409  0.62883  1.0000
  S   S26       1.0  0.27173  0.90426  0.67598  1.0000
  C   C110      1.0  0.38484  0.73760  0.59936  1.0000
  H   H198      1.0  0.49600  0.96414  0.60189  1.0000
  C   C111      1.0  0.49957  0.01744  0.58141  1.0000
  H   H199      1.0  0.50257  0.86122  0.68438  1.0000
  H   H200      1.0  0.50677  0.07176  0.71398  1.0000
  H   H201      1.0  0.05801  0.22981  0.59699  1.0000
  H   H202      1.0  0.09465  0.74057  0.71155  1.0000
  H   H203      1.0  0.46872  0.19806  0.85220  1.0000
  C   C112      1.0  0.17979  0.99228  0.85390  1.0000
  C   C113      1.0  0.17680  0.13566  0.82884  1.0000
  H   H204      1.0  0.19724  0.92957  0.84837  1.0000
  H   H205      1.0  0.32607  0.01714  0.84712  1.0000
  H   H206      1.0  0.12099  0.83828  0.78660  1.0000
  C   C114      1.0  0.30743  0.86556  0.98496  1.0000
  H   H207      1.0  0.28078  0.14683  0.97779  1.0000
  H   H208      1.0  0.26855  0.12641  0.86936  1.0000
  H   H209      1.0  0.10836  0.16058  0.82586  1.0000
  C   C115      1.0  0.08591  0.01318  0.86315  1.0000
  H   H210      1.0  0.49597  0.04730  0.91168  1.0000
  H   H211      1.0  0.52668  0.90950  0.92173  1.0000
  H   H212      1.0  0.44992  0.16815  0.99123  1.0000
  H   H213      1.0  0.41335  0.16465  0.80061  1.0000
  C   C116      1.0  0.20094  0.15018  0.86465  1.0000
  H   H214      1.0  0.38529  0.74504  0.78915  1.0000
  H   H215      1.0  0.44736  0.91162  0.95542  1.0000
  C   C117      1.0  0.27146  0.97482  0.01823  1.0000
  H   H216      1.0  0.30638  0.84425  0.96044  1.0000
  H   H217      1.0  0.40488  0.17766  0.94884  1.0000
  S   S27       1.0  0.07294  0.15818  0.01066  1.0000
  H   H218      1.0  0.31736  0.89329  0.82295  1.0000
  C   C118      1.0  0.06915  0.95398  0.89568  1.0000
  H   H219      1.0  0.24198  0.03752  0.01978  1.0000
  C   C119      1.0  0.27022  0.94727  0.98668  1.0000
  C   C120      1.0  0.44735  0.05126  0.97773  1.0000
  C   C121      1.0  0.43314  0.91884  0.81063  1.0000
  H   H220      1.0  0.09173  0.89063  0.89110  1.0000
  H   H221      1.0  0.10075  0.95865  0.91932  1.0000
  H   H222      1.0  0.46058  0.86531  0.79787  1.0000
  H   H223      1.0  0.21442  0.98737  0.87834  1.0000
  C   C122      1.0  0.33898  0.94360  0.80730  1.0000
  H   H224      1.0  0.30164  0.22758  0.99481  1.0000
  C   C123      1.0  0.32480  0.16237  0.99359  1.0000
  H   H225      1.0  0.32715  0.12776  0.02123  1.0000
  H   H226      1.0  0.45850  0.96908  0.79745  1.0000
  C   C124      1.0  0.39300  0.22585  0.80575  1.0000
  Fe  Fe15      1.0  0.09932  0.08860  0.96608  1.0000
  C   C125      1.0  0.16640  0.04413  0.78994  1.0000
  H   H227      1.0  0.04951  0.00860  0.84100  1.0000
  H   H228      1.0  0.16838  0.12068  0.88664  1.0000
  C   C126      1.0  0.29864  0.02406  0.82067  1.0000
  S   S28       1.0  0.22359  0.01592  0.94938  1.0000
  H   H229      1.0  0.06194  0.07516  0.86907  1.0000
  H   H230      1.0  0.32078  0.07238  0.80307  1.0000
  H   H231      1.0  0.40557  0.03555  0.96084  1.0000
  C   C127      1.0  0.41097  0.14392  0.97666  1.0000
  N   N8        1.0  0.20529  0.04904  0.82334  1.0000
  H   H232      1.0  0.20323  0.17498  0.80784  1.0000
  H   H233      1.0  0.50779  0.77416  0.94509  1.0000
  H   H234      1.0  0.43942  0.01934  0.00535  1.0000
  H   H235      1.0  0.09771  0.06494  0.79205  1.0000
  H   H236      1.0  0.18148  0.98017  0.78622  1.0000
  H   H237      1.0  0.45116  0.90192  0.83907  1.0000
  H   H238      1.0  0.52572  0.12710  0.92368  1.0000
  H   H239      1.0  0.32417  0.94999  0.77893  1.0000
  C   C128      1.0  0.51492  0.89271  0.95057  1.0000
  C   C129      1.0  0.25231  0.78673  0.79215  1.0000
  C   C130      1.0  0.34526  0.81126  0.01521  1.0000
  S   S29       1.0  0.24786  0.74661  0.83776  1.0000
  H   H240      1.0  0.37366  0.74794  0.01412  1.0000
  H   H241      1.0  0.53148  0.78011  0.98933  1.0000
  H   H242      1.0  0.14258  0.77246  0.02401  1.0000
  C   C131      1.0  0.32901  0.77765  0.77491  1.0000
  H   H243      1.0  0.25050  0.16080  0.14078  1.0000
  H   H244      1.0  0.18961  0.10022  0.16559  1.0000
  H   H245      1.0  0.24829  0.10015  0.22107  1.0000
  H   H246      1.0  0.22203  0.88759  0.10991  1.0000
  C   C132      1.0  0.17378  0.92569  0.12498  1.0000
  C   C133      1.0  0.36304  0.80284  0.27072  1.0000
  C   C134      1.0  0.18085  0.77321  0.17641  1.0000
  S   S30       1.0  0.46110  0.13792  0.07018  1.0000
  C   C135      1.0  0.49693  0.09037  0.25564  1.0000
  H   H247      1.0  0.12943  0.18184  0.10613  1.0000
  H   H248      1.0  0.29083  0.96133  0.20326  1.0000
  H   H249      1.0  0.05942  0.80361  0.07836  1.0000
  Fe  Fe16      1.0  0.48837  0.01302  0.10378  1.0000
  H   H250      1.0  0.13809  0.85552  0.06803  1.0000
  H   H251      1.0  0.06708  0.91910  0.15714  1.0000
  H   H252      1.0  0.12533  0.00833  0.07614  1.0000
  C   C136      1.0  0.21503  0.83089  0.26405  1.0000
  S   S31       1.0  0.39069  0.96052  0.13280  1.0000
  C   C137      1.0  0.21515  0.89607  0.23642  1.0000
  H   H253      1.0  0.23175  0.75680  0.11324  1.0000
  H   H254      1.0  0.05400  0.91141  0.11303  1.0000
  H   H255      1.0  0.45910  0.13769  0.14598  1.0000
  S   S32       1.0  0.39710  0.77448  0.08430  1.0000
  C   C138      1.0  0.42554  0.19743  0.13227  1.0000
  C   C139      1.0  0.31293  0.92172  0.04769  1.0000
  H   H256      1.0  0.05670  0.13300  0.15889  1.0000
  Fe  Fe17      1.0  0.45436  0.85025  0.10955  1.0000
  S   S33       1.0  0.45570  0.89400  0.23298  1.0000
  H   H257      1.0  0.29627  0.17761  0.20129  1.0000
  H   H258      1.0  0.15564  0.80852  0.19762  1.0000
  C   C140      1.0  0.04456  0.77314  0.15494  1.0000
  C   C141      1.0  0.09961  0.88988  0.13498  1.0000
  C   C142      1.0  0.41916  0.21372  0.09521  1.0000
  H   H259      1.0  0.44417  0.13290  0.24124  1.0000
  H   H260      1.0  0.33336  0.07897  0.19006  1.0000
  H   H261      1.0  0.23980  0.78819  0.16802  1.0000
  C   C143      1.0  0.34808  0.83972  0.04656  1.0000
  Fe  Fe18      1.0  0.48731  0.90573  0.17504  1.0000
  N   N9        1.0  0.12243  0.79880  0.14543  1.0000
  C   C144      1.0  0.14640  0.01084  0.10261  1.0000
  C   C145      1.0  0.21526  0.15149  0.16588  1.0000
  C   C146      1.0  0.16586  0.74120  0.05103  1.0000
  C   C147      1.0  0.36361  0.86760  0.24307  1.0000
  H   H262      1.0  0.31648  0.94422  0.07152  1.0000
  C   C148      1.0  0.12703  0.79549  0.07788  1.0000
  H   H263      1.0  0.20287  0.92928  0.14957  1.0000
  C   C149      1.0  0.16521  0.75819  0.11527  1.0000
  H   H264      1.0  0.15809  0.93168  0.22297  1.0000
  H   H265      1.0  0.09496  0.05022  0.11595  1.0000
  H   H266      1.0  0.19910  0.03764  0.09871  1.0000
  C   C150      1.0  0.29009  0.91283  0.22524  1.0000
  C   C151      1.0  0.27688  0.12564  0.19643  1.0000
  H   H267      1.0  0.22134  0.21635  0.05584  1.0000
  H   H268      1.0  0.12613  0.22388  0.19822  1.0000
  C   C152      1.0  0.14658  0.23067  0.16989  1.0000
  H   H269      1.0  0.73923  0.30669  0.37034  1.0000
  H   H270      1.0  0.93183  0.53696  0.46833  1.0000
  H   H271      1.0  0.92713  0.32107  0.41092  1.0000
  H   H272      1.0  0.87101  0.63367  0.47760  1.0000
  H   H273      1.0  0.89596  0.35951  0.46383  1.0000
  H   H274      1.0  0.71928  0.29134  0.27815  1.0000
  H   H275      1.0  0.57961  0.47701  0.28732  1.0000
  C   C153      1.0  0.60736  0.36858  0.32876  1.0000
  H   H276      1.0  0.61902  0.71124  0.35551  1.0000
  C   C154      1.0  0.98241  0.63760  0.44690  1.0000
  H   H277      1.0  0.84714  0.53588  0.36602  1.0000
  C   C155      1.0  0.66169  0.49316  0.32365  1.0000
  H   H278      1.0  0.67918  0.54188  0.30441  1.0000
  S   S34       1.0  0.63557  0.36611  0.51405  1.0000
  C   C156      1.0  0.00489  0.35306  0.29500  1.0000
  H   H279      1.0  0.77417  0.32918  0.32583  1.0000
  H   H280      1.0  0.91722  0.25743  0.34958  1.0000
  H   H281      1.0  0.86964  0.61241  0.43380  1.0000
  H   H282      1.0  0.54563  0.37083  0.31940  1.0000
  H   H283      1.0  0.81771  0.44676  0.38741  1.0000
  H   H284      1.0  0.71588  0.45829  0.34055  1.0000
  C   C157      1.0  0.86771  0.46853  0.37223  1.0000
  H   H285      1.0  0.59506  0.38410  0.35578  1.0000
  C   C158      1.0  0.90939  0.60272  0.45720  1.0000
  H   H286      1.0  0.93216  0.46358  0.41891  1.0000
  H   H287      1.0  0.98912  0.62146  0.39291  1.0000
  H   H288      1.0  0.95644  0.70436  0.43889  1.0000
  C   C159      1.0  0.63384  0.43831  0.30356  1.0000
  Fe  Fe19      1.0  0.67965  0.25815  0.48743  1.0000
  H   H289      1.0  0.77607  0.71831  0.51655  1.0000
  C   C160      1.0  0.95117  0.32507  0.48029  1.0000
  H   H290      1.0  0.61063  0.52204  0.34068  1.0000
  H   H291      1.0  0.87850  0.44580  0.34684  1.0000
  C   C161      1.0  0.74802  0.28547  0.34441  1.0000
  C   C162      1.0  0.94710  0.43955  0.39401  1.0000
  C   C163      1.0  0.98001  0.34570  0.40133  1.0000
  H   H292      1.0  0.55806  0.71381  0.31786  1.0000
  H   H293      1.0  0.95366  0.25993  0.48573  1.0000
  H   H294      1.0  0.93178  0.41960  0.51216  1.0000
  S   S35       1.0  0.57239  0.29452  0.45059  1.0000
  H   H295      1.0  0.99724  0.32767  0.37510  1.0000
  C   C164      1.0  0.93857  0.35371  0.51592  1.0000
  N   N10       1.0  0.66593  0.28435  0.33129  1.0000
  C   C165      1.0  0.68053  0.25822  0.29573  1.0000
  H   H296      1.0  0.99344  0.46670  0.37876  1.0000
  H   H297      1.0  0.02121  0.62511  0.47076  1.0000
  H   H298      1.0  0.68271  0.41678  0.28431  1.0000
  H   H299      1.0  0.89674  0.45379  0.28024  1.0000
  C   C166      1.0  0.03216  0.33696  0.46165  1.0000
  H   H300      1.0  0.95345  0.70864  0.52193  1.0000
  C   C167      1.0  0.03259  0.60161  0.41574  1.0000
  C   C168      1.0  0.53951  0.24205  0.36464  1.0000
  C   C169      1.0  0.92546  0.38966  0.28108  1.0000
  H   H301      1.0  0.03075  0.40156  0.45894  1.0000
  H   H302      1.0  0.54001  0.59529  0.65191  1.0000
  H   H303      1.0  0.54099  0.34879  0.75889  1.0000
  C   C170      1.0  0.79436  0.56595  0.55339  1.0000
  H   H304      1.0  0.73631  0.57879  0.56930  1.0000
  H   H305      1.0  0.60165  0.46797  0.62493  1.0000
  C   C171      1.0  0.55995  0.49631  0.60182  1.0000
  H   H306      1.0  0.55576  0.64473  0.60859  1.0000
  H   H307      1.0  0.58535  0.68800  0.67124  1.0000
  H   H308      1.0  0.85446  0.33235  0.66232  1.0000
  Fe  Fe20      1.0  0.01231  0.46932  0.74966  1.0000
  C   C172      1.0  0.79422  0.33521  0.65115  1.0000
  C   C173      1.0  0.57997  0.36240  0.73526  1.0000
  H   H309      1.0  0.90813  0.66117  0.64982  1.0000
  S   S36       1.0  0.02239  0.46353  0.61796  1.0000
  H   H310      1.0  0.83110  0.50220  0.56319  1.0000
  H   H311      1.0  0.75989  0.39953  0.64118  1.0000
  C   C174      1.0  0.68394  0.62108  0.76295  1.0000
  H   H312      1.0  0.99159  0.32014  0.53387  1.0000
  H   H313      1.0  0.59447  0.52414  0.57978  1.0000
  C   C175      1.0  0.74330  0.29495  0.67926  1.0000
  H   H314      1.0  0.86096  0.61166  0.58590  1.0000
  H   H315      1.0  0.86373  0.60223  0.71594  1.0000
  H   H316      1.0  0.57722  0.42733  0.73344  1.0000
  C   C176      1.0  0.87415  0.72643  0.64794  1.0000
  H   H317      1.0  0.93445  0.70271  0.58426  1.0000
  H   H318      1.0  0.54091  0.44800  0.59268  1.0000
  H   H319      1.0  0.70056  0.40404  0.70181  1.0000
  S   S37       1.0  0.93133  0.43491  0.71469  1.0000
  Fe  Fe21      1.0  0.99601  0.30750  0.74020  1.0000
  S   S38       1.0  0.57544  0.26893  0.61162  1.0000
  C   C177      1.0  0.84500  0.62320  0.55739  1.0000
  S   S39       1.0  0.58302  0.61753  0.75859  1.0000
  Fe  Fe22      1.0  0.57137  0.28868  0.55208  1.0000
  H   H320      1.0  0.78324  0.71969  0.61346  1.0000
  C   C178      1.0  0.53707  0.35773  0.70159  1.0000
  H   H321      1.0  0.53958  0.29455  0.70016  1.0000
  H   H322      1.0  0.80701  0.30273  0.62839  1.0000
  C   C179      1.0  0.85193  0.60153  0.77207  1.0000
  C   C180      1.0  0.73753  0.61733  0.73369  1.0000
  C   C181      1.0  0.79587  0.71344  0.54419  1.0000
  H   H323      1.0  0.90347  0.60587  0.54223  1.0000
  C   C182      1.0  0.82165  0.60767  0.73830  1.0000
  H   H324      1.0  0.72018  0.43733  0.75493  1.0000
  H   H325      1.0  0.78696  0.32932  0.72293  1.0000
  N   N11       1.0  0.66793  0.30951  0.74076  1.0000
  H   H326      1.0  0.56700  0.38371  0.67753  1.0000
  H   H327      1.0  0.68577  0.29609  0.66660  1.0000
  C   C183      1.0  0.72474  0.33758  0.71194  1.0000
  H   H328      1.0  0.71505  0.61761  0.70791  1.0000
  H   H329      1.0  0.88153  0.34189  0.52898  1.0000
  H   H330      1.0  0.73699  0.72624  0.55965  1.0000
  H   H331      1.0  0.83151  0.73346  0.67106  1.0000
  H   H332      1.0  0.77888  0.57210  0.52509  1.0000
  H   H333      1.0  0.68838  0.23891  0.94201  1.0000
  S   S40       1.0  0.60229  0.60240  0.93731  1.0000
  C   C184      1.0  0.79716  0.61221  0.80073  1.0000
  H   H334      1.0  0.01120  0.49557  0.91450  1.0000
  Fe  Fe23      1.0  0.53352  0.58596  0.89230  1.0000
  H   H335      1.0  0.74358  0.35840  0.83406  1.0000
  Fe  Fe24      1.0  0.98194  0.25241  0.97330  1.0000
  H   H336      1.0  0.73463  0.62492  0.97292  1.0000
  C   C185      1.0  0.63880  0.33669  0.99331  1.0000
  C   C186      1.0  0.62375  0.27906  0.93917  1.0000
  H   H337      1.0  0.76032  0.27552  0.78156  1.0000
  C   C187      1.0  0.58695  0.29548  0.97531  1.0000
  H   H338      1.0  0.94536  0.39865  0.89206  1.0000
  C   C188      1.0  0.73532  0.46839  0.93275  1.0000
  C   C189      1.0  0.83904  0.51999  0.97115  1.0000
  C   C190      1.0  0.75547  0.39954  0.80962  1.0000
  H   H339      1.0  0.69561  0.44807  0.91799  1.0000
  H   H340      1.0  0.83783  0.36052  0.93330  1.0000
  H   H341      1.0  0.74515  0.46045  0.81602  1.0000
  C   C191      1.0  0.95664  0.43328  0.86576  1.0000
  C   C192      1.0  0.75747  0.56790  0.96371  1.0000
  C   C193      1.0  0.86800  0.44473  0.96061  1.0000
  H   H342      1.0  0.70447  0.30016  0.99216  1.0000
  H   H343      1.0  0.58513  0.23679  0.99180  1.0000
  H   H344      1.0  0.58632  0.24858  0.92706  1.0000
  H   H345      1.0  0.99354  0.57246  0.87635  1.0000
  C   C194      1.0  0.70544  0.54243  0.94442  1.0000
  C   C195      1.0  0.71295  0.62165  0.79619  1.0000
  H   H346      1.0  0.82107  0.37834  0.80133  1.0000
  H   H347      1.0  0.62319  0.33684  0.92094  1.0000
  H   H348      1.0  0.01055  0.58392  0.94973  1.0000
  H   H349      1.0  0.95652  0.39613  0.84547  1.0000
  C   C196      1.0  0.81587  0.41863  0.94158  1.0000
  S   S41       1.0  0.58434  0.49219  0.85840  1.0000
  H   H350      1.0  0.82010  0.60906  0.82677  1.0000
  H   H351      1.0  0.63592  0.39622  0.97610  1.0000
  H   H352      1.0  0.97834  0.73408  0.77748  1.0000
  H   H353      1.0  0.67138  0.62537  0.81881  1.0000
  H   H354      1.0  0.65463  0.45593  0.02265  1.0000
  H   H355      1.0  0.02269  0.72384  0.94714  1.0000
  H   H356      1.0  0.78579  0.35332  0.01812  1.0000
  H   H357      1.0  0.90576  0.49038  0.85976  1.0000
  H   H358      1.0  0.87887  0.54024  0.98601  1.0000
  S   S42       1.0  0.95857  0.57184  0.77898  1.0000
  H   H359      1.0  0.65769  0.29896  0.79829  1.0000
  S   S43       1.0  0.96899  0.38389  0.97201  1.0000
  H   H360      1.0  0.63497  0.43953  0.78545  1.0000
  C   C197      1.0  0.69858  0.40373  0.77942  1.0000
  H   H361      1.0  0.94528  0.27096  0.81447  1.0000
  H   H362      1.0  0.89695  0.23591  0.87593  1.0000
  C   C198      1.0  0.69716  0.31746  0.77590  1.0000
  C   C199      1.0  0.92301  0.26193  0.26673  1.0000
  H   H363      1.0  0.63027  0.63157  0.19941  1.0000
  H   H364      1.0  0.02360  0.33555  0.20424  1.0000
  H   H365      1.0  0.65977  0.63301  0.14476  1.0000
  C   C200      1.0  0.88500  0.34428  0.26648  1.0000
  H   H366      1.0  0.64201  0.61187  0.06830  1.0000
  H   H367      1.0  0.67597  0.48881  0.18560  1.0000
  C   C201      1.0  0.64775  0.59735  0.12608  1.0000
  C   C202      1.0  0.58832  0.60387  0.21729  1.0000
  H   H368      1.0  0.55528  0.54777  0.11200  1.0000
  H   H369      1.0  0.82472  0.37329  0.25456  1.0000
  C   C203      1.0  0.66349  0.39792  0.04210  1.0000
  C   C204      1.0  0.56245  0.58035  0.13319  1.0000
  H   H370      1.0  0.69877  0.54013  0.12814  1.0000
  C   C205      1.0  0.74271  0.35110  0.16689  1.0000
  C   C206      1.0  0.75870  0.35926  0.04485  1.0000
  H   H371      1.0  0.61044  0.43484  0.21025  1.0000
  H   H372      1.0  0.90036  0.27470  0.13695  1.0000
  C   C207      1.0  0.65170  0.64563  0.08853  1.0000
  C   C208      1.0  0.97976  0.35775  0.18166  1.0000
  H   H373      1.0  0.60396  0.70550  0.08518  1.0000
  H   H374      1.0  0.77904  0.41604  0.08788  1.0000
  C   C209      1.0  0.94049  0.44886  0.17968  1.0000
  H   H375      1.0  0.92945  0.32799  0.18734  1.0000
  C   C210      1.0  0.55017  0.66065  0.24323  1.0000
  N   N12       1.0  0.54769  0.53360  0.16933  1.0000
  H   H376      1.0  0.78514  0.47436  0.04384  1.0000
  C   C211      1.0  0.80001  0.41224  0.06014  1.0000
  H   H377      1.0  0.56936  0.32998  0.26584  1.0000
  N   N13       1.0  0.61488  0.34687  0.03098  1.0000
  H   H378      1.0  0.95180  0.69903  0.20830  1.0000
  C   C212      1.0  0.62618  0.26195  0.09510  1.0000
  H   H379      1.0  0.78309  0.38988  0.15552  1.0000
  C   C213      1.0  0.02447  0.34053  0.14633  1.0000
  H   H380      1.0  0.98900  0.48123  0.17585  1.0000
  H   H381      1.0  0.56167  0.29135  0.10280  1.0000
  H   H382      1.0  0.62607  0.54662  0.23331  1.0000
  H   H383      1.0  0.59990  0.67368  0.25662  1.0000
  H   H384      1.0  0.75791  0.29722  0.15408  1.0000
  C   C214      1.0  0.65182  0.39777  0.16027  1.0000
  H   H385      1.0  0.61456  0.35392  0.16739  1.0000
  C   C215      1.0  0.62274  0.46510  0.18288  1.0000
  H   H386      1.0  0.64444  0.42280  0.13147  1.0000
  H   H387      1.0  0.71347  0.65656  0.08384  1.0000
  H   H388      1.0  0.86832  0.38541  0.05998  1.0000
  H   H389      1.0  0.90699  0.46011  0.20480  1.0000
  H   H390      1.0  0.57194  0.23557  0.22569  1.0000
  H   H391      1.0  0.89558  0.47409  0.15749  1.0000
  H   H392      1.0  0.66764  0.29305  0.10387  1.0000
  C   C216      1.0  0.63326  0.26381  0.05445  1.0000
  H   H393      1.0  0.75543  0.33043  0.19573  1.0000
  H   H394      1.0  0.67236  0.25266  0.22496  1.0000
  H   H395      1.0  0.63951  0.41633  0.06774  1.0000
  H   H396      1.0  0.77563  0.29834  0.06208  1.0000
  H   H397      1.0  0.97757  0.36377  0.12477  1.0000
  C   C217      1.0  0.60334  0.26515  0.27463  1.0000
  H   H398      1.0  0.70984  0.84824  0.49545  1.0000
  C   C218      1.0  0.67573  0.97262  0.50148  1.0000
  H   H399      1.0  0.54867  0.93756  0.45681  1.0000
  H   H400      1.0  0.65741  0.16169  0.35150  1.0000
  H   H401      1.0  0.56251  0.23264  0.29074  1.0000
  C   C219      1.0  0.74072  0.89072  0.50269  1.0000
  H   H402      1.0  0.95694  0.08899  0.45675  1.0000
  C   C220      1.0  0.56836  0.02503  0.31107  1.0000
  C   C221      1.0  0.63449  0.22356  0.35815  1.0000
  S   S44       1.0  0.86845  0.91112  0.39412  1.0000
  H   H403      1.0  0.70388  0.01713  0.50880  1.0000
  S   S45       1.0  0.99396  0.99578  0.31114  1.0000
  H   H404      1.0  0.71823  0.02431  0.41316  1.0000
  S   S46       1.0  0.90732  0.85110  0.30344  1.0000
  C   C222      1.0  0.95652  0.83216  0.51204  1.0000
  Fe  Fe25      1.0  0.00831  0.90157  0.27725  1.0000
  C   C223      1.0  0.82471  0.12378  0.45162  1.0000
  H   H405      1.0  0.71735  0.19407  0.29916  1.0000
  H   H406      1.0  0.78813  0.89951  0.48214  1.0000
  H   H407      1.0  0.57286  0.96774  0.41063  1.0000
  H   H408      1.0  0.68475  0.93511  0.30736  1.0000
  C   C224      1.0  0.91843  0.01110  0.42850  1.0000
  H   H409      1.0  0.64079  0.76099  0.31166  1.0000
  H   H410      1.0  0.65056  0.99659  0.47424  1.0000
  S   S47       1.0  0.79619  0.03780  0.29769  1.0000
  H   H411      1.0  0.57299  0.01887  0.33940  1.0000
  C   C225      1.0  0.00145  0.22452  0.28160  1.0000
  H   H412      1.0  0.53663  0.11643  0.37663  1.0000
  H   H413      1.0  0.98256  0.83435  0.45575  1.0000
  H   H414      1.0  0.83607  0.18521  0.32310  1.0000
  C   C226      1.0  0.77043  0.03876  0.42241  1.0000
  S   S48       1.0  0.81039  0.21170  0.46936  1.0000
  H   H415      1.0  0.91550  0.89531  0.50722  1.0000
  C   C227      1.0  0.90509  0.07575  0.44664  1.0000
  H   H416      1.0  0.87933  0.77309  0.49054  1.0000
  H   H417      1.0  0.62339  0.96657  0.51974  1.0000
  C   C228      1.0  0.81689  0.20320  0.34909  1.0000
  C   C229      1.0  0.75719  0.10394  0.44036  1.0000
  C   C230      1.0  0.63252  0.97835  0.29284  1.0000
  C   C231      1.0  0.90687  0.76908  0.51666  1.0000
  H   H418      1.0  0.87944  0.22183  0.39300  1.0000
  C   C232      1.0  0.59067  0.74848  0.33011  1.0000
  C   C233      1.0  0.89391  0.20880  0.36588  1.0000
  C   C234      1.0  0.85121  0.99320  0.41601  1.0000
  H   H419      1.0  0.69486  0.13947  0.44498  1.0000
  H   H420      1.0  0.66011  0.21709  0.38493  1.0000
  H   H421      1.0  0.98077  0.97509  0.42406  1.0000
  H   H422      1.0  0.79587  0.15389  0.36593  1.0000
  H   H423      1.0  0.56641  0.86125  0.34813  1.0000
  Fe  Fe26      1.0  0.88875  0.94845  0.33541  1.0000
  H   H424      1.0  0.00975  0.20116  0.43928  1.0000
  H   H425      1.0  0.94309  0.15025  0.36755  1.0000
  C   C235      1.0  0.01685  0.82343  0.48078  1.0000
  H   H426      1.0  0.55133  0.15614  0.41490  1.0000
  H   H427      1.0  0.02986  0.74089  0.37849  1.0000
  H   H428      1.0  0.03096  0.16092  0.28156  1.0000
  C   C236      1.0  0.63222  0.09480  0.77063  1.0000
  C   C237      1.0  0.61478  0.18577  0.76936  1.0000
  C   C238      1.0  0.94349  0.96794  0.72982  1.0000
  C   C239      1.0  0.88278  0.75996  0.58084  1.0000
  C   C240      1.0  0.78025  0.85870  0.54007  1.0000
  S   S49       1.0  0.93719  0.20530  0.75178  1.0000
  H   H429      1.0  0.54940  0.21523  0.76109  1.0000
  H   H430      1.0  0.62956  0.08200  0.74359  1.0000
  S   S50       1.0  0.62553  0.17806  0.52826  1.0000
  S   S51       1.0  0.01272  0.95767  0.56251  1.0000
  H   H431      1.0  0.71006  0.92652  0.76136  1.0000
  C   C241      1.0  0.81747  0.81942  0.77183  1.0000
  C   C242      1.0  0.78486  0.03474  0.63584  1.0000
  H   H432      1.0  0.86708  0.09415  0.72337  1.0000
  H   H433      1.0  0.73924  0.18352  0.74943  1.0000
  C   C243      1.0  0.73063  0.17059  0.60193  1.0000
  C   C244      1.0  0.87037  0.93150  0.74152  1.0000
  H   H434      1.0  0.91915  0.76126  0.64875  1.0000
  H   H435      1.0  0.02160  0.81255  0.75754  1.0000
  H   H436      1.0  0.84339  0.92354  0.71729  1.0000
  H   H437      1.0  0.70760  0.99888  0.67910  1.0000
  H   H438      1.0  0.73666  0.21776  0.57992  1.0000
  H   H439      1.0  0.72827  0.85991  0.55950  1.0000
  H   H440      1.0  0.82088  0.97908  0.75192  1.0000
  S   S52       1.0  0.86137  0.94116  0.64331  1.0000
  H   H441      1.0  0.59563  0.82997  0.65824  1.0000
  C   C245      1.0  0.82443  0.75849  0.61372  1.0000
  H   H442      1.0  0.88488  0.05398  0.68311  1.0000
  C   C246      1.0  0.65916  0.18214  0.62318  1.0000
  H   H443      1.0  0.91282  0.80809  0.58214  1.0000
  H   H444      1.0  0.99381  0.82248  0.53602  1.0000
  H   H445      1.0  0.59717  0.13015  0.66827  1.0000
  C   C247      1.0  0.67439  0.22094  0.74281  1.0000
  C   C248      1.0  0.65210  0.12123  0.65176  1.0000
  H   H446      1.0  0.56544  0.01028  0.57361  1.0000
  H   H447      1.0  0.59461  0.79022  0.70527  1.0000
  C   C249      1.0  0.91327  0.05395  0.70822  1.0000
  H   H448      1.0  0.78509  0.82099  0.61483  1.0000
  C   C250      1.0  0.79397  0.09729  0.60852  1.0000
  C   C251      1.0  0.96142  0.76794  0.72122  1.0000
  H   H449      1.0  0.94640  0.82198  0.69982  1.0000
  H   H450      1.0  0.97774  0.97105  0.75295  1.0000
  C   C252      1.0  0.71433  0.04699  0.65774  1.0000
  H   H451      1.0  0.84864  0.08842  0.59173  1.0000
  H   H452      1.0  0.96616  0.07972  0.70134  1.0000
  H   H453      1.0  0.80914  0.90437  0.54604  1.0000
  H   H454      1.0  0.80425  0.80657  0.74590  1.0000
  N   N14       1.0  0.89043  0.85361  0.76857  1.0000
  H   H455      1.0  0.65849  0.80398  0.76985  1.0000
  H   H456      1.0  0.66185  0.20880  0.71673  1.0000
  C   C253      1.0  0.55706  0.80965  0.68064  1.0000
  Fe  Fe27      1.0  0.98593  0.94833  0.62081  1.0000
  N   N15       1.0  0.84146  0.77535  0.54546  1.0000
  H   H457      1.0  0.98721  0.93052  0.71279  1.0000
  C   C254      1.0  0.96563  0.79157  0.75771  1.0000
  H   H458      1.0  0.78023  0.23064  0.68746  1.0000
  H   H459      1.0  0.91413  0.73524  0.72165  1.0000
  H   H460      1.0  0.55327  0.90724  0.00110  1.0000
  C   C255      1.0  0.92107  0.21945  0.82187  1.0000
  S   S53       1.0  0.83434  0.10346  0.91092  1.0000
  H   H461      1.0  0.58510  0.07201  0.78762  1.0000
  C   C256      1.0  0.86256  0.13261  0.86675  1.0000
  N   N16       1.0  0.53675  0.02304  0.96610  1.0000
  S   S54       1.0  0.01856  0.18858  0.92717  1.0000
  C   C257      1.0  0.67953  0.00130  0.99614  1.0000
  H   H462      1.0  0.00155  0.96867  0.90130  1.0000
  H   H463      1.0  0.58813  0.11541  0.97681  1.0000
  H   H464      1.0  0.62836  0.90583  0.96699  1.0000
  H   H465      1.0  0.62119  0.19385  0.79680  1.0000
  H   H466      1.0  0.68145  0.94491  0.01577  1.0000
  C   C258      1.0  0.58814  0.05232  0.98869  1.0000
  H   H467      1.0  0.74246  0.90026  0.80699  1.0000
  C   C259      1.0  0.56161  0.93143  0.97247  1.0000
  H   H468      1.0  0.90483  0.88550  0.87416  1.0000
  C   C260      1.0  0.62473  0.06808  0.86978  1.0000
  H   H469      1.0  0.97022  0.88413  0.80233  1.0000
  C   C261      1.0  0.85456  0.08829  0.84129  1.0000
  H   H470      1.0  0.83215  0.75960  0.79010  1.0000
  C   C262      1.0  0.54251  0.05977  0.92738  1.0000
  C   C263      1.0  0.62851  0.03371  0.90961  1.0000
  C   C264      1.0  0.90886  0.87193  0.80356  1.0000
  C   C265      1.0  0.54319  0.80023  0.96066  1.0000
  H   H471      1.0  0.84617  0.79948  0.84314  1.0000
  C   C266      1.0  0.90963  0.80490  0.83678  1.0000
  S   S55       1.0  0.87523  0.20161  0.98991  1.0000
  H   H472      1.0  0.68964  0.77954  0.81599  1.0000
  H   H473      1.0  0.83014  0.03685  0.84894  1.0000
  H   H474      1.0  0.61076  0.13522  0.86516  1.0000
  H   H475      1.0  0.57710  0.05091  0.85684  1.0000
  H   H476      1.0  0.68572  0.04368  0.85741  1.0000
  H   H477      1.0  0.61056  0.87164  0.79984  1.0000
  H   H478      1.0  0.61019  0.77619  0.95482  1.0000
  H   H479      1.0  0.67268  0.05819  0.92091  1.0000
  C   C267      1.0  0.87944  0.10983  0.80613  1.0000
  C   C268      1.0  0.89468  0.19890  0.85686  1.0000
  Fe  Fe28      1.0  0.96867  0.10218  0.02391  1.0000
  H   H480      1.0  0.55984  0.05538  0.01561  1.0000
  C   C269      1.0  0.72736  0.04854  0.01170  1.0000
  H   H481      1.0  0.71305  0.98322  0.97206  1.0000
  H   H482      1.0  0.65291  0.96683  0.91305  1.0000
  H   H483      1.0  0.00775  0.82304  0.86555  1.0000
  H   H484      1.0  0.72603  0.10644  0.99339  1.0000
  H   H485      1.0  0.79302  0.01215  0.01530  1.0000
  H   H486      1.0  0.86400  0.92890  0.80904  1.0000
  Fe  Fe29      1.0  0.91928  0.12878  0.94710  1.0000
  C   C270      1.0  0.91279  0.17545  0.79640  1.0000
  S   S56       1.0  0.00297  0.02357  0.98280  1.0000
  C   C271      1.0  0.73480  0.87519  0.78351  1.0000
  C   C272      1.0  0.94149  0.82465  0.86931  1.0000
  H   H487      1.0  0.87248  0.07594  0.78650  1.0000
  H   H488      1.0  0.93583  0.77892  0.89310  1.0000
  H   H489      1.0  0.69442  0.06213  0.78211  1.0000
  H   H490      1.0  0.94970  0.74491  0.83270  1.0000
  C   C273      1.0  0.66960  0.82950  0.79279  1.0000
  H   H491      1.0  0.56083  0.05282  0.20862  1.0000
  H   H492      1.0  0.88548  0.79295  0.21868  1.0000
  H   H493      1.0  0.76047  0.91471  0.14940  1.0000
  H   H494      1.0  0.70105  0.06124  0.03795  1.0000
  C   C274      1.0  0.81308  0.86401  0.10352  1.0000
  Fe  Fe30      1.0  0.82524  0.94495  0.26295  1.0000
  H   H495      1.0  0.71570  0.14299  0.10952  1.0000
  Fe  Fe31      1.0  0.62681  0.85679  0.12299  1.0000
  H   H496      1.0  0.64535  0.17437  0.14476  1.0000
  H   H497      1.0  0.95501  0.20147  0.11075  1.0000
  S   S57       1.0  0.58050  0.96728  0.14797  1.0000
  C   C275      1.0  0.56233  0.04429  0.23723  1.0000
  S   S58       1.0  0.54261  0.79100  0.15412  1.0000
  S   S59       1.0  0.75769  0.79222  0.11003  1.0000
  S   S60       1.0  0.93535  0.06828  0.08095  1.0000
  H   H498      1.0  0.87770  0.82516  0.05707  1.0000
  C   C276      1.0  0.94032  0.21187  0.13824  1.0000
  C   C277      1.0  0.99294  0.80589  0.18654  1.0000
  C   C278      1.0  0.84019  0.98054  0.11986  1.0000
  C   C279      1.0  0.90595  0.93080  0.06768  1.0000
  C   C280      1.0  0.89080  0.15358  0.15510  1.0000
  H   H499      1.0  0.00181  0.79339  0.13190  1.0000
  H   H500      1.0  0.82993  0.02286  0.13780  1.0000
  H   H501      1.0  0.65628  0.15982  0.24963  1.0000
  C   C281      1.0  0.80035  0.91945  0.12636  1.0000
  S   S61       1.0  0.87214  0.20820  0.24704  1.0000
  S   S62       1.0  0.71794  0.93809  0.23371  1.0000
  C   C282      1.0  0.63032  0.98838  0.25591  1.0000
  H   H502      1.0  0.88422  0.77179  0.17477  1.0000
  C   C283      1.0  0.65074  0.17468  0.11575  1.0000
  C   C284      1.0  0.92460  0.76464  0.19763  1.0000
  H   H503      1.0  0.83655  0.16255  0.13828  1.0000
  Fe  Fe32      1.0  0.90278  0.07508  0.26968  1.0000
  H   H504      1.0  0.92948  0.08966  0.15729  1.0000
  H   H505      1.0  0.96235  0.87191  0.17877  1.0000
  C   C285      1.0  0.89089  0.98787  0.08991  1.0000
  S   S63       1.0  0.54236  0.90797  0.07641  1.0000
  H   H506      1.0  0.86783  0.16452  0.18180  1.0000
  H   H507      1.0  0.69604  0.22534  0.04855  1.0000
  S   S64       1.0  0.92829  0.98565  0.23304  1.0000
  H   H508      1.0  0.60968  0.14051  0.10897  1.0000
  C   C286      1.0  0.86751  0.86834  0.07465  1.0000
  H   H509      1.0  0.94671  0.93492  0.04506  1.0000
  H   H510      1.0  0.59002  0.23068  0.04864  1.0000
  H   H511      1.0  0.00384  0.19719  0.18779  1.0000
  C   C287      1.0  0.02058  0.19669  0.15929  1.0000
  H   H512      1.0  0.03144  0.79549  0.21026  1.0000
  C   C288      1.0  0.62761  0.22623  0.24171  1.0000
