data_image0
_chemical_formula_structural       NC4HCHC3H2FeH4FeCHCHCH3NCHCH8CSH2SHSHC4SC2HCSHSHSCH3FeH3SNFeH2CH3C2HC2HSC2H2SCNH5C2H2C2HC4HCHC2SH5C3H3CHSH3SC2H2CH4CH6CFeCH3SH3CHCH2CHNCH4CH3S2H4CHCHCH2CH6NH4SH4CHCHC4HCH3CHFeH3CH4CHCHCHFeSH4C3H2NC2HCHCH2FeHC2H6C3H3CHFeHCH2CHC4H2SHC2H2CH2CHCH6C3H3CH2CH2CHCFeSH6C2H3CHFeHC2S2H2C2H3C2FeSCHSH2CHFeH2C2H4CSFeC2H2CH3S3CH5C2H4CH2CHC5H2CHNHCH3C2HSCHC2H3C2H12C2H5S2CH6C2H2C2H3CHCH3SCH4SC2H3SH2C3H4CH9CH3C2HC3FeCHCH6SH9FeC2H3CH4CHCHCHCH2C2H2CHC3FeH2CH5CH4CSHCHSCHSH2CH2NH3SHC2H2CH2C2H2CHC3HSC2HFeSCHSCHC2SCH2CFeCNCHCH3CHCH4CH2CSCHCHC2HSCHCH2CHNC3HCHC2H3SC3FeSFeH2CH2CHNH6SH2FeNHCH3FeNSCS3CH4CH2FeH4CHCHSH2C2HC2HC2H4CH3FeCHC2H3CHCHC3HCH5C2HCH3CH2C2HC3H5CH5FeHC2HSHNHCSHC4HSHS2CH3C3SHC3HC2H3FeH2CH2CH5FeNCSFeCSHCHCHC2H2SH9CHCH4CHC2H5FeC2SFeH2CNHNC5H2CHCHCHFeCSHCSHCH4CH2FeSH2CHC2H2CHSHCHCH3CH3FeCH2SCH2C2HC2H2C2NHFeHCHC3FeH11CH2CH6C2HS2HCH2CSCH7CH3SHCHCH3CH2CS2FeC2HNCHCH2CHSCH9CH2C2H7FeHC2SCH2CH3SFeHCH4NH2C2H5C4HC2SNH3SHSCH3CH2CH2CSH4CHC4HC2HC2H3CH2C6H3C2SNHC2H3C2H3FeC2HC2H4CHCHCH2CHC3H3C2H3SH3C2HC2NHCHC2HCH2CHCH5CH4SHCH3CHSCSHC3H5CH2CSHCHCH3FeH2SH3FeH2CFeHFeCHSHCHCH3SFeCFeC2H2NHC2H2CHCH2CFeC2H5CH3SCHC2H4C2FeC2H2FeCHC2SHCNHCH4C4HCSH3SH5CH5CSHCH3CH5CHCFeC3H2CS2HCH6CH4SHFeHC2H2SH2SH5CH2FeCH2FeC3H4C2H5SH3CH3CH2SH2C2HC2HC2HSH2SCHCH3CSH2C2HC2H3SHCHCHFeH7SHCHCH2NHSC6HCHSC2HCSC2H2CHC4H5FeHC2HSCHC3HCH4NHCH6SH6NCH2CHSHCH4SC3H2C2FeCNH2FeH3CHS2CSNH5CH4C2H6CHCH2CHSCHC2H6CHSH7NFeSC3H3CH2CH2SCHCHCH2C3HCHCHSCHSHCH2CH3C2FeCH2FeCHCSHC3H8CSCHCH2NH4C2HSH5SH4C2H10CH3SH2FeH3C4HC2H2C4SHC2H2NS3H4CFeCSH2NHC2H3C2HCHCSHCHCH3SCHSCH2CHCH2CHFeC2HCSH2FeH3C2H2SCSHC2SH3C4FeC2H10CH3CH6C2H3FeSHFeCSHC2H3C2HCHC2H3CFeHCHCH2CHFeH6C2SHCH2CH3CH2CH3CSC2HNC2HCH3NHCSH4C2H4NC5H2CHC2HCH4CHCFeSC4H2FeC2H3FeHC2H3CSCH2FeH2CH2C2HSCH3CH2CHCHCHSH2CH7CH2SCNH3CH4CHC3H2C4HC3H2S2H2SH3SCH2CH3FeC2H3CH7C2H8CH3CHCH3FeH5CHCSHFeH3CHCH2SC2HC2FeHC2H2C3HCH2CSH2CHCSH3C2HCH3FeH2CH2CHCSFeHC2H4CH2CH2CH6CNHSHC3H3FeH2SHSCHC3H4CFeH3CH2CH3CFeH12CH2SHC2HC2H3CHC3H2C2HCHCHSCH3S2C2H2NHC2H2C3HCHCHSH5CH2CH2FeCHSCH6CNC2SH3CFeH2CH3CH2C2H3C2H2CH3CHSCHC2H4CH2C4FeCHSCHCHCHCHCHCHCH9CFeHCH6CH2SHCHC2SFeSCSHS2H12CHC2H4CH3CH2CHSH2CHCFeH5CH4CSHCH6CH2S2C2HFeCH5C2H4CH3C3H4NCH2CHNC3HFeHCH2C4HC3HCH3SHCH2SC3H2CH3SH5CH3C2HCH2C4H2FeH2CSHC4HCSHCFeH2C2H2CH2C3HCSC3H6CHC2HNCHNHCHFeSH13SH3CHCSCH6SCH4CSHCH3CH5CHCH2SHCSCH2CH2C2H3CSCSHC3S2H2FeH3FeH3CH10CH3CHCHSC2H2CHSH6CSHCSH2C3HC2H2FeCHSCSFeH3C2HCH2CHCHCH2CH2CH3C3HFeCHCNCHNCFeH3C3H3C2H2CHSCHSH3C2H2CHC3SH3CH2C5HSH2CHCH5C3HSH2CHCHSHFeC2H4CHSH3CH2CH3CH7FeCHC2HC3H2CHCHCH2CH3C2SH3CHC2HCH6CHCSC2H2SCNCH3C2HC2H4SHC2H4C4H3CSCH2CH3NC3HCSCH11CHCHSH3C2HCHFeNC3NHCH8CH3CHC2H2CNHCHC4HFeH5SC2HFeC2SCH3CHC2H2SHCFeH2CSH4CHCSH8C2FeSH3CH5CSH5CH3FeHCHCHCSHFeHSH3C3H2NC2HFeCH6CHSHSH3SC2HCH3CHCH9C3H5CFeH3C2FeH7CH4C2H2SHCH2CH4CFeH2C2HCH2CH7CHNHC3HSCH3CH4NH2NH2CHSH2SCH2CSHCH2C4HSHSHSH2CFeHCHCH2CFeHCHCH2SCHCHSH6NH3CFeHCHCH4CSHCH4SH6C2HSCH2CHC3HCHC3HCHCFeH4C2H4SC3HCH2CH4CH2NH3C2NCSFeSH4CSNCH4CSFeCH2NC3H4FeCHSH5C2HCHC2H3SHCSHCFeC2HCH5CSHFeHCHCHCH7C2HCH2CHCFeC3H2FeC2HC3HC4H2FeHSFeCHCH3CHSCFeH2CH3CHC2H3CHC2HCHSH4FeHSHC2HSCSHSCHSH2SC2SC3HCHCH2C2HC2SCH6CH4CH2CH6C4H3C3H3CHNHSH2CH2CH4CHC2H3CSC2H6CH5CFeHSH4SC2FeCHCH7CH10SH2C2H2CH4FeH2FeH2NHC3HSFeC2H2FeH3C4H2CH8CH3C2HC2HCH2CFeCH6SHCHSHFeSCH3C4H5CHC2H3CH3C3H2FeHC2SHCHCHSCH4FeCSH2CHCHC2NH3CH5C3H2FeHCH3FeHCH4CNHCHSCHSCNHCH2NFeH2C3SHC4H2CH3FeC2HCH2C2H2C2FeNH4S2CH9C2HCHCH3C2H3CHSH3SH3SC2HCHNCH6CH3SCHFeH4SCH3SFeHCSH3S2H2C3HCHCH3CH3CHNC2H2CHFeH3CHNC2H3SHCHCSH4CHSH4SHC2HCHC2H2FeHCH3C2H2CFeHCHCH5C3HCHC2HSHC2FeH4CHSCHCSCH4SC2HC2HC3SH4C2H2CHCSCH2CS2CS3H2CH2CSHC2HSCH2CHCFeHC2H2SC2HCH5C2H2C2HCH3FeHFeCHFeH2CH2SHSHCH2FeH3CHCH18CSH3C2HCHCH2CHC2HCHCH4CH3CH7CH5FeH3CH3C2H2SCH2SH2CH3C3H4C4SH5C2H3CHCHCFeCH5CHCH3CNH3C2H3CH5SH2CH2SCSHC2HCH5CFeH2CSHS2CHCH3CH3C2SCH3SHSCSH2C2H2NH4C5HCH2CHFeCH2CH6FeSH5CFeHSFeSHCH4CH2FeHC3HCHC3H4C2H4CH2C2H2CH3NCNHFeHCHCH3C4H3CH2SCH3CHSHC4HC3H4CH2CHCH4SHFeHC2H5C2H3C2H3CH5CHCFe2C3HC3HNS2H2CNHSNH2C2H9C2H2SH3CH2C2HC3H7CH3C2FeSH3CSHC3HCHCH2SH2CHFeSH2CH4CHCHC3SCFeH6SH7CHC2FeHCH4CHCHCH2CHCFeHCH2CH4CH2CHNHC4H4CH3C3H3FeH5SH5CHCH2CH15CSCH3CHSH2C2HCH4C2HCHCHC3H2CH2CHC2NCFeHS2HCH6CH2SCH4CHCH3CHCH2SCHCH3CHCSHCH3CH2C2FeHCHCH3C2H2SH3CFeCH2SH2FeH2CHSH7C3SH5NHCHC2SH2CSC6H2CNHSHCHNHC2HC2H3C3FeH2C2SH6CFeH2CH6CHC2H2C2SHC4H3CHCNCFeHC2H5SCHFeH2C2HCH2CH3CSHNH2CHCH10CH2CHCH3CH3CH3SCHCH2CHCSH2SFeH2CNCH2SC2HCHC3SCHCSFeH2SH2CHSCFeCHSHSHCHC2H2CH3C4HC2FeH2C5H2CH2CH4C2H2C2HC2H6CHSH6CHCHSH9CHSHSC2HCH4CNC2NH2CHCFe2H2C4HFeHS2H5CH2CH2C2H2CH5CHNH2CHCHSH2CH4CH5C2H2CHC2HC3SC2HC4H6NH6SHCH2CH3CH3CHFeCH2SH2SCH2CHC2FeHCH4CHFeH3FeC2H2C2H2CHC2HCHNH3FeHCSHCH3SCHCH6CHCHCH2SCH5SCH4SCFeH2CH3C3H3C4H2SHCH2SCH2SH2CHCSH3FeC2H3CHCHCH2C3H3SCH4NH3SHCHNHNHC3H2CH5C2H3NCH4CFeC2H2CH3CH5C2HCSCHCHCH2CHC2H2FeSHSCHSC2HSH3CHCH2FeCH3C3H3NH3CH3CH5SC2NHS2HC2HNHC2HCH2C2HC2SH3CH3C4HFeHCH4FeHCHFeH2CH3C3H5NCHS2H2CH4FeH4C2H2CHCH2CH3C3SHCH3FeH3CH2CHCHCH3CHSH2C2H4SCNH2CSH2SFeSHCNH2CHC3H2CSC2HSHCHCHSH4C2HCH2CHSH4CSC2H3CH2CHC2FeCHCHC2HCHNH2CHC3HCHCH2CH2SHFeHC2H6CNC2H5CH2CHC2SH5SH4SH3SC2H2C6HNFeNH2C4HCH3CH2SC2HCHCH11CHCH2C2H3C2H2C2NS2CHC2FeH4CHC2H4SHC2HS2CH6CH3CH3CFeHCH3SCFe2H3CHCFeH4CFeC3HC5H3CH3CSCH2CS2HSCHC3HCH3SH3CH2CHNH3CHSH4Fe2CH5C2HSCH3C2H6C2HCH2CHC2H2FeH4FeHSHC2H2CSHCH2CH2CHCSH4SHSHCHC2H5C2HSH3C2H3SH2CFeHC2H2C3H2SCH2CSCHFeH3CH2SH2CH6C3FeH2CH2C2H2NH2NC2H9C3H4CH2C2H2FeHC3HCH2CSHCHCHC3S2C2HCH2CH3CHCH2CHSHSH2CH5C2HCHCHSH2C2SCH4CH2C2H3CHCH2NH3CH5C2HFe2CH4CHC2HC2H2CH3CHCH2CH4CH3CH5C2H3SH6SHC2H5CH3NC3HC5HSCHCH4CH2CH4C3H2SCHSH2CSCH2CHC2H2C3HSH3CH2SHC2H2CHCH7CH2CHC2HCH3CFeCFeSCFeH8FeHNCH4CH2C2N2H2CHC2H2SHCH5NC2H2CHSCHCHC2H5SCFeH3CHC2HC2HCHSHCH4C2FeH2SHC2HCFeCH2CHC2HCHCH2C2H4CHSHC2HCH4CH12CH2CH5CH3SHCHC2H3FeCHCHCH2C5FeH6CSHNHCH2CHCH3C2HCHC3HCHFeH2CSFeHCSC3HCSHC4HFeHFeH7CFeHCHCH4C2H2C2HCHCSH2SHSCSHC2HCSH2FeHFeHC3H3CHC2H2CHCH2CH2SHCH2SNH4CFeHSH3C2H2FeCFeHCS2CHCSHCH3CNH3SH2CH2CHCHSHSHC2HC2FeS2CH5CH3CH2C6H4CNC2H2CHCH4CH2NHSH4SH5CHCHCHCHFeH2CH4CFeHC2H2CH6CH4CHSFeH2C2SCH2CHC2NCSH2NC2H2CH2CNH7CH4SCSH2SCH6CFeHFeCH3SFeH4CH3CH2CH4NHCHFeHSHC3SC2H3CHCH2CSHSH3CH3CH6SH2CH2CHCHCHCHSHCSHCH6CFeH2CH4CH2CHC2FeCSCHCHFeS2CHC2H2CH3SH2CHSH6CH3CH5C4H4C2HFeC2H2CSHC4H6C2H8CHCH2CH2CHCHCSC2HC4H5SCHCSH2CHCSH4C2HCHSHCH4CS3H2C2HSH4CHCHC3HC3HCSC4H7Fe2CH3CHC2H3CH2NHC3HCHC2SHCH8SHC3HCH2CH6SH2SFeC2H2C2H3NFeHCHCFeCHC2HFeC2HNCSH6NH5CH7C2HCH2C2HC2HFeHCHSHSHSC2H3CH6CHSHNFeHC4H2NHCH2FeC3H4CFeCHCHC2H3FeCSCH2CH3FeH2CSHCH2C2H2CH3CHNHC3SCHC2H
_chemical_formula_sum              "N132 C2376 H4224 Fe264 S528"
_cell_length_a       69.8848
_cell_length_b       68.8208
_cell_length_c       29.5145
_cell_angle_alpha    70.9017
_cell_angle_beta     74.664
_cell_angle_gamma    116.755

_space_group_name_H-M_alt    "P 1"
_space_group_IT_number       1

loop_
  _space_group_symop_operation_xyz
  'x, y, z'

loop_
  _atom_site_type_symbol
  _atom_site_label
  _atom_site_symmetry_multiplicity
  _atom_site_fract_x
  _atom_site_fract_y
  _atom_site_fract_z
  _atom_site_occupancy
  N   N1        1.0  0.17254  0.16229  0.64299  1.0000
  C   C1        1.0  0.08985  0.96434  0.98499  1.0000
  C   C2        1.0  0.19786  0.14374  0.64217  1.0000
  C   C3        1.0  0.01970  0.09284  0.95647  1.0000
  C   C4        1.0  0.26141  0.96964  0.83957  1.0000
  H   H1        1.0  0.10043  0.12431  0.80538  1.0000
  C   C5        1.0  0.06345  0.12708  0.89614  1.0000
  H   H2        1.0  0.09295  0.96409  0.88438  1.0000
  C   C6        1.0  0.29148  0.93036  0.57323  1.0000
  C   C7        1.0  0.94451  0.08607  0.58505  1.0000
  C   C8        1.0  0.03648  0.07043  0.87578  1.0000
  H   H3        1.0  0.05643  0.04217  0.65972  1.0000
  H   H4        1.0  0.27475  0.02785  0.79500  1.0000
  Fe  Fe1       1.0  0.11018  0.07809  0.87849  1.0000
  H   H5        1.0  0.97276  0.12669  0.84314  1.0000
  H   H6        1.0  0.29655  0.97804  0.79375  1.0000
  H   H7        1.0  0.11585  0.97351  0.57935  1.0000
  H   H8        1.0  0.29780  0.04632  0.86109  1.0000
  Fe  Fe2       1.0  0.34690  0.96104  0.62629  1.0000
  C   C9        1.0  0.16019  0.15199  0.61332  1.0000
  H   H9        1.0  0.07139  0.07621  0.68967  1.0000
  C   C10       1.0  0.26688  0.95714  0.58515  1.0000
  H   H10       1.0  0.05966  0.14401  0.82348  1.0000
  C   C11       1.0  0.12428  0.09592  0.58713  1.0000
  H   H11       1.0  0.19930  0.08723  0.57082  1.0000
  H   H12       1.0  0.13182  0.04428  0.57189  1.0000
  H   H13       1.0  0.08905  0.03639  0.66339  1.0000
  N   N2        1.0  0.25244  0.92940  0.60260  1.0000
  C   C12       1.0  0.95140  0.09989  0.64967  1.0000
  H   H14       1.0  0.24510  0.95504  0.65858  1.0000
  C   C13       1.0  0.23954  0.92669  0.77312  1.0000
  H   H15       1.0  0.00960  0.01620  0.61234  1.0000
  H   H16       1.0  0.04588  0.01637  0.64832  1.0000
  H   H17       1.0  0.27566  0.96945  0.53984  1.0000
  H   H18       1.0  0.33558  0.92626  0.93440  1.0000
  H   H19       1.0  0.22907  0.98298  0.78326  1.0000
  H   H20       1.0  0.06886  0.08931  0.92007  1.0000
  H   H21       1.0  0.41061  0.98434  0.81352  1.0000
  H   H22       1.0  0.99803  0.02935  0.67824  1.0000
  C   C14       1.0  0.09902  0.95399  0.59765  1.0000
  S   S1        1.0  0.04390  0.15029  0.64270  1.0000
  H   H23       1.0  0.13470  0.02399  0.54894  1.0000
  H   H24       1.0  0.30857  0.06972  0.92276  1.0000
  S   S2        1.0  0.09277  0.16069  0.55557  1.0000
  H   H25       1.0  0.13419  0.10526  0.54305  1.0000
  S   S3        1.0  0.17727  0.96625  0.70992  1.0000
  H   H26       1.0  0.04168  0.03989  0.58679  1.0000
  C   C15       1.0  0.94361  0.04245  0.79353  1.0000
  C   C16       1.0  0.95317  0.11792  0.67185  1.0000
  C   C17       1.0  0.26273  0.02250  0.97194  1.0000
  C   C18       1.0  0.96820  0.05813  0.75257  1.0000
  S   S4        1.0  0.18727  0.92769  0.81766  1.0000
  C   C19       1.0  0.12203  0.07755  0.67562  1.0000
  C   C20       1.0  0.97490  0.05453  0.70870  1.0000
  H   H27       1.0  0.25168  0.99598  0.89350  1.0000
  C   C21       1.0  0.11779  0.97338  0.69140  1.0000
  S   S5        1.0  0.08180  0.03906  0.95304  1.0000
  H   H28       1.0  0.00221  0.16758  0.75008  1.0000
  S   S6        1.0  0.97892  0.92723  0.86215  1.0000
  H   H29       1.0  0.94193  0.08070  0.68593  1.0000
  S   S7        1.0  0.08929  0.10036  0.57209  1.0000
  C   C22       1.0  0.17647  0.04514  0.82291  1.0000
  H   H30       1.0  0.41318  0.03715  0.53526  1.0000
  H   H31       1.0  0.19946  0.02588  0.92263  1.0000
  H   H32       1.0  0.17959  0.00353  0.62539  1.0000
  Fe  Fe3       1.0  0.18358  0.93838  0.88140  1.0000
  H   H33       1.0  0.13150  0.93265  0.55285  1.0000
  H   H34       1.0  0.96472  0.09591  0.56296  1.0000
  H   H35       1.0  0.23232  0.02071  0.89081  1.0000
  S   S8        1.0  0.36113  0.99339  0.64097  1.0000
  N   N3        1.0  0.24961  0.00127  0.96213  1.0000
  Fe  Fe4       1.0  0.16543  0.94155  0.79790  1.0000
  H   H36       1.0  0.15764  0.03419  0.85716  1.0000
  H   H37       1.0  0.29795  0.02704  0.93902  1.0000
  C   C23       1.0  0.07737  0.95553  0.59834  1.0000
  H   H38       1.0  0.06818  0.10537  0.98503  1.0000
  H   H39       1.0  0.26269  0.98083  0.99940  1.0000
  H   H40       1.0  0.02854  0.03123  0.75216  1.0000
  C   C24       1.0  0.03535  0.94059  0.96458  1.0000
  C   C25       1.0  0.09652  0.96894  0.84208  1.0000
  H   H41       1.0  0.14998  0.99412  0.95123  1.0000
  C   C26       1.0  0.98216  0.01432  0.83370  1.0000
  C   C27       1.0  0.42625  0.97658  0.90928  1.0000
  H   H42       1.0  0.16657  0.06302  0.61043  1.0000
  S   S9        1.0  0.03772  0.11096  0.59923  1.0000
  C   C28       1.0  0.10161  0.09153  0.61260  1.0000
  C   C29       1.0  0.11523  0.14266  0.76660  1.0000
  H   H43       1.0  0.06643  0.92684  0.99902  1.0000
  H   H44       1.0  0.08873  0.06256  0.74522  1.0000
  S   S10       1.0  0.30770  0.00047  0.68003  1.0000
  C   C30       1.0  0.24396  0.98232  0.78558  1.0000
  N   N4        1.0  0.04379  0.09938  0.91883  1.0000
  H   H45       1.0  0.37521  0.93260  0.75202  1.0000
  H   H46       1.0  0.04490  0.14538  0.88111  1.0000
  H   H47       1.0  0.02121  0.09798  0.98807  1.0000
  H   H48       1.0  0.18562  0.08188  0.81124  1.0000
  H   H49       1.0  0.38208  0.96356  0.98726  1.0000
  C   C31       1.0  0.25228  0.96523  0.61356  1.0000
  C   C32       1.0  0.14465  0.92850  0.62861  1.0000
  H   H50       1.0  0.01977  0.16637  0.58770  1.0000
  H   H51       1.0  0.14769  0.00881  0.61666  1.0000
  C   C33       1.0  0.34576  0.92935  0.89383  1.0000
  C   C34       1.0  0.01632  0.03315  0.66315  1.0000
  H   H52       1.0  0.40213  0.99084  0.86666  1.0000
  C   C35       1.0  0.95692  0.10669  0.87480  1.0000
  C   C36       1.0  0.26430  0.00710  0.90554  1.0000
  C   C37       1.0  0.95680  0.95017  0.75042  1.0000
  C   C38       1.0  0.12916  0.94890  0.74174  1.0000
  H   H53       1.0  0.28241  0.96242  0.59412  1.0000
  C   C39       1.0  0.12688  0.95717  0.96255  1.0000
  H   H54       1.0  0.20858  0.14842  0.76800  1.0000
  C   C40       1.0  0.07513  0.01547  0.68939  1.0000
  C   C41       1.0  0.17828  0.01571  0.76454  1.0000
  S   S11       1.0  0.09603  0.97864  0.68649  1.0000
  H   H55       1.0  0.18413  0.03427  0.83226  1.0000
  H   H56       1.0  0.16505  0.02281  0.69188  1.0000
  H   H57       1.0  0.94934  0.16997  0.66984  1.0000
  H   H58       1.0  0.35722  0.95000  0.86288  1.0000
  H   H59       1.0  0.98371  0.12281  0.68600  1.0000
  C   C42       1.0  0.39813  0.97125  0.99412  1.0000
  C   C43       1.0  0.03817  0.16831  0.98838  1.0000
  C   C44       1.0  0.97805  0.95550  0.90818  1.0000
  H   H60       1.0  0.14772  0.03389  0.71117  1.0000
  H   H61       1.0  0.99382  0.06612  0.67784  1.0000
  H   H62       1.0  0.93983  0.13802  0.95939  1.0000
  C   C45       1.0  0.12516  0.93303  0.62855  1.0000
  H   H63       1.0  0.01797  0.05400  0.91043  1.0000
  S   S12       1.0  0.36487  0.96727  0.54198  1.0000
  H   H64       1.0  0.16575  0.02975  0.99745  1.0000
  H   H65       1.0  0.95371  0.09686  0.74459  1.0000
  H   H66       1.0  0.02997  0.09937  0.86071  1.0000
  S   S13       1.0  0.12245  0.11402  0.87992  1.0000
  C   C46       1.0  0.02224  0.05500  0.56751  1.0000
  C   C47       1.0  0.03787  0.07077  0.82301  1.0000
  H   H67       1.0  0.29273  0.05601  0.99654  1.0000
  H   H68       1.0  0.09418  0.94419  0.64145  1.0000
  C   C48       1.0  0.36914  0.94330  0.55451  1.0000
  H   H69       1.0  0.99688  0.02167  0.84450  1.0000
  H   H70       1.0  0.02054  0.99004  0.56949  1.0000
  H   H71       1.0  0.17063  0.00003  0.75606  1.0000
  H   H72       1.0  0.06354  0.13084  0.92997  1.0000
  C   C49       1.0  0.09910  0.07267  0.70115  1.0000
  H   H73       1.0  0.93847  0.12290  0.54760  1.0000
  H   H74       1.0  0.42848  0.97946  0.54380  1.0000
  H   H75       1.0  0.18745  0.99299  0.94866  1.0000
  H   H76       1.0  0.00497  0.98555  0.68274  1.0000
  H   H77       1.0  0.13759  0.00172  0.84694  1.0000
  H   H78       1.0  0.18730  0.05447  0.59290  1.0000
  C   C50       1.0  0.17107  0.13279  0.82088  1.0000
  Fe  Fe5       1.0  0.05712  0.15297  0.56185  1.0000
  C   C51       1.0  0.41416  0.01942  0.78705  1.0000
  H   H79       1.0  0.96946  0.99332  0.86037  1.0000
  H   H80       1.0  0.13537  0.12702  0.75932  1.0000
  H   H81       1.0  0.16545  0.11352  0.84106  1.0000
  S   S14       1.0  0.21496  0.95519  0.89708  1.0000
  H   H82       1.0  0.20464  0.12936  0.70922  1.0000
  H   H83       1.0  0.03749  0.06325  0.96559  1.0000
  H   H84       1.0  0.05553  0.95490  0.94137  1.0000
  C   C52       1.0  0.25178  0.07184  0.99460  1.0000
  H   H85       1.0  0.05016  0.01513  0.75038  1.0000
  C   C53       1.0  0.97194  0.97626  0.74401  1.0000
  H   H86       1.0  0.98379  0.96436  0.56179  1.0000
  H   H87       1.0  0.93707  0.94246  0.76902  1.0000
  C   C54       1.0  0.04967  0.00860  0.72069  1.0000
  H   H88       1.0  0.23656  0.96129  0.60605  1.0000
  N   N5        1.0  0.10442  0.94053  0.57048  1.0000
  C   C55       1.0  0.95718  0.03524  0.70581  1.0000
  H   H89       1.0  0.42378  0.93859  0.59179  1.0000
  H   H90       1.0  0.17475  0.00615  0.80737  1.0000
  H   H91       1.0  0.07760  0.07397  0.99683  1.0000
  H   H92       1.0  0.97168  0.02219  0.84159  1.0000
  C   C56       1.0  0.18465  0.06721  0.60467  1.0000
  H   H93       1.0  0.00252  0.04283  0.74804  1.0000
  H   H94       1.0  0.15231  0.09297  0.59847  1.0000
  H   H95       1.0  0.25589  0.93676  0.73282  1.0000
  S   S15       1.0  0.38886  0.98217  0.73457  1.0000
  S   S16       1.0  0.02779  0.94243  0.72830  1.0000
  H   H96       1.0  0.16328  0.94598  0.59625  1.0000
  H   H97       1.0  0.18401  0.07721  0.66615  1.0000
  H   H98       1.0  0.21574  0.05038  0.72774  1.0000
  H   H99       1.0  0.19081  0.06529  0.86232  1.0000
  C   C57       1.0  0.02290  0.03467  0.60701  1.0000
  H   H100      1.0  0.08195  0.13186  0.87353  1.0000
  C   C58       1.0  0.11344  0.98335  0.97104  1.0000
  H   H101      1.0  0.09195  0.93710  0.76707  1.0000
  C   C59       1.0  0.20630  0.03318  0.72515  1.0000
  H   H102      1.0  0.95589  0.10300  0.91525  1.0000
  H   H103      1.0  0.06979  0.98181  0.55962  1.0000
  C   C60       1.0  0.08913  0.08013  0.66963  1.0000
  H   H104      1.0  0.95415  0.03820  0.95463  1.0000
  H   H105      1.0  0.12989  0.97189  0.81635  1.0000
  H   H106      1.0  0.02849  0.94197  0.93468  1.0000
  H   H107      1.0  0.03264  0.97384  0.55045  1.0000
  H   H108      1.0  0.26005  0.96051  0.87901  1.0000
  H   H109      1.0  0.23735  0.95627  0.96284  1.0000
  N   N6        1.0  0.16515  0.02808  0.76039  1.0000
  H   H110      1.0  0.25779  0.99888  0.61342  1.0000
  H   H111      1.0  0.41916  0.03487  0.79630  1.0000
  H   H112      1.0  0.14325  0.96290  0.54444  1.0000
  H   H113      1.0  0.96261  0.95168  0.70981  1.0000
  S   S17       1.0  0.06050  0.11336  0.68315  1.0000
  H   H114      1.0  0.21435  0.97937  0.96682  1.0000
  H   H115      1.0  0.19441  0.13868  0.61171  1.0000
  H   H116      1.0  0.93729  0.05116  0.96664  1.0000
  H   H117      1.0  0.19503  0.06612  0.73449  1.0000
  C   C61       1.0  0.28350  0.99050  0.74034  1.0000
  H   H118      1.0  0.30014  0.02826  0.80016  1.0000
  C   C62       1.0  0.08470  0.94160  0.98813  1.0000
  H   H119      1.0  0.26141  0.92911  0.81273  1.0000
  C   C63       1.0  0.28197  0.97935  0.79140  1.0000
  C   C64       1.0  0.43312  0.94981  0.72034  1.0000
  C   C65       1.0  0.94250  0.04788  0.58800  1.0000
  C   C66       1.0  0.11103  0.95150  0.73593  1.0000
  H   H120      1.0  0.17540  0.07564  0.00873  1.0000
  C   C67       1.0  0.14837  0.16309  0.53883  1.0000
  H   H121      1.0  0.27224  0.04490  0.85717  1.0000
  H   H122      1.0  0.25669  0.05889  0.99198  1.0000
  H   H123      1.0  0.13263  0.14344  0.55571  1.0000
  C   C68       1.0  0.01149  0.01577  0.75690  1.0000
  H   H124      1.0  0.32032  0.97435  0.98840  1.0000
  Fe  Fe6       1.0  0.07822  0.15521  0.63937  1.0000
  H   H125      1.0  0.03231  0.96643  0.98582  1.0000
  H   H126      1.0  0.97039  0.10590  0.62654  1.0000
  H   H127      1.0  0.16014  0.12437  0.69953  1.0000
  C   C69       1.0  0.02844  0.98415  0.87189  1.0000
  H   H128      1.0  0.17244  0.15114  0.58253  1.0000
  H   H129      1.0  0.25051  0.01796  0.01275  1.0000
  H   H130      1.0  0.32128  0.92725  0.54386  1.0000
  H   H131      1.0  0.43017  0.96439  0.93413  1.0000
  C   C70       1.0  0.16048  0.98897  0.65616  1.0000
  H   H132      1.0  0.04989  0.06710  0.88206  1.0000
  C   C71       1.0  0.05330  0.08572  0.99851  1.0000
  H   H133      1.0  0.12099  0.12710  0.71684  1.0000
  C   C72       1.0  0.98853  0.97394  0.92195  1.0000
  H   H134      1.0  0.27606  0.00506  0.54749  1.0000
  Fe  Fe7       1.0  0.07233  0.11827  0.59957  1.0000
  S   S18       1.0  0.34588  0.93549  0.69929  1.0000
  H   H135      1.0  0.21521  0.01356  0.78102  1.0000
  H   H136      1.0  0.99295  0.93844  0.99666  1.0000
  H   H137      1.0  0.23787  0.03205  0.70942  1.0000
  H   H138      1.0  0.02916  0.05258  0.65507  1.0000
  C   C73       1.0  0.17910  0.06131  0.01195  1.0000
  C   C74       1.0  0.13879  0.00862  0.80584  1.0000
  C   C75       1.0  0.13159  0.13844  0.73175  1.0000
  H   H139      1.0  0.08669  0.95098  0.84213  1.0000
  H   H140      1.0  0.21588  0.16243  0.62123  1.0000
  N   N7        1.0  0.01692  0.01414  0.70555  1.0000
  C   C76       1.0  0.13459  0.08915  0.61847  1.0000
  C   C77       1.0  0.06124  0.14680  0.85760  1.0000
  H   H141      1.0  0.14407  0.13174  0.64156  1.0000
  C   C78       1.0  0.18592  0.06346  0.65750  1.0000
  H   H142      1.0  0.97349  0.16234  0.88072  1.0000
  C   C79       1.0  0.10335  0.93827  0.97561  1.0000
  H   H143      1.0  0.16171  0.05137  0.53618  1.0000
  H   H144      1.0  0.24208  0.95741  0.52804  1.0000
  Fe  Fe8       1.0  0.06585  0.02970  0.89991  1.0000
  H   H145      1.0  0.20430  0.06835  0.64993  1.0000
  C   C80       1.0  0.16193  0.16328  0.81192  1.0000
  C   C81       1.0  0.40816  0.93457  0.73618  1.0000
  H   H146      1.0  0.02064  0.15732  0.72866  1.0000
  H   H147      1.0  0.04791  0.99534  0.85707  1.0000
  H   H148      1.0  0.37585  0.93226  0.90469  1.0000
  H   H149      1.0  0.21412  0.12337  0.65542  1.0000
  H   H150      1.0  0.16548  0.05882  0.76519  1.0000
  H   H151      1.0  0.93835  0.04514  0.82760  1.0000
  C   C82       1.0  0.19970  0.12411  0.68015  1.0000
  C   C83       1.0  0.12680  0.94264  0.57120  1.0000
  C   C84       1.0  0.21785  0.01932  0.73877  1.0000
  H   H152      1.0  0.18145  0.14887  0.70550  1.0000
  H   H153      1.0  0.96254  0.05780  0.57282  1.0000
  H   H154      1.0  0.06531  0.94962  0.64040  1.0000
  C   C85       1.0  0.17709  0.14430  0.67519  1.0000
  H   H155      1.0  0.30440  0.95066  0.55948  1.0000
  Fe  Fe9       1.0  0.02709  0.10879  0.68054  1.0000
  H   H156      1.0  0.16311  0.17217  0.98042  1.0000
  C   C86       1.0  0.22992  0.95293  0.00474  1.0000
  H   H157      1.0  0.42107  0.00546  0.91516  1.0000
  H   H158      1.0  0.93893  0.05094  0.55270  1.0000
  C   C87       1.0  0.41593  0.99942  0.82385  1.0000
  H   H159      1.0  0.17022  0.94817  0.99192  1.0000
  C   C88       1.0  0.17597  0.05055  0.76805  1.0000
  C   C89       1.0  0.04266  0.02123  0.68071  1.0000
  C   C90       1.0  0.01785  0.17243  0.71483  1.0000
  C   C91       1.0  0.16181  0.04354  0.99893  1.0000
  H   H160      1.0  0.42858  0.96507  0.83072  1.0000
  H   H161      1.0  0.40937  0.99808  0.54418  1.0000
  S   S19       1.0  0.13574  0.06991  0.71348  1.0000
  H   H162      1.0  0.20997  0.03882  0.68236  1.0000
  C   C92       1.0  0.16503  0.03589  0.70612  1.0000
  C   C93       1.0  0.96466  0.11656  0.70917  1.0000
  H   H163      1.0  0.18201  0.10493  0.70408  1.0000
  H   H164      1.0  0.98645  0.14392  0.55429  1.0000
  C   C94       1.0  0.26867  0.99365  0.59243  1.0000
  H   H165      1.0  0.96488  0.97347  0.78568  1.0000
  H   H166      1.0  0.26606  0.00145  0.69784  1.0000
  C   C95       1.0  0.97548  0.14313  0.53300  1.0000
  H   H167      1.0  0.01288  0.17282  0.68193  1.0000
  C   C96       1.0  0.15601  0.16404  0.68384  1.0000
  H   H168      1.0  0.22503  0.08906  0.00713  1.0000
  H   H169      1.0  0.09829  0.16698  0.92904  1.0000
  H   H170      1.0  0.99144  0.16324  0.91561  1.0000
  H   H171      1.0  0.07507  0.00719  0.66279  1.0000
  H   H172      1.0  0.30335  0.05762  0.76861  1.0000
  H   H173      1.0  0.08047  0.00777  0.71906  1.0000
  C   C97       1.0  0.19558  0.15262  0.78013  1.0000
  C   C98       1.0  0.40558  0.96944  0.72825  1.0000
  C   C99       1.0  0.26488  0.99276  0.73732  1.0000
  H   H174      1.0  0.10692  0.14955  0.74465  1.0000
  H   H175      1.0  0.12653  0.98914  0.76210  1.0000
  H   H176      1.0  0.96529  0.12928  0.72509  1.0000
  C   C100      1.0  0.29043  0.03731  0.80208  1.0000
  H   H177      1.0  0.11219  0.15094  0.94342  1.0000
  H   H178      1.0  0.20959  0.00214  0.73542  1.0000
  C   C101      1.0  0.99949  0.98731  0.71937  1.0000
  H   H179      1.0  0.00539  0.99793  0.79249  1.0000
  H   H180      1.0  0.03624  0.07408  0.55875  1.0000
  C   C102      1.0  0.14246  0.99195  0.65116  1.0000
  H   H181      1.0  0.25368  0.08293  0.95451  1.0000
  C   C103      1.0  0.12398  0.98435  0.80372  1.0000
  Fe  Fe10      1.0  0.11534  0.05746  0.80189  1.0000
  S   S20       1.0  0.99030  0.08182  0.75735  1.0000
  H   H182      1.0  0.21167  0.08071  0.79040  1.0000
  H   H183      1.0  0.94267  0.04651  0.90894  1.0000
  H   H184      1.0  0.39628  0.98087  0.01698  1.0000
  H   H185      1.0  0.05652  0.08669  0.78781  1.0000
  H   H186      1.0  0.14900  0.16755  0.82343  1.0000
  H   H187      1.0  0.00379  0.05091  0.58511  1.0000
  C   C104      1.0  0.19212  0.06984  0.82138  1.0000
  C   C105      1.0  0.08584  0.98242  0.56035  1.0000
  H   H188      1.0  0.03653  0.98763  0.74379  1.0000
  H   H189      1.0  0.12889  0.01758  0.80559  1.0000
  H   H190      1.0  0.39500  0.01041  0.79442  1.0000
  C   C106      1.0  0.30292  0.05462  0.96326  1.0000
  H   H191      1.0  0.28416  0.99838  0.60136  1.0000
  Fe  Fe11      1.0  0.32172  0.97655  0.69305  1.0000
  H   H192      1.0  0.06104  0.11074  0.83300  1.0000
  C   C107      1.0  0.28138  0.03532  0.85770  1.0000
  C   C108      1.0  0.20964  0.92692  0.53801  1.0000
  S   S21       1.0  0.09206  0.06977  0.82862  1.0000
  S   S22       1.0  0.08843  0.01680  0.87105  1.0000
  H   H193      1.0  0.19817  0.07101  0.98015  1.0000
  H   H194      1.0  0.12568  0.15659  0.77705  1.0000
  C   C109      1.0  0.05090  0.08380  0.94919  1.0000
  C   C110      1.0  0.24207  0.97044  0.83670  1.0000
  H   H195      1.0  0.03466  0.05288  0.82660  1.0000
  H   H196      1.0  0.96015  0.09401  0.86400  1.0000
  H   H197      1.0  0.02393  0.07264  0.81510  1.0000
  C   C111      1.0  0.15400  0.13805  0.83547  1.0000
  C   C112      1.0  0.99283  0.02196  0.77343  1.0000
  Fe  Fe12      1.0  0.35742  0.96686  0.71709  1.0000
  S   S23       1.0  0.13565  0.06895  0.84604  1.0000
  C   C113      1.0  0.15391  0.96778  0.70221  1.0000
  H   H198      1.0  0.06538  0.94226  0.58887  1.0000
  S   S24       1.0  0.02564  0.00966  0.92606  1.0000
  H   H199      1.0  0.96868  0.98877  0.71770  1.0000
  H   H200      1.0  0.08929  0.97984  0.82829  1.0000
  C   C114      1.0  0.01565  0.97226  0.56970  1.0000
  H   H201      1.0  0.00066  0.97390  0.74997  1.0000
  Fe  Fe13      1.0  0.05763  0.94327  0.74454  1.0000
  H   H202      1.0  0.96480  0.13805  0.63793  1.0000
  H   H203      1.0  0.40863  0.96297  0.91268  1.0000
  C   C115      1.0  0.99270  0.95101  0.87711  1.0000
  C   C116      1.0  0.04290  0.09606  0.87085  1.0000
  H   H204      1.0  0.99655  0.94912  0.54141  1.0000
  H   H205      1.0  0.14112  0.95435  0.95453  1.0000
  H   H206      1.0  0.95854  0.94448  0.92225  1.0000
  H   H207      1.0  0.97709  0.01238  0.76698  1.0000
  C   C117      1.0  0.39447  0.94446  0.73962  1.0000
  S   S25       1.0  0.12034  0.01198  0.96589  1.0000
  Fe  Fe14      1.0  0.10656  0.02943  0.91815  1.0000
  C   C118      1.0  0.01372  0.98813  0.90435  1.0000
  C   C119      1.0  0.22484  0.99560  0.97179  1.0000
  H   H208      1.0  0.00441  0.95621  0.61298  1.0000
  H   H209      1.0  0.27626  0.00054  0.90581  1.0000
  C   C120      1.0  0.01791  0.96546  0.85877  1.0000
  H   H210      1.0  0.42639  0.02764  0.74304  1.0000
  H   H211      1.0  0.96247  0.03250  0.67180  1.0000
  H   H212      1.0  0.02939  0.96230  0.83430  1.0000
  S   S26       1.0  0.30760  0.94598  0.67295  1.0000
  S   S27       1.0  0.16501  0.95577  0.85623  1.0000
  S   S28       1.0  0.31869  0.95204  0.77094  1.0000
  C   C121      1.0  0.19883  0.00994  0.95064  1.0000
  H   H213      1.0  0.09377  0.99487  0.57613  1.0000
  H   H214      1.0  0.26690  0.04040  0.94149  1.0000
  H   H215      1.0  0.12845  0.94768  0.63972  1.0000
  H   H216      1.0  0.16422  0.05482  0.95835  1.0000
  H   H217      1.0  0.19003  0.00588  0.99306  1.0000
  C   C122      1.0  0.22485  0.01720  0.93306  1.0000
  C   C123      1.0  0.42207  0.99016  0.93946  1.0000
  H   H218      1.0  0.99333  0.06036  0.95520  1.0000
  H   H219      1.0  0.23695  0.94086  0.77708  1.0000
  H   H220      1.0  0.21361  0.98953  0.01507  1.0000
  H   H221      1.0  0.97706  0.97711  0.94655  1.0000
  C   C124      1.0  0.39379  0.92784  0.53781  1.0000
  H   H222      1.0  0.01494  0.10455  0.93312  1.0000
  H   H223      1.0  0.07555  0.96707  0.99406  1.0000
  C   C125      1.0  0.13184  0.97958  0.96098  1.0000
  H   H224      1.0  0.13316  0.16027  0.61623  1.0000
  C   C126      1.0  0.28703  0.02833  0.97128  1.0000
  C   C127      1.0  0.99717  0.06491  0.98581  1.0000
  C   C128      1.0  0.43048  0.98456  0.71309  1.0000
  C   C129      1.0  0.00109  0.96706  0.53926  1.0000
  C   C130      1.0  0.11528  0.16817  0.91271  1.0000
  H   H225      1.0  0.96663  0.15500  0.99250  1.0000
  H   H226      1.0  0.12397  0.93242  0.77697  1.0000
  C   C131      1.0  0.02405  0.94576  0.00694  1.0000
  H   H227      1.0  0.04441  0.92455  0.55012  1.0000
  N   N8        1.0  0.93869  0.09828  0.61529  1.0000
  H   H228      1.0  0.26479  0.08502  0.00300  1.0000
  C   C132      1.0  0.15124  0.16683  0.58540  1.0000
  H   H229      1.0  0.95890  0.93660  0.77773  1.0000
  H   H230      1.0  0.23560  0.03503  0.93267  1.0000
  H   H231      1.0  0.19668  0.92697  0.56929  1.0000
  C   C133      1.0  0.24500  0.97776  0.00482  1.0000
  C   C134      1.0  0.94745  0.12429  0.57354  1.0000
  H   H232      1.0  0.13011  0.09691  0.01621  1.0000
  S   S29       1.0  0.04057  0.14310  0.00165  1.0000
  C   C135      1.0  0.26846  0.92523  0.56757  1.0000
  H   H233      1.0  0.21034  0.94562  0.02087  1.0000
  C   C136      1.0  0.14349  0.04401  0.53850  1.0000
  C   C137      1.0  0.30534  0.92418  0.53785  1.0000
  H   H234      1.0  0.39802  0.95523  0.01977  1.0000
  H   H235      1.0  0.43644  0.93286  0.82738  1.0000
  H   H236      1.0  0.02650  0.05536  0.52810  1.0000
  C   C138      1.0  0.93869  0.03856  0.95235  1.0000
  C   C139      1.0  0.23400  0.93744  0.53876  1.0000
  H   H237      1.0  0.11859  0.16833  0.87371  1.0000
  H   H238      1.0  0.93925  0.08853  0.55222  1.0000
  H   H239      1.0  0.28280  0.01430  0.01114  1.0000
  H   H240      1.0  0.31970  0.05768  0.96483  1.0000
  H   H241      1.0  0.97103  0.07433  0.00206  1.0000
  H   H242      1.0  0.01223  0.16979  0.82615  1.0000
  H   H243      1.0  0.94163  0.13302  0.59434  1.0000
  H   H244      1.0  0.99994  0.05144  0.01078  1.0000
  H   H245      1.0  0.16596  0.17334  0.70279  1.0000
  H   H246      1.0  0.37194  0.92433  0.85401  1.0000
  H   H247      1.0  0.27536  0.93778  0.52337  1.0000
  H   H248      1.0  0.16470  0.13110  0.44200  1.0000
  C   C140      1.0  0.15829  0.93851  0.03679  1.0000
  C   C141      1.0  0.99076  0.95651  0.06457  1.0000
  H   H249      1.0  0.18808  0.01510  0.18662  1.0000
  H   H250      1.0  0.05215  0.07417  0.31196  1.0000
  H   H251      1.0  0.06146  0.07002  0.06129  1.0000
  H   H252      1.0  0.95591  0.10012  0.13994  1.0000
  H   H253      1.0  0.24635  0.93743  0.50622  1.0000
  S   S30       1.0  0.12010  0.09858  0.31745  1.0000
  S   S31       1.0  0.93982  0.00422  0.15413  1.0000
  C   C142      1.0  0.04948  0.92499  0.51175  1.0000
  H   H254      1.0  0.14033  0.98153  0.40058  1.0000
  H   H255      1.0  0.01981  0.96936  0.13426  1.0000
  H   H256      1.0  0.20156  0.98846  0.38649  1.0000
  H   H257      1.0  0.03527  0.03025  0.16808  1.0000
  H   H258      1.0  0.11254  0.07147  0.20810  1.0000
  H   H259      1.0  0.42521  0.05077  0.46173  1.0000
  C   C143      1.0  0.38394  0.92407  0.14520  1.0000
  C   C144      1.0  0.95590  0.01523  0.18688  1.0000
  H   H260      1.0  0.19415  0.08528  0.15223  1.0000
  H   H261      1.0  0.04152  0.03990  0.39737  1.0000
  C   C145      1.0  0.99497  0.96147  0.44494  1.0000
  C   C146      1.0  0.99754  0.97108  0.24909  1.0000
  H   H262      1.0  0.41359  0.93303  0.21292  1.0000
  H   H263      1.0  0.00202  0.93583  0.39037  1.0000
  H   H264      1.0  0.12524  0.10919  0.46693  1.0000
  C   C147      1.0  0.13950  0.09711  0.41446  1.0000
  H   H265      1.0  0.01582  0.95434  0.26965  1.0000
  C   C148      1.0  0.16070  0.08833  0.46545  1.0000
  H   H266      1.0  0.06224  0.05594  0.29770  1.0000
  H   H267      1.0  0.98843  0.96109  0.41456  1.0000
  H   H268      1.0  0.03378  0.99196  0.45901  1.0000
  S   S32       1.0  0.20930  0.97845  0.18041  1.0000
  C   C149      1.0  0.97562  0.95796  0.30520  1.0000
  H   H269      1.0  0.99037  0.11918  0.22417  1.0000
  H   H270      1.0  0.97933  0.97068  0.32214  1.0000
  H   H271      1.0  0.95797  0.04109  0.04137  1.0000
  H   H272      1.0  0.99070  0.08455  0.14344  1.0000
  S   S33       1.0  0.11782  0.12726  0.04381  1.0000
  C   C150      1.0  0.12227  0.06449  0.14281  1.0000
  C   C151      1.0  0.98310  0.03819  0.23168  1.0000
  H   H273      1.0  0.22356  0.92766  0.08356  1.0000
  H   H274      1.0  0.19663  0.10971  0.36717  1.0000
  H   H275      1.0  0.40576  0.94305  0.41626  1.0000
  S   S34       1.0  0.05124  0.10180  0.09726  1.0000
  H   H276      1.0  0.00688  0.16305  0.15235  1.0000
  H   H277      1.0  0.06077  0.98915  0.06182  1.0000
  C   C152      1.0  0.17960  0.10611  0.36607  1.0000
  C   C153      1.0  0.98304  0.17005  0.49989  1.0000
  C   C154      1.0  0.97764  0.08609  0.13056  1.0000
  H   H278      1.0  0.00649  0.99910  0.07589  1.0000
  H   H279      1.0  0.12770  0.92508  0.36538  1.0000
  H   H280      1.0  0.13144  0.94250  0.47477  1.0000
  H   H281      1.0  0.19936  0.05471  0.15470  1.0000
  C   C155      1.0  0.04142  0.02987  0.19906  1.0000
  H   H282      1.0  0.97987  0.00495  0.39435  1.0000
  H   H283      1.0  0.39119  0.94184  0.32210  1.0000
  H   H284      1.0  0.95910  0.95350  0.30070  1.0000
  H   H285      1.0  0.17004  0.07515  0.10223  1.0000
  H   H286      1.0  0.08711  0.97166  0.28890  1.0000
  H   H287      1.0  0.02478  0.95448  0.18673  1.0000
  H   H288      1.0  0.14352  0.99834  0.23771  1.0000
  H   H289      1.0  0.13311  0.16418  0.17507  1.0000
  H   H290      1.0  0.95695  0.94910  0.12037  1.0000
  C   C156      1.0  0.18683  0.12501  0.30761  1.0000
  H   H291      1.0  0.94876  0.12526  0.24664  1.0000
  H   H292      1.0  0.98437  0.11777  0.13988  1.0000
  H   H293      1.0  0.02526  0.01852  0.24059  1.0000
  C   C157      1.0  0.05411  0.97424  0.10372  1.0000
  C   C158      1.0  0.02004  0.97367  0.25439  1.0000
  H   H294      1.0  0.10215  0.15481  0.19801  1.0000
  C   C159      1.0  0.18739  0.98479  0.33093  1.0000
  C   C160      1.0  0.02099  0.00798  0.38634  1.0000
  C   C161      1.0  0.05663  0.05714  0.18593  1.0000
  Fe  Fe15      1.0  0.12128  0.06642  0.31820  1.0000
  C   C162      1.0  0.05657  0.01902  0.19836  1.0000
  H   H295      1.0  0.03020  0.16332  0.06860  1.0000
  C   C163      1.0  0.12919  0.96893  0.10154  1.0000
  H   H296      1.0  0.05051  0.13224  0.48042  1.0000
  H   H297      1.0  0.96213  0.06680  0.14356  1.0000
  H   H298      1.0  0.08057  0.00056  0.17017  1.0000
  H   H299      1.0  0.15254  0.15151  0.28356  1.0000
  H   H300      1.0  0.11907  0.14994  0.34727  1.0000
  H   H301      1.0  0.12570  0.93532  0.22075  1.0000
  S   S35       1.0  0.25980  0.97443  0.11568  1.0000
  H   H302      1.0  0.31230  0.93677  0.49368  1.0000
  H   H303      1.0  0.20753  0.13727  0.22253  1.0000
  H   H304      1.0  0.97614  0.06265  0.05896  1.0000
  H   H305      1.0  0.09840  0.96597  0.09313  1.0000
  H   H306      1.0  0.97632  0.98924  0.11919  1.0000
  H   H307      1.0  0.01464  0.05112  0.16067  1.0000
  H   H308      1.0  0.03044  0.10459  0.47940  1.0000
  H   H309      1.0  0.10930  0.13749  0.24285  1.0000
  H   H310      1.0  0.93868  0.16343  0.05099  1.0000
  Fe  Fe16      1.0  0.18689  0.95018  0.27090  1.0000
  C   C164      1.0  0.09569  0.08303  0.46127  1.0000
  C   C165      1.0  0.21867  0.07388  0.04848  1.0000
  H   H311      1.0  0.13191  0.07987  0.41125  1.0000
  H   H312      1.0  0.06060  0.01861  0.23240  1.0000
  H   H313      1.0  0.03150  0.97210  0.39282  1.0000
  C   C166      1.0  0.99499  0.04041  0.18205  1.0000
  H   H314      1.0  0.14523  0.15678  0.39091  1.0000
  H   H315      1.0  0.22200  0.10765  0.08701  1.0000
  H   H316      1.0  0.14212  0.11181  0.37793  1.0000
  H   H317      1.0  0.00459  0.93312  0.11952  1.0000
  C   C167      1.0  0.17482  0.04632  0.07025  1.0000
  H   H318      1.0  0.05550  0.96811  0.20527  1.0000
  C   C168      1.0  0.07814  0.16568  0.36545  1.0000
  H   H319      1.0  0.97173  0.93995  0.33458  1.0000
  C   C169      1.0  0.42241  0.01616  0.50379  1.0000
  H   H320      1.0  0.07355  0.96467  0.37593  1.0000
  C   C170      1.0  0.25745  0.93239  0.12141  1.0000
  H   H321      1.0  0.43371  0.97220  0.29022  1.0000
  H   H322      1.0  0.15552  0.03745  0.10005  1.0000
  C   C171      1.0  0.18458  0.04499  0.14535  1.0000
  C   C172      1.0  0.12069  0.10411  0.08158  1.0000
  H   H323      1.0  0.94497  0.14667  0.12966  1.0000
  H   H324      1.0  0.06996  0.97915  0.11123  1.0000
  C   C173      1.0  0.01439  0.95605  0.43188  1.0000
  H   H325      1.0  0.09352  0.14441  0.31469  1.0000
  C   C174      1.0  0.96824  0.09839  0.15538  1.0000
  C   C175      1.0  0.03404  0.97207  0.14680  1.0000
  C   C176      1.0  0.15723  0.14966  0.24805  1.0000
  Fe  Fe17      1.0  0.03357  0.09383  0.18256  1.0000
  H   H326      1.0  0.14223  0.98280  0.05845  1.0000
  H   H327      1.0  0.10778  0.15381  0.40402  1.0000
  C   C177      1.0  0.11061  0.95483  0.51160  1.0000
  H   H328      1.0  0.06546  0.16982  0.35618  1.0000
  H   H329      1.0  0.09524  0.95539  0.50928  1.0000
  H   H330      1.0  0.13914  0.10556  0.21073  1.0000
  H   H331      1.0  0.19659  0.14489  0.29838  1.0000
  H   H332      1.0  0.22107  0.13048  0.26416  1.0000
  C   C178      1.0  0.01596  0.98903  0.47863  1.0000
  H   H333      1.0  0.36654  0.94091  0.11814  1.0000
  H   H334      1.0  0.11466  0.07660  0.50393  1.0000
  H   H335      1.0  0.02046  0.97733  0.28835  1.0000
  H   H336      1.0  0.39433  0.02245  0.50865  1.0000
  C   C179      1.0  0.03000  0.03473  0.37778  1.0000
  S   S36       1.0  0.41352  0.95251  0.10495  1.0000
  H   H337      1.0  0.10934  0.96277  0.41333  1.0000
  C   C180      1.0  0.11611  0.09718  0.13543  1.0000
  H   H338      1.0  0.99199  0.95969  0.22972  1.0000
  S   S37       1.0  0.15337  0.92773  0.26546  1.0000
  C   C181      1.0  0.17732  0.17092  0.19698  1.0000
  H   H339      1.0  0.08311  0.15935  0.27781  1.0000
  S   S38       1.0  0.12380  0.01104  0.31987  1.0000
  H   H340      1.0  0.42158  0.01176  0.47113  1.0000
  H   H341      1.0  0.17725  0.10901  0.12197  1.0000
  C   C182      1.0  0.95744  0.02305  0.26078  1.0000
  H   H342      1.0  0.14784  0.97799  0.21795  1.0000
  H   H343      1.0  0.15093  0.94916  0.04419  1.0000
  N   N9        1.0  0.98188  0.92961  0.08050  1.0000
  H   H344      1.0  0.07044  0.06996  0.14168  1.0000
  H   H345      1.0  0.96224  0.97096  0.42499  1.0000
  H   H346      1.0  0.03266  0.00300  0.14442  1.0000
  S   S39       1.0  0.18649  0.95789  0.33959  1.0000
  H   H347      1.0  0.98736  0.09794  0.08505  1.0000
  C   C183      1.0  0.12727  0.07169  0.08862  1.0000
  C   C184      1.0  0.06583  0.94760  0.41351  1.0000
  H   H348      1.0  0.17256  0.98537  0.27585  1.0000
  H   H349      1.0  0.13005  0.95527  0.38946  1.0000
  C   C185      1.0  0.40065  0.93320  0.33283  1.0000
  H   H350      1.0  0.01314  0.00521  0.35882  1.0000
  H   H351      1.0  0.95083  0.07965  0.31287  1.0000
  C   C186      1.0  0.11641  0.94428  0.47524  1.0000
  C   C187      1.0  0.11606  0.15660  0.21103  1.0000
  H   H352      1.0  0.20363  0.13541  0.42925  1.0000
  H   H353      1.0  0.00120  0.98941  0.22317  1.0000
  C   C188      1.0  0.41335  0.03275  0.50220  1.0000
  H   H354      1.0  0.94908  0.99967  0.47227  1.0000
  C   C189      1.0  0.06472  0.97996  0.25911  1.0000
  C   C190      1.0  0.98072  0.98508  0.46901  1.0000
  C   C191      1.0  0.19544  0.99603  0.36015  1.0000
  H   H355      1.0  0.11161  0.10687  0.15378  1.0000
  S   S40       1.0  0.18836  0.92964  0.16219  1.0000
  C   C192      1.0  0.18724  0.02661  0.32225  1.0000
  C   C193      1.0  0.28972  0.93615  0.05331  1.0000
  H   H356      1.0  0.16522  0.16697  0.50959  1.0000
  Fe  Fe18      1.0  0.12162  0.03835  0.25836  1.0000
  S   S41       1.0  0.08737  0.16169  0.05751  1.0000
  C   C194      1.0  0.17007  0.14470  0.15649  1.0000
  H   H357      1.0  0.99082  0.03153  0.12023  1.0000
  S   S42       1.0  0.00018  0.05570  0.25545  1.0000
  C   C195      1.0  0.12667  0.09164  0.05786  1.0000
  H   H358      1.0  0.17893  0.09420  0.46191  1.0000
  C   C196      1.0  0.18968  0.08276  0.08235  1.0000
  C   C197      1.0  0.97666  0.95967  0.10849  1.0000
  S   S43       1.0  0.12367  0.04172  0.38465  1.0000
  C   C198      1.0  0.06149  0.92574  0.41289  1.0000
  H   H359      1.0  0.97650  0.12349  0.27650  1.0000
  H   H360      1.0  0.14054  0.99725  0.17933  1.0000
  C   C199      1.0  0.20188  0.09788  0.10766  1.0000
  Fe  Fe19      1.0  0.05043  0.13541  0.06869  1.0000
  C   C200      1.0  0.05981  0.94720  0.46296  1.0000
  N   N10       1.0  0.94193  0.09087  0.24867  1.0000
  C   C201      1.0  0.12452  0.96205  0.41606  1.0000
  H   H361      1.0  0.20174  0.02561  0.37823  1.0000
  C   C202      1.0  0.17944  0.99456  0.29705  1.0000
  H   H362      1.0  0.15978  0.16671  0.07499  1.0000
  H   H363      1.0  0.98067  0.13737  0.50354  1.0000
  H   H364      1.0  0.43537  0.94878  0.33662  1.0000
  C   C203      1.0  0.18384  0.16833  0.15128  1.0000
  H   H365      1.0  0.17503  0.03001  0.07297  1.0000
  C   C204      1.0  0.41506  0.95988  0.37484  1.0000
  H   H366      1.0  0.20578  0.13229  0.05769  1.0000
  H   H367      1.0  0.20537  0.12815  0.12163  1.0000
  H   H368      1.0  0.16990  0.08702  0.37058  1.0000
  H   H369      1.0  0.04459  0.06318  0.19500  1.0000
  C   C205      1.0  0.11929  0.09174  0.46493  1.0000
  H   H370      1.0  0.01712  0.16308  0.20221  1.0000
  H   H371      1.0  0.94762  0.92573  0.43700  1.0000
  C   C206      1.0  0.20349  0.12429  0.26370  1.0000
  S   S44       1.0  0.19954  0.92604  0.26477  1.0000
  C   C207      1.0  0.19731  0.11808  0.10168  1.0000
  H   H372      1.0  0.16848  0.04273  0.17366  1.0000
  C   C208      1.0  0.22540  0.05623  0.04064  1.0000
  H   H373      1.0  0.15169  0.08986  0.49995  1.0000
  C   C209      1.0  0.20237  0.14620  0.39428  1.0000
  C   C210      1.0  0.15084  0.99670  0.20201  1.0000
  H   H374      1.0  0.97378  0.17078  0.47469  1.0000
  S   S45       1.0  0.03025  0.12595  0.15411  1.0000
  C   C211      1.0  0.10438  0.95948  0.12123  1.0000
  H   H375      1.0  0.08142  0.07902  0.49801  1.0000
  C   C212      1.0  0.09863  0.16332  0.28661  1.0000
  H   H376      1.0  0.99316  0.16723  0.20640  1.0000
  H   H377      1.0  0.02940  0.94128  0.03896  1.0000
  C   C213      1.0  0.04400  0.99635  0.15105  1.0000
  H   H378      1.0  0.09956  0.99060  0.51774  1.0000
  N   N11       1.0  0.16385  0.10589  0.41279  1.0000
  C   C214      1.0  0.14660  0.17314  0.36211  1.0000
  C   C215      1.0  0.11681  0.07729  0.16605  1.0000
  C   C216      1.0  0.17829  0.01791  0.16397  1.0000
  H   H379      1.0  0.94813  0.02092  0.29964  1.0000
  C   C217      1.0  0.17554  0.13210  0.40502  1.0000
  H   H380      1.0  0.08871  0.06542  0.45938  1.0000
  C   C218      1.0  0.98169  0.12837  0.23330  1.0000
  C   C219      1.0  0.08165  0.97153  0.25702  1.0000
  H   H381      1.0  0.21289  0.93889  0.49691  1.0000
  H   H382      1.0  0.07468  0.03329  0.16003  1.0000
  H   H383      1.0  0.95246  0.94189  0.04497  1.0000
  S   S46       1.0  0.06567  0.97449  0.46413  1.0000
  C   C220      1.0  0.14372  0.12590  0.25322  1.0000
  C   C221      1.0  0.41824  0.94236  0.23676  1.0000
  C   C222      1.0  0.08734  0.94137  0.17690  1.0000
  Fe  Fe20      1.0  0.17681  0.95396  0.17408  1.0000
  S   S47       1.0  0.18521  0.05122  0.32158  1.0000
  Fe  Fe21      1.0  0.15151  0.04511  0.31775  1.0000
  H   H384      1.0  0.03777  0.00884  0.36992  1.0000
  H   H385      1.0  0.07289  0.99687  0.26311  1.0000
  C   C223      1.0  0.11989  0.94206  0.19286  1.0000
  H   H386      1.0  0.19753  0.09709  0.03876  1.0000
  H   H387      1.0  0.18466  0.01495  0.13026  1.0000
  C   C224      1.0  0.42319  0.95425  0.33025  1.0000
  H   H388      1.0  0.96418  0.13012  0.18206  1.0000
  N   N12       1.0  0.00320  0.98591  0.44478  1.0000
  H   H389      1.0  0.03049  0.13226  0.45221  1.0000
  H   H390      1.0  0.94118  0.06242  0.23116  1.0000
  H   H391      1.0  0.17276  0.02271  0.26733  1.0000
  H   H392      1.0  0.98512  0.00049  0.47837  1.0000
  H   H393      1.0  0.08211  0.17318  0.39262  1.0000
  H   H394      1.0  0.01911  0.95241  0.46521  1.0000
  S   S48       1.0  0.05607  0.92848  0.20118  1.0000
  H   H395      1.0  0.23052  0.08389  0.06349  1.0000
  H   H396      1.0  0.06592  0.05893  0.21102  1.0000
  Fe  Fe22      1.0  0.08694  0.12712  0.09177  1.0000
  N   N13       1.0  0.04489  0.99335  0.20335  1.0000
  H   H397      1.0  0.12650  0.97513  0.49119  1.0000
  C   C225      1.0  0.00441  0.93234  0.42728  1.0000
  H   H398      1.0  0.17454  0.14284  0.12090  1.0000
  H   H399      1.0  0.13129  0.06168  0.07064  1.0000
  H   H400      1.0  0.96818  0.08177  0.23167  1.0000
  Fe  Fe23      1.0  0.06725  0.14958  0.14591  1.0000
  N   N14       1.0  0.19215  0.06159  0.08635  1.0000
  S   S49       1.0  0.06951  0.11675  0.17966  1.0000
  C   C226      1.0  0.95480  0.14859  0.09031  1.0000
  S   S50       1.0  0.12224  0.03903  0.18171  1.0000
  S   S51       1.0  0.16812  0.97233  0.11215  1.0000
  S   S52       1.0  0.15173  0.07264  0.25110  1.0000
  C   C227      1.0  0.06186  0.98569  0.20673  1.0000
  H   H401      1.0  0.22443  0.04447  0.07860  1.0000
  H   H402      1.0  0.94405  0.12998  0.09335  1.0000
  H   H403      1.0  0.40235  0.96507  0.37152  1.0000
  H   H404      1.0  0.04678  0.96453  0.29691  1.0000
  C   C228      1.0  0.14999  0.12360  0.20728  1.0000
  H   H405      1.0  0.06261  0.01207  0.11470  1.0000
  H   H406      1.0  0.97835  0.95267  0.14576  1.0000
  Fe  Fe24      1.0  0.21969  0.95267  0.17378  1.0000
  H   H407      1.0  0.09863  0.98450  0.21652  1.0000
  H   H408      1.0  0.07216  0.95201  0.26423  1.0000
  H   H409      1.0  0.19434  0.10476  0.27057  1.0000
  H   H410      1.0  0.04520  0.04814  0.04199  1.0000
  C   C229      1.0  0.17928  0.01543  0.29281  1.0000
  H   H411      1.0  0.97323  0.15372  0.08375  1.0000
  C   C230      1.0  0.27067  0.95888  0.09360  1.0000
  H   H412      1.0  0.16950  0.93870  0.05744  1.0000
  S   S53       1.0  0.09106  0.03364  0.32166  1.0000
  H   H413      1.0  0.01749  0.92728  0.42399  1.0000
  H   H414      1.0  0.17022  0.11971  0.30344  1.0000
  C   C231      1.0  0.04579  0.05526  0.31688  1.0000
  C   C232      1.0  0.19566  0.01711  0.35527  1.0000
  H   H415      1.0  0.05324  0.12804  0.37867  1.0000
  C   C233      1.0  0.98144  0.02896  0.15963  1.0000
  C   C234      1.0  0.00079  0.15719  0.19622  1.0000
  H   H416      1.0  0.21479  0.14906  0.35640  1.0000
  C   C235      1.0  0.98684  0.98762  0.08689  1.0000
  C   C236      1.0  0.13697  0.96016  0.13737  1.0000
  H   H417      1.0  0.12767  0.05191  0.48828  1.0000
  H   H418      1.0  0.23538  0.97385  0.04691  1.0000
  H   H419      1.0  0.98500  0.99543  0.05016  1.0000
  H   H420      1.0  0.03497  0.05159  0.29524  1.0000
  C   C237      1.0  0.29340  0.97395  0.04579  1.0000
  H   H421      1.0  0.43130  0.97603  0.37036  1.0000
  H   H422      1.0  0.01037  0.96824  0.05394  1.0000
  H   H423      1.0  0.96659  0.96708  0.50947  1.0000
  Fe  Fe25      1.0  0.09587  0.00937  0.38274  1.0000
  C   C238      1.0  0.12237  0.16371  0.36117  1.0000
  H   H424      1.0  0.04679  0.95584  0.10535  1.0000
  C   C239      1.0  0.14633  0.05977  0.48349  1.0000
  C   C240      1.0  0.06231  0.13616  0.40007  1.0000
  H   H425      1.0  0.41125  0.95418  0.23092  1.0000
  H   H426      1.0  0.17504  0.14463  0.37079  1.0000
  H   H427      1.0  0.40362  0.96442  0.48120  1.0000
  C   C241      1.0  0.04217  0.12571  0.45645  1.0000
  H   H428      1.0  0.01446  0.03559  0.39506  1.0000
  C   C242      1.0  0.95861  0.11911  0.22606  1.0000
  H   H429      1.0  0.07330  0.12905  0.40664  1.0000
  C   C243      1.0  0.09525  0.93300  0.21271  1.0000
  C   C244      1.0  0.94384  0.01161  0.23827  1.0000
  C   C245      1.0  0.96774  0.98650  0.43393  1.0000
  H   H430      1.0  0.15626  0.05694  0.45307  1.0000
  C   C246      1.0  0.94449  0.98394  0.46407  1.0000
  H   H431      1.0  0.09969  0.92555  0.48953  1.0000
  H   H432      1.0  0.20058  0.17068  0.42460  1.0000
  H   H433      1.0  0.02076  0.00644  0.48020  1.0000
  H   H434      1.0  0.97887  0.94476  0.48543  1.0000
  H   H435      1.0  0.06646  0.92620  0.37444  1.0000
  C   C247      1.0  0.23069  0.93183  0.04071  1.0000
  C   C248      1.0  0.95469  0.08240  0.21904  1.0000
  H   H436      1.0  0.09903  0.09814  0.42420  1.0000
  C   C249      1.0  0.95727  0.16923  0.04337  1.0000
  H   H437      1.0  0.03577  0.07984  0.02990  1.0000
  H   H438      1.0  0.41031  0.93081  0.51244  1.0000
  H   H439      1.0  0.24978  0.93748  0.02437  1.0000
  C   C250      1.0  0.39004  0.94682  0.52012  1.0000
  H   H440      1.0  0.14237  0.03287  0.03043  1.0000
  H   H441      1.0  0.30385  0.99445  0.02458  1.0000
  C   C251      1.0  0.30274  0.96260  0.02528  1.0000
  C   C252      1.0  0.99582  0.93008  0.03108  1.0000
  H   H442      1.0  0.21327  0.04368  0.02984  1.0000
  C   C253      1.0  0.05972  0.06832  0.02625  1.0000
  C   C254      1.0  0.21193  0.17246  0.38698  1.0000
  C   C255      1.0  0.97425  0.06063  0.02427  1.0000
  H   H443      1.0  0.99043  0.96584  0.02658  1.0000
  H   H444      1.0  0.06960  0.39184  0.88560  1.0000
  H   H445      1.0  0.25061  0.23269  0.76159  1.0000
  H   H446      1.0  0.01624  0.37592  0.66709  1.0000
  H   H447      1.0  0.95263  0.36577  0.52970  1.0000
  C   C256      1.0  0.94527  0.17435  0.94460  1.0000
  H   H448      1.0  0.32064  0.27270  0.71691  1.0000
  H   H449      1.0  0.03630  0.21188  0.68986  1.0000
  H   H450      1.0  0.04220  0.39069  0.71341  1.0000
  H   H451      1.0  0.19248  0.24374  0.84182  1.0000
  H   H452      1.0  0.06507  0.38375  0.96765  1.0000
  Fe  Fe26      1.0  0.27939  0.29697  0.57147  1.0000
  H   H453      1.0  0.21427  0.32193  0.74981  1.0000
  C   C257      1.0  0.96225  0.41019  0.76745  1.0000
  C   C258      1.0  0.36174  0.31742  0.96361  1.0000
  H   H454      1.0  0.09259  0.21940  0.67717  1.0000
  S   S54       1.0  0.97979  0.40228  0.55087  1.0000
  H   H455      1.0  0.36900  0.42183  0.86144  1.0000
  N   N15       1.0  0.09653  0.38254  0.94463  1.0000
  H   H456      1.0  0.98180  0.26773  0.85956  1.0000
  C   C259      1.0  0.04226  0.18299  0.93632  1.0000
  S   S55       1.0  0.17808  0.39680  0.60106  1.0000
  H   H457      1.0  0.27315  0.37257  0.53782  1.0000
  C   C260      1.0  0.17927  0.24428  0.56368  1.0000
  C   C261      1.0  0.20816  0.36531  0.98335  1.0000
  C   C262      1.0  0.04101  0.19828  0.69469  1.0000
  C   C263      1.0  0.34893  0.35969  0.61871  1.0000
  H   H458      1.0  0.22867  0.24472  0.81311  1.0000
  S   S56       1.0  0.01151  0.30690  0.02177  1.0000
  H   H459      1.0  0.96510  0.33490  0.96042  1.0000
  S   S57       1.0  0.93879  0.35631  0.90435  1.0000
  S   S58       1.0  0.03082  0.38956  0.55089  1.0000
  C   C264      1.0  0.08995  0.40289  0.86432  1.0000
  H   H460      1.0  0.17018  0.20338  0.84200  1.0000
  H   H461      1.0  0.13217  0.20899  0.69455  1.0000
  H   H462      1.0  0.99169  0.39233  0.97401  1.0000
  C   C265      1.0  0.13521  0.35638  0.95465  1.0000
  C   C266      1.0  0.25038  0.36083  0.94005  1.0000
  C   C267      1.0  0.06793  0.30030  0.62142  1.0000
  S   S59       1.0  0.27358  0.38661  0.77281  1.0000
  H   H463      1.0  0.00699  0.30323  0.62021  1.0000
  C   C268      1.0  0.20296  0.17771  0.75366  1.0000
  C   C269      1.0  0.04231  0.20447  0.92378  1.0000
  C   C270      1.0  0.38150  0.36773  0.96205  1.0000
  H   H464      1.0  0.15163  0.17687  0.66308  1.0000
  C   C271      1.0  0.29212  0.41639  0.87699  1.0000
  C   C272      1.0  0.14149  0.21222  0.57248  1.0000
  H   H465      1.0  0.27054  0.36628  0.64800  1.0000
  H   H466      1.0  0.13929  0.40389  0.96535  1.0000
  H   H467      1.0  0.08474  0.27192  0.01149  1.0000
  Fe  Fe27      1.0  0.00735  0.24177  0.68868  1.0000
  H   H468      1.0  0.14022  0.27825  0.66822  1.0000
  H   H469      1.0  0.41848  0.40357  0.92114  1.0000
  C   C273      1.0  0.04141  0.33174  0.88360  1.0000
  H   H470      1.0  0.05172  0.26913  0.56978  1.0000
  H   H471      1.0  0.16548  0.30157  0.89139  1.0000
  C   C274      1.0  0.19622  0.18894  0.60459  1.0000
  H   H472      1.0  0.36126  0.31607  0.00247  1.0000
  H   H473      1.0  0.08613  0.36423  0.71819  1.0000
  H   H474      1.0  0.99157  0.18381  0.97804  1.0000
  H   H475      1.0  0.07459  0.31588  0.71821  1.0000
  H   H476      1.0  0.12563  0.25166  0.96108  1.0000
  Fe  Fe28      1.0  0.23936  0.23996  0.65344  1.0000
  N   N16       1.0  0.08521  0.23441  0.61245  1.0000
  C   C275      1.0  0.21155  0.19588  0.54548  1.0000
  S   S60       1.0  0.95697  0.21710  0.64857  1.0000
  Fe  Fe29      1.0  0.99629  0.23251  0.60183  1.0000
  C   C276      1.0  0.10383  0.38980  0.60831  1.0000
  S   S61       1.0  0.09777  0.17854  0.67137  1.0000
  H   H477      1.0  0.24989  0.28505  0.84081  1.0000
  C   C277      1.0  0.17774  0.32889  0.91604  1.0000
  H   H478      1.0  0.33863  0.36394  0.91856  1.0000
  C   C278      1.0  0.00076  0.31504  0.61217  1.0000
  H   H479      1.0  0.19262  0.20360  0.59873  1.0000
  C   C279      1.0  0.11900  0.25915  0.93452  1.0000
  C   C280      1.0  0.19070  0.29944  0.60281  1.0000
  H   H480      1.0  0.94677  0.18103  0.90310  1.0000
  H   H481      1.0  0.13362  0.26063  0.60607  1.0000
  S   S62       1.0  0.23238  0.20178  0.69642  1.0000
  H   H482      1.0  0.20492  0.33783  0.54919  1.0000
  H   H483      1.0  0.27833  0.39564  0.55748  1.0000
  H   H484      1.0  0.04640  0.21634  0.88291  1.0000
  H   H485      1.0  0.07334  0.24798  0.99581  1.0000
  H   H486      1.0  0.08181  0.18756  0.80334  1.0000
  H   H487      1.0  0.07281  0.28261  0.83440  1.0000
  H   H488      1.0  0.96171  0.22285  0.88298  1.0000
  H   H489      1.0  0.23250  0.30575  0.80758  1.0000
  H   H490      1.0  0.10182  0.36041  0.00499  1.0000
  C   C281      1.0  0.23815  0.37571  0.74161  1.0000
  H   H491      1.0  0.03228  0.34151  0.67633  1.0000
  C   C282      1.0  0.07173  0.35509  0.70741  1.0000
  H   H492      1.0  0.27846  0.28279  0.90876  1.0000
  H   H493      1.0  0.98276  0.29451  0.77770  1.0000
  H   H494      1.0  0.43286  0.36671  0.76803  1.0000
  H   H495      1.0  0.01777  0.38072  0.85374  1.0000
  C   C283      1.0  0.98567  0.32316  0.98828  1.0000
  H   H496      1.0  0.11166  0.39372  0.01921  1.0000
  C   C284      1.0  0.32481  0.35014  0.62937  1.0000
  C   C285      1.0  0.03718  0.21062  0.96401  1.0000
  H   H497      1.0  0.09692  0.27335  0.57603  1.0000
  H   H498      1.0  0.97622  0.41123  0.77985  1.0000
  H   H499      1.0  0.06599  0.25095  0.62720  1.0000
  H   H500      1.0  0.25485  0.23294  0.97471  1.0000
  H   H501      1.0  0.30885  0.37431  0.55566  1.0000
  Fe  Fe30      1.0  0.14855  0.32895  0.71847  1.0000
  C   C286      1.0  0.07333  0.25598  0.54671  1.0000
  C   C287      1.0  0.98018  0.36680  0.69244  1.0000
  S   S63       1.0  0.25816  0.26417  0.56165  1.0000
  Fe  Fe31      1.0  0.22964  0.27169  0.57573  1.0000
  H   H502      1.0  0.12103  0.27796  0.61109  1.0000
  H   H503      1.0  0.98803  0.31720  0.71481  1.0000
  C   C288      1.0  0.16793  0.23831  0.91447  1.0000
  N   N17       1.0  0.38156  0.36582  0.91250  1.0000
  H   H504      1.0  0.31545  0.34078  0.77226  1.0000
  N   N18       1.0  0.17773  0.20661  0.90699  1.0000
  C   C289      1.0  0.04021  0.32547  0.80426  1.0000
  C   C290      1.0  0.31553  0.33912  0.60078  1.0000
  C   C291      1.0  0.97216  0.17379  0.98707  1.0000
  C   C292      1.0  0.16068  0.19377  0.88743  1.0000
  C   C293      1.0  0.01103  0.40472  0.94519  1.0000
  H   H505      1.0  0.96827  0.41321  0.72543  1.0000
  H   H506      1.0  0.01918  0.29419  0.77125  1.0000
  C   C294      1.0  0.29297  0.29652  0.77480  1.0000
  H   H507      1.0  0.26787  0.22850  0.92048  1.0000
  C   C295      1.0  0.39844  0.39386  0.00349  1.0000
  H   H508      1.0  0.99475  0.26287  0.90425  1.0000
  C   C296      1.0  0.04931  0.28606  0.80129  1.0000
  H   H509      1.0  0.04852  0.39354  0.80668  1.0000
  Fe  Fe32      1.0  0.95913  0.38380  0.92745  1.0000
  C   C297      1.0  0.35408  0.40299  0.87119  1.0000
  S   S64       1.0  0.26310  0.27222  0.66175  1.0000
  H   H510      1.0  0.02237  0.36595  0.81582  1.0000
  C   C298      1.0  0.31353  0.28424  0.71671  1.0000
  S   S65       1.0  0.33599  0.39406  0.75103  1.0000
  H   H511      1.0  0.05261  0.29808  0.61573  1.0000
  C   C299      1.0  0.99005  0.19640  0.88676  1.0000
  H   H512      1.0  0.17246  0.31513  0.57721  1.0000
  H   H513      1.0  0.98868  0.20649  0.85099  1.0000
  H   H514      1.0  0.37818  0.38282  0.84178  1.0000
  H   H515      1.0  0.02257  0.31370  0.91076  1.0000
  C   C300      1.0  0.09176  0.32267  0.58329  1.0000
  H   H516      1.0  0.20326  0.24419  0.88962  1.0000
  H   H517      1.0  0.11570  0.23270  0.58038  1.0000
  Fe  Fe33      1.0  0.23462  0.27938  0.66934  1.0000
  S   S66       1.0  0.12663  0.34101  0.69283  1.0000
  H   H518      1.0  0.29667  0.33112  0.61017  1.0000
  H   H519      1.0  0.08246  0.22267  0.98037  1.0000
  C   C301      1.0  0.30409  0.28150  0.77305  1.0000
  H   H520      1.0  0.38268  0.36650  0.56950  1.0000
  C   C302      1.0  0.40765  0.36631  0.83048  1.0000
  C   C303      1.0  0.04524  0.40846  0.71062  1.0000
  H   H521      1.0  0.13066  0.42077  0.89386  1.0000
  H   H522      1.0  0.96800  0.36994  0.71671  1.0000
  C   C304      1.0  0.07049  0.37128  0.98395  1.0000
  H   H523      1.0  0.08703  0.34445  0.97579  1.0000
  S   S67       1.0  0.25243  0.30643  0.57900  1.0000
  H   H524      1.0  0.00031  0.36785  0.73628  1.0000
  C   C305      1.0  0.11892  0.26014  0.63380  1.0000
  H   H525      1.0  0.20818  0.19281  0.62392  1.0000
  C   C306      1.0  0.08892  0.25968  0.00111  1.0000
  H   H526      1.0  0.10072  0.17667  0.80754  1.0000
  H   H527      1.0  0.07979  0.23608  0.68636  1.0000
  H   H528      1.0  0.34086  0.27635  0.00187  1.0000
  C   C307      1.0  0.99016  0.17475  0.88174  1.0000
  H   H529      1.0  0.19330  0.18651  0.89486  1.0000
  H   H530      1.0  0.97088  0.34605  0.70971  1.0000
  H   H531      1.0  0.14605  0.18427  0.98850  1.0000
  Fe  Fe34      1.0  0.97067  0.24900  0.66489  1.0000
  C   C308      1.0  0.01734  0.34131  0.58885  1.0000
  H   H532      1.0  0.09424  0.39899  0.60760  1.0000
  H   H533      1.0  0.12504  0.24435  0.70107  1.0000
  S   S68       1.0  0.20960  0.24551  0.66705  1.0000
  C   C309      1.0  0.12323  0.25986  0.68220  1.0000
  H   H534      1.0  0.09474  0.33763  0.54822  1.0000
  H   H535      1.0  0.15906  0.32437  0.86908  1.0000
  C   C310      1.0  0.02707  0.18450  0.55351  1.0000
  C   C311      1.0  0.97930  0.25350  0.89656  1.0000
  H   H536      1.0  0.01579  0.41590  0.63622  1.0000
  C   C312      1.0  0.98499  0.30259  0.02084  1.0000
  C   C313      1.0  0.99541  0.30731  0.73275  1.0000
  H   H537      1.0  0.34300  0.33474  0.96143  1.0000
  H   H538      1.0  0.43274  0.35587  0.83271  1.0000
  C   C314      1.0  0.17760  0.26753  0.75312  1.0000
  C   C315      1.0  0.08393  0.28433  0.67477  1.0000
  N   N19       1.0  0.97038  0.18865  0.93982  1.0000
  H   H539      1.0  0.08418  0.30816  0.87157  1.0000
  Fe  Fe35      1.0  0.19643  0.38091  0.63478  1.0000
  H   H540      1.0  0.11618  0.32930  0.81926  1.0000
  C   C316      1.0  0.27729  0.39972  0.94075  1.0000
  H   H541      1.0  0.24190  0.32591  0.83571  1.0000
  C   C317      1.0  0.06403  0.28121  0.66747  1.0000
  C   C318      1.0  0.33989  0.29189  0.97843  1.0000
  C   C319      1.0  0.19963  0.20619  0.88502  1.0000
  Fe  Fe36      1.0  0.15537  0.35976  0.60671  1.0000
  H   H542      1.0  0.33626  0.39952  0.89323  1.0000
  H   H543      1.0  0.03638  0.34958  0.57811  1.0000
  H   H544      1.0  0.18234  0.22097  0.98650  1.0000
  H   H545      1.0  0.28495  0.34356  0.78097  1.0000
  H   H546      1.0  0.34771  0.39979  0.54784  1.0000
  H   H547      1.0  0.14130  0.39110  0.90213  1.0000
  H   H548      1.0  0.19076  0.27969  0.86692  1.0000
  H   H549      1.0  0.27184  0.35000  0.86698  1.0000
  H   H550      1.0  0.39266  0.34663  0.84473  1.0000
  H   H551      1.0  0.29854  0.27753  0.70630  1.0000
  H   H552      1.0  0.36270  0.35969  0.99282  1.0000
  C   C320      1.0  0.06739  0.27521  0.53291  1.0000
  H   H553      1.0  0.32833  0.30986  0.84264  1.0000
  H   H554      1.0  0.08646  0.36760  0.89394  1.0000
  C   C321      1.0  0.15656  0.28666  0.76895  1.0000
  H   H555      1.0  0.97846  0.17688  0.52753  1.0000
  H   H556      1.0  0.09232  0.42300  0.78673  1.0000
  H   H557      1.0  0.09081  0.39474  0.79858  1.0000
  H   H558      1.0  0.15538  0.17400  0.90259  1.0000
  H   H559      1.0  0.11698  0.39536  0.85898  1.0000
  H   H560      1.0  0.34080  0.32561  0.76868  1.0000
  C   C322      1.0  0.96801  0.31959  0.61786  1.0000
  C   C323      1.0  0.02112  0.32683  0.72082  1.0000
  H   H561      1.0  0.07263  0.35331  0.63335  1.0000
  S   S69       1.0  0.13165  0.28817  0.77691  1.0000
  S   S70       1.0  0.17605  0.34551  0.63233  1.0000
  H   H562      1.0  0.22522  0.36031  0.78377  1.0000
  C   C324      1.0  0.19846  0.28739  0.74775  1.0000
  H   H563      1.0  0.17909  0.31721  0.94958  1.0000
  H   H564      1.0  0.42092  0.39190  0.85931  1.0000
  C   C325      1.0  0.24684  0.39845  0.64775  1.0000
  S   S71       1.0  0.14109  0.35462  0.54880  1.0000
  C   C326      1.0  0.00936  0.35684  0.57953  1.0000
  H   H565      1.0  0.27611  0.28657  0.77146  1.0000
  H   H566      1.0  0.00854  0.21031  0.87987  1.0000
  H   H567      1.0  0.31315  0.39985  0.56519  1.0000
  H   H568      1.0  0.05686  0.23749  0.55957  1.0000
  H   H569      1.0  0.99587  0.29547  0.71503  1.0000
  H   H570      1.0  0.00265  0.34216  0.96408  1.0000
  H   H571      1.0  0.23520  0.21208  0.95799  1.0000
  C   C327      1.0  0.08551  0.36109  0.64843  1.0000
  H   H572      1.0  0.17511  0.27988  0.61816  1.0000
  H   H573      1.0  0.11331  0.39369  0.56633  1.0000
  H   H574      1.0  0.15504  0.22359  0.95850  1.0000
  S   S72       1.0  0.17012  0.36345  0.72330  1.0000
  H   H575      1.0  0.17772  0.25258  0.74873  1.0000
  C   C328      1.0  0.00436  0.37864  0.69353  1.0000
  H   H576      1.0  0.94892  0.31126  0.62912  1.0000
  C   C329      1.0  0.23012  0.37905  0.70273  1.0000
  H   H577      1.0  0.29439  0.27487  0.87031  1.0000
  H   H578      1.0  0.12617  0.29913  0.86207  1.0000
  H   H579      1.0  0.99343  0.22287  0.93938  1.0000
  C   C330      1.0  0.01226  0.18559  0.82840  1.0000
  H   H580      1.0  0.36766  0.35023  0.79842  1.0000
  H   H581      1.0  0.35342  0.38314  0.94474  1.0000
  C   C331      1.0  0.97600  0.30403  0.62737  1.0000
  S   S73       1.0  0.03494  0.25292  0.71752  1.0000
  S   S74       1.0  0.36051  0.37140  0.65708  1.0000
  Fe  Fe37      1.0  0.15046  0.37700  0.68956  1.0000
  C   C332      1.0  0.09304  0.23633  0.65484  1.0000
  C   C333      1.0  0.10556  0.23929  0.56532  1.0000
  H   H582      1.0  0.19404  0.26652  0.92626  1.0000
  N   N20       1.0  0.05286  0.32731  0.75125  1.0000
  C   C334      1.0  0.12650  0.37040  0.92504  1.0000
  H   H583      1.0  0.31319  0.35084  0.66027  1.0000
  C   C335      1.0  0.19815  0.30651  0.75414  1.0000
  H   H584      1.0  0.26252  0.34001  0.98284  1.0000
  H   H585      1.0  0.35568  0.40295  0.83281  1.0000
  C   C336      1.0  0.19487  0.37686  0.96875  1.0000
  H   H586      1.0  0.99470  0.24103  0.85053  1.0000
  S   S75       1.0  0.01004  0.26630  0.61194  1.0000
  C   C337      1.0  0.03380  0.31407  0.73644  1.0000
  H   H587      1.0  0.09392  0.27746  0.90213  1.0000
  H   H588      1.0  0.05834  0.31701  0.84995  1.0000
  H   H589      1.0  0.41156  0.41330  0.99425  1.0000
  H   H590      1.0  0.16422  0.18749  0.56811  1.0000
  H   H591      1.0  0.20809  0.30144  0.58600  1.0000
  H   H592      1.0  0.08103  0.26944  0.70978  1.0000
  H   H593      1.0  0.21544  0.18203  0.54521  1.0000
  H   H594      1.0  0.26044  0.30288  0.87180  1.0000
  H   H595      1.0  0.11795  0.39823  0.62030  1.0000
  C   C338      1.0  0.14172  0.21541  0.65152  1.0000
  H   H596      1.0  0.39414  0.40745  0.93325  1.0000
  H   H597      1.0  0.14038  0.25174  0.76841  1.0000
  C   C339      1.0  0.33085  0.33922  0.55893  1.0000
  C   C340      1.0  0.36402  0.35914  0.57790  1.0000
  H   H598      1.0  0.20931  0.22354  0.79698  1.0000
  H   H599      1.0  0.17244  0.34010  0.92817  1.0000
  H   H600      1.0  0.21115  0.36618  0.71503  1.0000
  H   H601      1.0  0.03755  0.27496  0.78772  1.0000
  H   H602      1.0  0.08507  0.17869  0.86379  1.0000
  H   H603      1.0  0.17492  0.36148  0.98994  1.0000
  H   H604      1.0  0.02148  0.39825  0.00796  1.0000
  Fe  Fe38      1.0  0.35200  0.39768  0.66936  1.0000
  H   H605      1.0  0.13978  0.36280  0.98266  1.0000
  C   C341      1.0  0.15899  0.31188  0.90429  1.0000
  C   C342      1.0  0.03224  0.19541  0.01657  1.0000
  S   S76       1.0  0.23749  0.40409  0.59809  1.0000
  C   C343      1.0  0.10758  0.30669  0.63725  1.0000
  H   H606      1.0  0.32231  0.28798  0.00427  1.0000
  H   H607      1.0  0.27723  0.41261  0.95563  1.0000
  C   C344      1.0  0.18649  0.23382  0.88643  1.0000
  H   H608      1.0  0.05112  0.33328  0.90791  1.0000
  H   H609      1.0  0.27699  0.32573  0.74744  1.0000
  H   H610      1.0  0.09624  0.35317  0.64659  1.0000
  S   S77       1.0  0.22512  0.28875  0.73373  1.0000
  Fe  Fe39      1.0  0.31334  0.40426  0.72266  1.0000
  H   H611      1.0  0.12283  0.30903  0.64371  1.0000
  C   C345      1.0  0.30794  0.39075  0.54138  1.0000
  H   H612      1.0  0.01140  0.19635  0.79252  1.0000
  H   H613      1.0  0.27782  0.33150  0.91193  1.0000
  H   H614      1.0  0.05749  0.35286  0.98836  1.0000
  H   H615      1.0  0.17606  0.24489  0.63748  1.0000
  N   N21       1.0  0.11295  0.27560  0.94865  1.0000
  H   H616      1.0  0.10349  0.33952  0.85963  1.0000
  H   H617      1.0  0.12082  0.33550  0.97888  1.0000
  C   C346      1.0  0.26302  0.39166  0.72542  1.0000
  C   C347      1.0  0.13311  0.29293  0.95598  1.0000
  H   H618      1.0  0.13503  0.28149  0.98888  1.0000
  H   H619      1.0  0.95911  0.30939  0.90287  1.0000
  H   H620      1.0  0.06328  0.36551  0.70528  1.0000
  H   H621      1.0  0.32869  0.30444  0.68443  1.0000
  H   H622      1.0  0.35847  0.36705  0.76060  1.0000
  C   C348      1.0  0.35518  0.34949  0.54716  1.0000
  C   C349      1.0  0.15648  0.26699  0.76449  1.0000
  C   C350      1.0  0.26577  0.33774  0.91070  1.0000
  C   C351      1.0  0.12912  0.20347  0.62839  1.0000
  H   H623      1.0  0.22727  0.19954  0.81147  1.0000
  C   C352      1.0  0.26624  0.30221  0.83367  1.0000
  C   C353      1.0  0.37855  0.38469  0.87758  1.0000
  S   S78       1.0  0.32694  0.40428  0.64490  1.0000
  N   N22       1.0  0.28738  0.30004  0.82348  1.0000
  H   H624      1.0  0.08075  0.32497  0.76528  1.0000
  H   H625      1.0  0.28996  0.26093  0.80385  1.0000
  H   H626      1.0  0.18880  0.30255  0.63792  1.0000
  S   S79       1.0  0.96870  0.22638  0.74288  1.0000
  H   H627      1.0  0.04023  0.34804  0.87037  1.0000
  S   S80       1.0  0.99660  0.20926  0.67458  1.0000
  C   C354      1.0  0.19058  0.31870  0.55896  1.0000
  H   H628      1.0  0.00449  0.40825  0.70494  1.0000
  H   H629      1.0  0.01908  0.33642  0.74340  1.0000
  H   H630      1.0  0.03463  0.33849  0.79719  1.0000
  C   C355      1.0  0.30910  0.32442  0.81166  1.0000
  H   H631      1.0  0.30563  0.31538  0.73609  1.0000
  H   H632      1.0  0.07337  0.35052  0.80658  1.0000
  C   C356      1.0  0.33236  0.32570  0.80605  1.0000
  H   H633      1.0  0.23969  0.25239  0.92012  1.0000
  H   H634      1.0  0.24659  0.32066  0.93084  1.0000
  C   C357      1.0  0.16515  0.19037  0.96873  1.0000
  S   S81       1.0  0.13331  0.39427  0.71954  1.0000
  H   H635      1.0  0.11181  0.21364  0.94962  1.0000
  H   H636      1.0  0.31949  0.28788  0.78192  1.0000
  H   H637      1.0  0.04631  0.17835  0.90511  1.0000
  H   H638      1.0  0.08041  0.28444  0.76962  1.0000
  C   C358      1.0  0.98472  0.34598  0.59351  1.0000
  H   H639      1.0  0.17736  0.32143  0.76775  1.0000
  C   C359      1.0  0.01660  0.40718  0.67417  1.0000
  C   C360      1.0  0.25539  0.25238  0.89887  1.0000
  C   C361      1.0  0.11153  0.32601  0.59180  1.0000
  C   C362      1.0  0.08044  0.25406  0.59255  1.0000
  H   H640      1.0  0.30352  0.32862  0.84424  1.0000
  C   C363      1.0  0.28051  0.38025  0.56148  1.0000
  C   C364      1.0  0.18094  0.26412  0.91020  1.0000
  H   H641      1.0  0.25099  0.33964  0.76356  1.0000
  C   C365      1.0  0.95533  0.29550  0.88914  1.0000
  C   C366      1.0  0.11465  0.40803  0.93618  1.0000
  H   H642      1.0  0.12825  0.30379  0.97105  1.0000
  H   H643      1.0  0.13176  0.20325  0.55426  1.0000
  H   H644      1.0  0.19522  0.20361  0.98878  1.0000
  C   C367      1.0  0.17733  0.30632  0.76401  1.0000
  H   H645      1.0  0.26519  0.34274  0.62853  1.0000
  H   H646      1.0  0.05536  0.40726  0.61890  1.0000
  C   C368      1.0  0.09790  0.23630  0.93770  1.0000
  C   C369      1.0  0.26444  0.35915  0.62212  1.0000
  C   C370      1.0  0.27977  0.41101  0.67036  1.0000
  C   C371      1.0  0.35172  0.35036  0.79967  1.0000
  C   C372      1.0  0.01925  0.41803  0.88890  1.0000
  C   C373      1.0  0.27174  0.41406  0.63152  1.0000
  H   H647      1.0  0.05462  0.20514  0.61255  1.0000
  H   H648      1.0  0.04169  0.31181  0.70205  1.0000
  H   H649      1.0  0.97845  0.35784  0.58596  1.0000
  C   C374      1.0  0.02944  0.38445  0.81359  1.0000
  C   C375      1.0  0.97785  0.23214  0.88873  1.0000
  S   S82       1.0  0.29211  0.31453  0.98971  1.0000
  N   N23       1.0  0.25134  0.37689  0.96523  1.0000
  H   H650      1.0  0.23150  0.34292  0.96209  1.0000
  C   C376      1.0  0.10633  0.22164  0.92082  1.0000
  C   C377      1.0  0.06570  0.31474  0.75718  1.0000
  H   H651      1.0  0.30128  0.35862  0.99427  1.0000
  H   H652      1.0  0.15197  0.36061  0.92414  1.0000
  H   H653      1.0  0.24506  0.35242  0.63588  1.0000
  C   C378      1.0  0.02795  0.40837  0.96446  1.0000
  C   C379      1.0  0.09790  0.38630  0.89010  1.0000
  H   H654      1.0  0.19744  0.39062  0.98258  1.0000
  H   H655      1.0  0.24722  0.22246  0.53444  1.0000
  H   H656      1.0  0.94479  0.39085  0.79611  1.0000
  Fe  Fe40      1.0  0.95813  0.19574  0.72255  1.0000
  C   C380      1.0  0.02845  0.40194  0.76788  1.0000
  C   C381      1.0  0.06498  0.27673  0.80926  1.0000
  H   H657      1.0  0.14021  0.20892  0.86962  1.0000
  C   C382      1.0  0.27092  0.32533  0.78668  1.0000
  C   C383      1.0  0.24759  0.32398  0.79949  1.0000
  H   H658      1.0  0.10796  0.25709  0.71417  1.0000
  H   H659      1.0  0.98366  0.37554  0.64954  1.0000
  H   H660      1.0  0.13458  0.27069  0.89192  1.0000
  H   H661      1.0  0.00898  0.39236  0.77781  1.0000
  C   C384      1.0  0.16651  0.23284  0.53995  1.0000
  H   H662      1.0  0.06714  0.19409  0.65015  1.0000
  C   C385      1.0  0.16670  0.23560  0.61936  1.0000
  H   H663      1.0  0.40693  0.37964  0.79865  1.0000
  C   C386      1.0  0.10931  0.31230  0.90380  1.0000
  H   H664      1.0  0.02281  0.30617  0.83409  1.0000
  H   H665      1.0  0.34404  0.35241  0.83445  1.0000
  C   C387      1.0  0.23676  0.21888  0.80558  1.0000
  H   H666      1.0  0.05348  0.25569  0.83045  1.0000
  C   C388      1.0  0.05528  0.33170  0.83412  1.0000
  C   C389      1.0  0.21828  0.22474  0.82268  1.0000
  C   C390      1.0  0.09850  0.41144  0.80373  1.0000
  H   H667      1.0  0.03729  0.28171  0.84167  1.0000
  H   H668      1.0  0.41054  0.36082  0.90467  1.0000
  H   H669      1.0  0.24647  0.22000  0.82997  1.0000
  C   C391      1.0  0.40578  0.37151  0.87833  1.0000
  C   C392      1.0  0.17791  0.20187  0.99820  1.0000
  H   H670      1.0  0.21058  0.21084  0.90592  1.0000
  H   H671      1.0  0.25348  0.24898  0.86566  1.0000
  H   H672      1.0  0.12397  0.36502  0.89437  1.0000
  S   S83       1.0  0.99856  0.41584  0.86415  1.0000
  H   H673      1.0  0.29378  0.40532  0.85809  1.0000
  H   H674      1.0  0.39469  0.40452  0.85914  1.0000
  H   H675      1.0  0.19204  0.20222  0.75337  1.0000
  C   C393      1.0  0.25328  0.23019  0.94045  1.0000
  C   C394      1.0  0.28001  0.27812  0.87570  1.0000
  H   H676      1.0  0.12191  0.23423  0.87826  1.0000
  C   C395      1.0  0.10297  0.32300  0.86075  1.0000
  C   C396      1.0  0.11060  0.29050  0.90269  1.0000
  N   N24       1.0  0.04263  0.42222  0.66377  1.0000
  H   H677      1.0  0.15699  0.23845  0.89341  1.0000
  C   C397      1.0  0.23626  0.38614  0.95388  1.0000
  H   H678      1.0  0.09109  0.20566  0.92244  1.0000
  C   C398      1.0  0.39927  0.39481  0.95049  1.0000
  C   C399      1.0  0.06231  0.20770  0.64020  1.0000
  H   H679      1.0  0.09062  0.20549  0.55798  1.0000
  C   C400      1.0  0.26763  0.35252  0.94024  1.0000
  H   H680      1.0  0.95871  0.28210  0.91182  1.0000
  H   H681      1.0  0.19611  0.34224  0.87876  1.0000
  C   C401      1.0  0.10195  0.36355  0.96557  1.0000
  H   H682      1.0  0.25424  0.37072  0.89690  1.0000
  C   C402      1.0  0.35493  0.38214  0.90741  1.0000
  H   H683      1.0  0.96207  0.24580  0.93198  1.0000
  H   H684      1.0  0.09120  0.24279  0.91018  1.0000
  H   H685      1.0  0.20169  0.38654  0.92378  1.0000
  H   H686      1.0  0.28713  0.36898  0.91920  1.0000
  H   H687      1.0  0.02969  0.19848  0.82659  1.0000
  C   C403      1.0  0.01703  0.19774  0.56020  1.0000
  H   H688      1.0  0.24245  0.39572  0.90910  1.0000
  H   H689      1.0  0.09517  0.30580  0.94414  1.0000
  H   H690      1.0  0.16724  0.26559  0.93509  1.0000
  H   H691      1.0  0.96817  0.30586  0.84454  1.0000
  S   S84       1.0  0.03674  0.23717  0.94786  1.0000
  H   H692      1.0  0.12726  0.32812  0.89456  1.0000
  C   C404      1.0  0.97593  0.21278  0.93858  1.0000
  H   H693      1.0  0.13050  0.19277  0.94112  1.0000
  H   H694      1.0  0.35732  0.33801  0.89813  1.0000
  H   H695      1.0  0.00206  0.18976  0.59952  1.0000
  C   C405      1.0  0.36031  0.33932  0.93246  1.0000
  H   H696      1.0  0.28802  0.39387  0.95541  1.0000
  S   S85       1.0  0.22998  0.26470  0.00706  1.0000
  C   C406      1.0  0.13682  0.19236  0.90336  1.0000
  S   S86       1.0  0.95451  0.27095  0.65972  1.0000
  H   H697      1.0  0.34006  0.29190  0.94067  1.0000
  C   C407      1.0  0.12568  0.40808  0.97560  1.0000
  C   C408      1.0  0.96438  0.31908  0.98661  1.0000
  C   C409      1.0  0.43173  0.36978  0.80305  1.0000
  H   H698      1.0  0.96146  0.20826  0.97607  1.0000
  H   H699      1.0  0.23934  0.40109  0.96425  1.0000
  H   H700      1.0  0.04626  0.19588  0.72741  1.0000
  H   H701      1.0  0.37869  0.32016  0.93863  1.0000
  H   H702      1.0  0.38638  0.35572  0.98395  1.0000
  C   C410      1.0  0.18631  0.18300  0.77142  1.0000
  H   H703      1.0  0.20406  0.35092  0.97109  1.0000
  H   H704      1.0  0.08325  0.22593  0.52580  1.0000
  C   C411      1.0  0.94237  0.29448  0.01789  1.0000
  S   S87       1.0  0.94328  0.35318  0.01362  1.0000
  H   H705      1.0  0.06441  0.42024  0.70280  1.0000
  C   C412      1.0  0.09780  0.22574  0.53362  1.0000
  H   H706      1.0  0.10613  0.41815  0.93847  1.0000
  C   C413      1.0  0.08365  0.17405  0.83161  1.0000
  H   H707      1.0  0.93683  0.31201  0.83165  1.0000
  H   H708      1.0  0.03464  0.41960  0.76908  1.0000
  H   H709      1.0  0.11943  0.26012  0.53549  1.0000
  Fe  Fe41      1.0  0.01641  0.23615  0.02212  1.0000
  H   H710      1.0  0.09770  0.42021  0.86716  1.0000
  H   H711      1.0  0.11887  0.42341  0.78005  1.0000
  S   S88       1.0  0.21085  0.26923  0.52381  1.0000
  H   H712      1.0  0.43583  0.42364  0.71335  1.0000
  H   H713      1.0  0.29894  0.42366  0.65762  1.0000
  H   H714      1.0  0.40366  0.38163  0.02253  1.0000
  Fe  Fe42      1.0  0.20154  0.26730  0.05558  1.0000
  H   H715      1.0  0.09272  0.19921  0.25903  1.0000
  H   H716      1.0  0.97774  0.38452  0.21563  1.0000
  C   C414      1.0  0.05193  0.35901  0.22153  1.0000
  Fe  Fe43      1.0  0.28761  0.39832  0.18165  1.0000
  H   H717      1.0  0.31567  0.30178  0.24331  1.0000
  Fe  Fe44      1.0  0.00415  0.26856  0.05476  1.0000
  C   C415      1.0  0.17928  0.25438  0.26199  1.0000
  H   H718      1.0  0.04979  0.41241  0.37464  1.0000
  S   S89       1.0  0.23745  0.24830  0.11599  1.0000
  H   H719      1.0  0.26415  0.30789  0.36701  1.0000
  C   C416      1.0  0.12633  0.41389  0.12418  1.0000
  H   H720      1.0  0.12670  0.19285  0.19984  1.0000
  C   C417      1.0  0.02567  0.22067  0.51523  1.0000
  H   H721      1.0  0.97447  0.32397  0.46227  1.0000
  H   H722      1.0  0.09745  0.23415  0.04471  1.0000
  H   H723      1.0  0.93875  0.39309  0.25367  1.0000
  S   S90       1.0  0.07265  0.17575  0.17894  1.0000
  Fe  Fe45      1.0  0.12961  0.33060  0.16442  1.0000
  C   C418      1.0  0.31687  0.34481  0.09410  1.0000
  Fe  Fe46      1.0  0.98976  0.42130  0.46203  1.0000
  C   C419      1.0  0.16940  0.24792  0.31670  1.0000
  C   C420      1.0  0.23204  0.41115  0.14669  1.0000
  H   H724      1.0  0.21048  0.24289  0.32821  1.0000
  H   H725      1.0  0.95859  0.20453  0.29778  1.0000
  N   N25       1.0  0.32593  0.40943  0.48063  1.0000
  H   H726      1.0  0.08231  0.35673  0.21332  1.0000
  C   C421      1.0  0.30472  0.37803  0.45030  1.0000
  C   C422      1.0  0.02402  0.36508  0.40324  1.0000
  H   H727      1.0  0.04744  0.39710  0.43884  1.0000
  H   H728      1.0  0.22345  0.34228  0.04451  1.0000
  C   C423      1.0  0.02755  0.22449  0.35868  1.0000
  H   H729      1.0  0.08974  0.21179  0.33268  1.0000
  C   C424      1.0  0.98476  0.38388  0.30815  1.0000
  H   H730      1.0  0.07003  0.35498  0.06273  1.0000
  H   H731      1.0  0.13721  0.17826  0.23928  1.0000
  C   C425      1.0  0.22277  0.38336  0.39095  1.0000
  Fe  Fe47      1.0  0.96541  0.21160  0.11197  1.0000
  C   C426      1.0  0.03318  0.17451  0.02851  1.0000
  C   C427      1.0  0.11937  0.23792  0.47810  1.0000
  H   H732      1.0  0.33335  0.38360  0.46911  1.0000
  H   H733      1.0  0.34331  0.40981  0.40733  1.0000
  H   H734      1.0  0.29283  0.30981  0.30572  1.0000
  H   H735      1.0  0.02552  0.22440  0.39717  1.0000
  H   H736      1.0  0.02866  0.20033  0.04733  1.0000
  C   C428      1.0  0.05181  0.25423  0.16409  1.0000
  H   H737      1.0  0.03434  0.35188  0.11923  1.0000
  H   H738      1.0  0.29300  0.26778  0.29046  1.0000
  H   H739      1.0  0.98799  0.27073  0.37448  1.0000
  S   S91       1.0  0.01267  0.23714  0.51942  1.0000
  C   C429      1.0  0.12040  0.20614  0.09852  1.0000
  H   H740      1.0  0.01051  0.20747  0.36784  1.0000
  C   C430      1.0  0.94180  0.27400  0.05015  1.0000
  C   C431      1.0  0.13093  0.24901  0.10558  1.0000
  H   H741      1.0  0.00757  0.36906  0.47137  1.0000
  H   H742      1.0  0.12480  0.21532  0.23552  1.0000
  H   H743      1.0  0.31978  0.35968  0.42288  1.0000
  H   H744      1.0  0.18462  0.27588  0.18206  1.0000
  C   C432      1.0  0.04561  0.19414  0.50180  1.0000
  C   C433      1.0  0.08458  0.42325  0.37206  1.0000
  Fe  Fe48      1.0  0.25192  0.28407  0.04115  1.0000
  C   C434      1.0  0.10666  0.20361  0.27314  1.0000
  C   C435      1.0  0.14932  0.25042  0.06793  1.0000
  H   H745      1.0  0.93761  0.22738  0.07228  1.0000
  H   H746      1.0  0.97195  0.40327  0.26763  1.0000
  Fe  Fe49      1.0  0.21354  0.22906  0.08520  1.0000
  C   C436      1.0  0.09191  0.27586  0.15774  1.0000
  H   H747      1.0  0.96732  0.24375  0.33342  1.0000
  C   C437      1.0  0.94210  0.37373  0.46759  1.0000
  C   C438      1.0  0.12138  0.17476  0.23258  1.0000
  S   S92       1.0  0.12649  0.35981  0.17609  1.0000
  H   H748      1.0  0.23060  0.23998  0.35273  1.0000
  C   C439      1.0  0.10207  0.20455  0.13655  1.0000
  N   N26       1.0  0.19487  0.33428  0.46166  1.0000
  H   H749      1.0  0.12184  0.40176  0.16656  1.0000
  C   C440      1.0  0.24882  0.31357  0.15617  1.0000
  H   H750      1.0  0.23403  0.27000  0.38352  1.0000
  H   H751      1.0  0.14473  0.17624  0.51617  1.0000
  H   H752      1.0  0.18012  0.22635  0.42255  1.0000
  H   H753      1.0  0.15565  0.30505  0.50334  1.0000
  C   C441      1.0  0.19318  0.30705  0.36520  1.0000
  C   C442      1.0  0.36046  0.41240  0.50311  1.0000
  C   C443      1.0  0.05450  0.36393  0.43067  1.0000
  C   C444      1.0  0.96165  0.37034  0.25765  1.0000
  H   H754      1.0  0.02449  0.26851  0.21992  1.0000
  C   C445      1.0  0.26936  0.29121  0.27522  1.0000
  S   S93       1.0  0.02297  0.40654  0.09531  1.0000
  H   H755      1.0  0.12461  0.19751  0.34378  1.0000
  H   H756      1.0  0.17084  0.33946  0.39989  1.0000
  H   H757      1.0  0.05019  0.22012  0.30221  1.0000
  S   S94       1.0  0.25268  0.38339  0.25238  1.0000
  H   H758      1.0  0.29304  0.35377  0.41700  1.0000
  H   H759      1.0  0.06934  0.22522  0.41774  1.0000
  H   H760      1.0  0.16860  0.19445  0.08110  1.0000
  H   H761      1.0  0.36281  0.40087  0.48643  1.0000
  H   H762      1.0  0.08639  0.31788  0.07322  1.0000
  C   C446      1.0  0.25797  0.31809  0.29514  1.0000
  H   H763      1.0  0.30035  0.41515  0.46085  1.0000
  H   H764      1.0  0.27733  0.33321  0.26146  1.0000
  H   H765      1.0  0.24646  0.22672  0.47150  1.0000
  H   H766      1.0  0.14243  0.17947  0.07229  1.0000
  H   H767      1.0  0.99923  0.32595  0.34147  1.0000
  C   C447      1.0  0.09839  0.29907  0.11875  1.0000
  S   S95       1.0  0.13415  0.34122  0.28266  1.0000
  H   H768      1.0  0.99876  0.22545  0.29978  1.0000
  C   C448      1.0  0.10708  0.22147  0.29483  1.0000
  H   H769      1.0  0.08327  0.29444  0.51869  1.0000
  H   H770      1.0  0.23292  0.23689  0.51031  1.0000
  H   H771      1.0  0.16911  0.35771  0.43102  1.0000
  C   C449      1.0  0.08172  0.29987  0.10202  1.0000
  H   H772      1.0  0.23739  0.34955  0.13107  1.0000
  H   H773      1.0  0.29639  0.38752  0.43651  1.0000
  H   H774      1.0  0.96440  0.25448  0.47176  1.0000
  H   H775      1.0  0.04762  0.32454  0.18528  1.0000
  H   H776      1.0  0.02112  0.37754  0.37525  1.0000
  C   C450      1.0  0.10739  0.22592  0.14056  1.0000
  H   H777      1.0  0.18796  0.18921  0.19312  1.0000
  C   C451      1.0  0.28284  0.29106  0.30907  1.0000
  Fe  Fe50      1.0  0.10264  0.32981  0.26553  1.0000
  C   C452      1.0  0.24131  0.36091  0.02616  1.0000
  C   C453      1.0  0.19559  0.31663  0.50685  1.0000
  C   C454      1.0  0.00426  0.24950  0.38360  1.0000
  H   H778      1.0  0.05498  0.33925  0.39855  1.0000
  H   H779      1.0  0.18555  0.28788  0.37092  1.0000
  C   C455      1.0  0.97866  0.33979  0.46998  1.0000
  S   S96       1.0  0.31815  0.39700  0.18899  1.0000
  S   S97       1.0  0.07446  0.41755  0.09048  1.0000
  H   H780      1.0  0.36705  0.34951  0.51502  1.0000
  C   C456      1.0  0.05688  0.40287  0.39507  1.0000
  H   H781      1.0  0.32226  0.38435  0.36873  1.0000
  H   H782      1.0  0.94854  0.37361  0.33053  1.0000
  H   H783      1.0  0.08579  0.39595  0.32440  1.0000
  H   H784      1.0  0.96510  0.33165  0.51281  1.0000
  H   H785      1.0  0.04560  0.36097  0.47204  1.0000
  H   H786      1.0  0.11178  0.25742  0.26739  1.0000
  C   C457      1.0  0.95228  0.21213  0.32138  1.0000
  H   H787      1.0  0.38638  0.42156  0.05677  1.0000
  H   H788      1.0  0.12797  0.30404  0.46499  1.0000
  H   H789      1.0  0.16877  0.29514  0.44552  1.0000
  H   H790      1.0  0.06393  0.23531  0.20893  1.0000
  S   S98       1.0  0.18283  0.22966  0.13093  1.0000
  H   H791      1.0  0.12547  0.32080  0.49993  1.0000
  Fe  Fe51      1.0  0.03614  0.39818  0.15558  1.0000
  H   H792      1.0  0.18140  0.38344  0.26651  1.0000
  C   C458      1.0  0.03007  0.32453  0.33338  1.0000
  C   C459      1.0  0.03310  0.24940  0.31604  1.0000
  H   H793      1.0  0.96137  0.33972  0.14873  1.0000
  H   H794      1.0  0.06016  0.21282  0.13815  1.0000
  S   S99       1.0  0.01211  0.36048  0.23460  1.0000
  H   H795      1.0  0.20016  0.22322  0.44759  1.0000
  H   H796      1.0  0.02153  0.31114  0.37669  1.0000
  S   S100      1.0  0.02224  0.22654  0.19362  1.0000
  H   H797      1.0  0.29008  0.35451  0.31483  1.0000
  H   H798      1.0  0.94081  0.41302  0.32872  1.0000
  H   H799      1.0  0.22091  0.40872  0.41792  1.0000
  H   H800      1.0  0.13118  0.33310  0.43008  1.0000
  H   H801      1.0  0.30146  0.29442  0.07639  1.0000
  C   C460      1.0  0.38824  0.42069  0.09343  1.0000
  H   H802      1.0  0.26991  0.27587  0.35290  1.0000
  H   H803      1.0  0.09320  0.22478  0.16987  1.0000
  Fe  Fe52      1.0  0.13674  0.31326  0.26357  1.0000
  C   C461      1.0  0.32808  0.39590  0.45051  1.0000
  H   H804      1.0  0.23117  0.18228  0.37918  1.0000
  H   H805      1.0  0.26618  0.34243  0.38108  1.0000
  Fe  Fe53      1.0  0.20809  0.25182  0.15592  1.0000
  C   C462      1.0  0.23821  0.29334  0.25665  1.0000
  C   C463      1.0  0.30195  0.28663  0.28705  1.0000
  C   C464      1.0  0.08765  0.24254  0.05312  1.0000
  H   H806      1.0  0.23537  0.27786  0.24841  1.0000
  H   H807      1.0  0.94073  0.21666  0.30751  1.0000
  H   H808      1.0  0.04910  0.22702  0.10008  1.0000
  H   H809      1.0  0.24754  0.32557  0.28523  1.0000
  C   C465      1.0  0.23796  0.37344  0.06003  1.0000
  C   C466      1.0  0.95405  0.35016  0.13290  1.0000
  H   H810      1.0  0.94090  0.19735  0.36581  1.0000
  H   H811      1.0  0.03949  0.25059  0.27581  1.0000
  H   H812      1.0  0.98423  0.25044  0.26670  1.0000
  H   H813      1.0  0.04261  0.32131  0.51881  1.0000
  H   H814      1.0  0.09511  0.23822  0.24353  1.0000
  S   S101      1.0  0.22488  0.28970  0.08354  1.0000
  H   H815      1.0  0.99745  0.23056  0.41640  1.0000
  H   H816      1.0  0.28366  0.30728  0.23259  1.0000
  H   H817      1.0  0.22812  0.36382  0.45328  1.0000
  C   C467      1.0  0.25638  0.31724  0.34940  1.0000
  H   H818      1.0  0.02644  0.33467  0.08455  1.0000
  H   H819      1.0  0.07509  0.38557  0.03924  1.0000
  H   H820      1.0  0.15065  0.25345  0.37584  1.0000
  C   C468      1.0  0.15812  0.25850  0.33360  1.0000
  H   H821      1.0  0.21968  0.28911  0.27552  1.0000
  H   H822      1.0  0.22210  0.36370  0.14489  1.0000
  S   S102      1.0  0.99291  0.20306  0.10859  1.0000
  H   H823      1.0  0.16344  0.33032  0.51469  1.0000
  H   H824      1.0  0.20007  0.35534  0.02868  1.0000
  C   C469      1.0  0.16118  0.18459  0.06036  1.0000
  C   C470      1.0  0.98347  0.25242  0.40410  1.0000
  H   H825      1.0  0.13476  0.23829  0.48272  1.0000
  C   C471      1.0  0.23476  0.40877  0.38864  1.0000
  C   C472      1.0  0.26998  0.34390  0.34071  1.0000
  H   H826      1.0  0.05419  0.20508  0.08865  1.0000
  C   C473      1.0  0.18878  0.30541  0.42027  1.0000
  C   C474      1.0  0.05358  0.33325  0.29739  1.0000
  H   H827      1.0  0.31597  0.37586  0.04912  1.0000
  S   S103      1.0  0.17940  0.27823  0.02715  1.0000
  H   H828      1.0  0.94105  0.33429  0.23754  1.0000
  H   H829      1.0  0.17039  0.23465  0.34619  1.0000
  S   S104      1.0  0.96679  0.40605  0.42479  1.0000
  C   C475      1.0  0.06552  0.40482  0.28645  1.0000
  H   H830      1.0  0.16188  0.18241  0.32050  1.0000
  C   C476      1.0  0.23595  0.39119  0.22510  1.0000
  H   H831      1.0  0.07161  0.33451  0.46221  1.0000
  H   H832      1.0  0.11641  0.18960  0.09604  1.0000
  H   H833      1.0  0.04776  0.39391  0.28731  1.0000
  C   C477      1.0  0.06639  0.38718  0.33347  1.0000
  S   S105      1.0  0.28761  0.38477  0.12235  1.0000
  H   H834      1.0  0.20543  0.37307  0.30424  1.0000
  H   H835      1.0  0.37970  0.38632  0.03324  1.0000
  C   C478      1.0  0.11075  0.24448  0.25189  1.0000
  C   C479      1.0  0.12310  0.18615  0.32369  1.0000
  H   H836      1.0  0.39182  0.42100  0.51579  1.0000
  C   C480      1.0  0.31266  0.35803  0.05544  1.0000
  C   C481      1.0  0.24543  0.40484  0.16817  1.0000
  H   H837      1.0  0.98086  0.40817  0.03371  1.0000
  H   H838      1.0  0.25366  0.35585  0.03382  1.0000
  H   H839      1.0  0.10493  0.27529  0.17028  1.0000
  S   S106      1.0  0.19431  0.24129  0.24387  1.0000
  H   H840      1.0  0.14072  0.19900  0.28426  1.0000
  C   C482      1.0  0.05835  0.27755  0.12531  1.0000
  H   H841      1.0  0.09622  0.25421  0.06996  1.0000
  C   C483      1.0  0.23603  0.22211  0.51363  1.0000
  H   H842      1.0  0.41163  0.42130  0.15289  1.0000
  Fe  Fe54      1.0  0.00904  0.23203  0.13215  1.0000
  H   H843      1.0  0.21387  0.32006  0.49121  1.0000
  H   H844      1.0  0.97861  0.36423  0.33484  1.0000
  H   H845      1.0  0.21162  0.18432  0.35140  1.0000
  H   H846      1.0  0.21292  0.27287  0.36500  1.0000
  H   H847      1.0  0.97661  0.35309  0.44170  1.0000
  H   H848      1.0  0.99580  0.26669  0.45442  1.0000
  H   H849      1.0  0.96242  0.26225  0.07765  1.0000
  S   S107      1.0  0.31999  0.32681  0.52066  1.0000
  H   H850      1.0  0.18395  0.31452  0.34804  1.0000
  C   C484      1.0  0.16610  0.28191  0.24130  1.0000
  H   H851      1.0  0.00318  0.18295  0.47229  1.0000
  C   C485      1.0  0.16269  0.33835  0.43906  1.0000
  H   H852      1.0  0.01751  0.30266  0.19582  1.0000
  H   H853      1.0  0.23711  0.38448  0.36023  1.0000
  N   N27       1.0  0.24861  0.29337  0.29555  1.0000
  H   H854      1.0  0.03176  0.36539  0.05958  1.0000
  S   S108      1.0  0.03478  0.26458  0.04461  1.0000
  C   C486      1.0  0.31288  0.32190  0.10169  1.0000
  C   C487      1.0  0.29979  0.41401  0.32429  1.0000
  C   C488      1.0  0.13509  0.32305  0.46008  1.0000
  C   C489      1.0  0.97430  0.23620  0.31118  1.0000
  C   C490      1.0  0.21296  0.38377  0.26043  1.0000
  C   C491      1.0  0.21182  0.36107  0.44906  1.0000
  H   H855      1.0  0.29437  0.39542  0.32843  1.0000
  C   C492      1.0  0.20400  0.33227  0.41223  1.0000
  H   H856      1.0  0.06607  0.23910  0.32774  1.0000
  S   S109      1.0  0.97932  0.23767  0.14364  1.0000
  C   C493      1.0  0.97880  0.25154  0.45863  1.0000
  C   C494      1.0  0.21689  0.24423  0.35829  1.0000
  H   H857      1.0  0.04487  0.27861  0.11576  1.0000
  C   C495      1.0  0.04846  0.22215  0.33853  1.0000
  S   S110      1.0  0.19080  0.40855  0.15614  1.0000
  C   C496      1.0  0.06871  0.25335  0.17991  1.0000
  C   C497      1.0  0.03607  0.30715  0.18488  1.0000
  H   H858      1.0  0.96354  0.35454  0.27266  1.0000
  H   H859      1.0  0.07438  0.37430  0.41790  1.0000
  C   C498      1.0  0.19938  0.38968  0.23900  1.0000
  H   H860      1.0  0.01936  0.34938  0.39475  1.0000
  C   C499      1.0  0.06498  0.36698  0.04204  1.0000
  C   C500      1.0  0.03447  0.28492  0.22464  1.0000
  C   C501      1.0  0.25370  0.31841  0.20015  1.0000
  C   C502      1.0  0.15641  0.27552  0.29617  1.0000
  H   H861      1.0  0.26369  0.35460  0.32074  1.0000
  H   H862      1.0  0.31175  0.28712  0.31126  1.0000
  H   H863      1.0  0.04917  0.26559  0.31236  1.0000
  H   H864      1.0  0.04461  0.20500  0.37145  1.0000
  H   H865      1.0  0.00252  0.39399  0.27109  1.0000
  Fe  Fe55      1.0  0.01814  0.41319  0.51931  1.0000
  H   H866      1.0  0.10902  0.40994  0.12461  1.0000
  C   C503      1.0  0.16872  0.32609  0.48211  1.0000
  C   C504      1.0  0.02844  0.35028  0.25756  1.0000
  H   H867      1.0  0.15080  0.18700  0.37607  1.0000
  S   S111      1.0  0.16316  0.34198  0.17384  1.0000
  C   C505      1.0  0.31041  0.36848  0.41222  1.0000
  H   H868      1.0  0.24973  0.41247  0.39898  1.0000
  C   C506      1.0  0.99137  0.23073  0.32830  1.0000
  C   C507      1.0  0.06441  0.35034  0.24138  1.0000
  C   C508      1.0  0.93894  0.35830  0.51777  1.0000
  H   H869      1.0  0.22325  0.33840  0.39879  1.0000
  C   C509      1.0  0.00460  0.35380  0.46243  1.0000
  H   H870      1.0  0.05188  0.24864  0.42961  1.0000
  H   H871      1.0  0.12588  0.25765  0.45061  1.0000
  H   H872      1.0  0.03578  0.29248  0.28904  1.0000
  H   H873      1.0  0.98751  0.39391  0.33124  1.0000
  N   N28       1.0  0.05043  0.37974  0.39059  1.0000
  H   H874      1.0  0.11320  0.22666  0.45869  1.0000
  C   C510      1.0  0.05147  0.32372  0.47820  1.0000
  H   H875      1.0  0.08873  0.26251  0.50835  1.0000
  H   H876      1.0  0.16460  0.29483  0.21226  1.0000
  H   H877      1.0  0.25984  0.33186  0.11664  1.0000
  H   H878      1.0  0.06765  0.42120  0.28949  1.0000
  H   H879      1.0  0.38294  0.40143  0.12006  1.0000
  H   H880      1.0  0.09233  0.41492  0.39301  1.0000
  S   S112      1.0  0.05727  0.17740  0.48951  1.0000
  H   H881      1.0  0.06024  0.37195  0.17821  1.0000
  H   H882      1.0  0.23686  0.30650  0.38054  1.0000
  H   H883      1.0  0.28635  0.41043  0.36181  1.0000
  H   H884      1.0  0.13497  0.26558  0.10845  1.0000
  H   H885      1.0  0.12807  0.25519  0.21297  1.0000
  H   H886      1.0  0.15841  0.22983  0.03681  1.0000
  N   N29       1.0  0.10165  0.17921  0.31299  1.0000
  C   C511      1.0  0.96555  0.38332  0.29206  1.0000
  H   H887      1.0  0.20549  0.34580  0.37605  1.0000
  H   H888      1.0  0.24871  0.33123  0.20395  1.0000
  C   C512      1.0  0.19476  0.22338  0.41539  1.0000
  H   H889      1.0  0.20879  0.38112  0.37819  1.0000
  S   S113      1.0  0.06792  0.32123  0.32465  1.0000
  H   H890      1.0  0.18720  0.20465  0.41856  1.0000
  C   C513      1.0  0.17738  0.27115  0.22426  1.0000
  H   H891      1.0  0.25406  0.30124  0.14986  1.0000
  H   H892      1.0  0.29123  0.36103  0.49211  1.0000
  H   H893      1.0  0.20237  0.36418  0.47987  1.0000
  H   H894      1.0  0.22637  0.37984  0.05405  1.0000
  S   S114      1.0  0.10330  0.29964  0.25297  1.0000
  C   C514      1.0  0.20895  0.40345  0.18214  1.0000
  C   C515      1.0  0.30439  0.34829  0.02439  1.0000
  C   C516      1.0  0.04478  0.23066  0.46424  1.0000
  H   H895      1.0  0.04442  0.30461  0.48358  1.0000
  H   H896      1.0  0.02045  0.26375  0.38379  1.0000
  C   C517      1.0  0.30464  0.31218  0.07049  1.0000
  C   C518      1.0  0.22550  0.35476  0.12153  1.0000
  Fe  Fe56      1.0  0.15804  0.36895  0.19221  1.0000
  C   C519      1.0  0.06113  0.22060  0.09755  1.0000
  N   N30       1.0  0.93791  0.36107  0.25570  1.0000
  H   H897      1.0  0.26292  0.27405  0.27160  1.0000
  H   H898      1.0  0.20166  0.19651  0.52192  1.0000
  Fe  Fe57      1.0  0.32032  0.38671  0.12425  1.0000
  H   H899      1.0  0.31593  0.31158  0.13196  1.0000
  H   H900      1.0  0.06237  0.27627  0.49990  1.0000
  H   H901      1.0  0.05350  0.29058  0.21218  1.0000
  C   C520      1.0  0.05464  0.21739  0.45749  1.0000
  H   H902      1.0  0.25602  0.39017  0.04811  1.0000
  S   S115      1.0  0.20854  0.19447  0.08679  1.0000
  S   S116      1.0  0.32638  0.35666  0.13394  1.0000
  C   C521      1.0  0.03769  0.35391  0.07845  1.0000
  S   S117      1.0  0.12660  0.32747  0.09308  1.0000
  N   N31       1.0  0.01207  0.25174  0.32811  1.0000
  H   H903      1.0  0.13453  0.40887  0.09642  1.0000
  H   H904      1.0  0.97968  0.21308  0.36961  1.0000
  H   H905      1.0  0.94611  0.37575  0.14203  1.0000
  H   H906      1.0  0.27359  0.32863  0.18540  1.0000
  H   H907      1.0  0.96636  0.36326  0.08786  1.0000
  C   C522      1.0  0.02185  0.27796  0.28488  1.0000
  H   H908      1.0  0.97246  0.23277  0.49117  1.0000
  H   H909      1.0  0.97205  0.37971  0.14916  1.0000
  H   H910      1.0  0.02554  0.32508  0.45413  1.0000
  H   H911      1.0  0.28159  0.41883  0.27841  1.0000
  C   C523      1.0  0.22808  0.27081  0.35206  1.0000
  C   C524      1.0  0.14411  0.22891  0.06493  1.0000
  H   H912      1.0  0.26290  0.41023  0.14057  1.0000
  H   H913      1.0  0.21302  0.31989  0.33518  1.0000
  H   H914      1.0  0.06088  0.37006  0.33018  1.0000
  H   H915      1.0  0.22912  0.30433  0.16838  1.0000
  H   H916      1.0  0.17602  0.23964  0.49673  1.0000
  H   H917      1.0  0.12237  0.22866  0.30399  1.0000
  C   C525      1.0  0.96306  0.27807  0.05181  1.0000
  H   H918      1.0  0.42419  0.41107  0.27347  1.0000
  C   C526      1.0  0.08602  0.41562  0.23043  1.0000
  H   H919      1.0  0.00731  0.28100  0.29065  1.0000
  H   H920      1.0  0.96606  0.23639  0.41191  1.0000
  C   C527      1.0  0.93764  0.38367  0.22929  1.0000
  H   H921      1.0  0.18204  0.29638  0.52056  1.0000
  S   S118      1.0  0.14145  0.28735  0.32178  1.0000
  C   C528      1.0  0.95313  0.36543  0.16009  1.0000
  H   H922      1.0  0.08592  0.40018  0.22609  1.0000
  C   C529      1.0  0.01745  0.33286  0.31347  1.0000
  C   C530      1.0  0.04566  0.33744  0.43795  1.0000
  H   H923      1.0  0.04457  0.31099  0.14261  1.0000
  H   H924      1.0  0.95435  0.39853  0.18820  1.0000
  H   H925      1.0  0.00527  0.34004  0.49337  1.0000
  H   H926      1.0  0.19416  0.29372  0.44106  1.0000
  H   H927      1.0  0.20758  0.33726  0.13544  1.0000
  H   H928      1.0  0.96666  0.18699  0.04426  1.0000
  C   C531      1.0  0.30066  0.32555  0.03147  1.0000
  H   H929      1.0  0.23926  0.42131  0.10269  1.0000
  S   S119      1.0  0.98804  0.24305  0.02374  1.0000
  H   H930      1.0  0.37544  0.42364  0.11632  1.0000
  H   H931      1.0  0.27249  0.60758  0.81398  1.0000
  H   H932      1.0  0.97950  0.45626  0.82407  1.0000
  H   H933      1.0  0.31852  0.51288  0.69853  1.0000
  H   H934      1.0  0.09596  0.43035  0.53558  1.0000
  H   H935      1.0  0.32779  0.59222  0.87207  1.0000
  H   H936      1.0  0.05000  0.65208  0.99954  1.0000
  N   N32       1.0  0.98007  0.47884  0.72249  1.0000
  Fe  Fe58      1.0  0.36484  0.43611  0.70547  1.0000
  S   S120      1.0  0.17382  0.53786  0.58323  1.0000
  C   C532      1.0  0.19578  0.62699  0.64795  1.0000
  C   C533      1.0  0.28673  0.61066  0.77899  1.0000
  C   C534      1.0  0.42435  0.63465  0.74554  1.0000
  H   H937      1.0  0.97083  0.46548  0.89743  1.0000
  H   H938      1.0  0.40101  0.52815  0.63644  1.0000
  H   H939      1.0  0.36968  0.49506  0.59366  1.0000
  C   C535      1.0  0.03483  0.59078  0.58098  1.0000
  H   H940      1.0  0.01855  0.64978  0.97658  1.0000
  H   H941      1.0  0.94328  0.42729  0.75967  1.0000
  C   C536      1.0  0.05910  0.42576  0.61213  1.0000
  H   H942      1.0  0.94430  0.52103  0.98032  1.0000
  H   H943      1.0  0.05448  0.48569  0.95467  1.0000
  S   S121      1.0  0.38533  0.45489  0.74245  1.0000
  C   C537      1.0  0.10147  0.44867  0.53317  1.0000
  H   H944      1.0  0.94426  0.66091  0.73402  1.0000
  C   C538      1.0  0.03491  0.61307  0.72782  1.0000
  H   H945      1.0  0.08047  0.54263  0.87781  1.0000
  C   C539      1.0  0.09134  0.53420  0.93817  1.0000
  H   H946      1.0  0.32751  0.43154  0.87530  1.0000
  H   H947      1.0  0.40392  0.42930  0.70502  1.0000
  C   C540      1.0  0.31577  0.49522  0.70171  1.0000
  C   C541      1.0  0.05312  0.42493  0.92733  1.0000
  C   C542      1.0  0.20609  0.61806  0.68256  1.0000
  H   H948      1.0  0.19863  0.59683  0.84531  1.0000
  C   C543      1.0  0.17888  0.43808  0.64223  1.0000
  H   H949      1.0  0.33140  0.58530  0.77331  1.0000
  C   C544      1.0  0.34481  0.64792  0.64220  1.0000
  H   H950      1.0  0.21899  0.61589  0.65777  1.0000
  S   S122      1.0  0.93819  0.53468  0.69773  1.0000
  C   C545      1.0  0.26320  0.47861  0.63220  1.0000
  H   H951      1.0  0.41080  0.61884  0.74352  1.0000
  S   S123      1.0  0.97920  0.44625  0.60536  1.0000
  H   H952      1.0  0.94654  0.46217  0.71763  1.0000
  C   C546      1.0  0.29545  0.59480  0.93261  1.0000
  H   H953      1.0  0.00337  0.62229  0.97205  1.0000
  H   H954      1.0  0.04964  0.63841  0.82488  1.0000
  C   C547      1.0  0.95944  0.52818  0.89829  1.0000
  H   H955      1.0  0.14772  0.43409  0.99666  1.0000
  H   H956      1.0  0.22936  0.52582  0.01577  1.0000
  H   H957      1.0  0.00967  0.65443  0.87832  1.0000
  C   C548      1.0  0.97802  0.47232  0.81556  1.0000
  C   C549      1.0  0.28069  0.47873  0.65562  1.0000
  Fe  Fe59      1.0  0.16659  0.65803  0.63133  1.0000
  C   C550      1.0  0.19525  0.46375  0.60021  1.0000
  H   H958      1.0  0.98893  0.64699  0.58110  1.0000
  H   H959      1.0  0.04641  0.55221  0.60542  1.0000
  Fe  Fe60      1.0  0.38256  0.61705  0.93519  1.0000
  C   C551      1.0  0.04633  0.53656  0.60214  1.0000
  H   H960      1.0  0.30126  0.63135  0.75040  1.0000
  C   C552      1.0  0.43005  0.51695  0.57119  1.0000
  S   S124      1.0  0.34074  0.44598  0.68388  1.0000
  H   H961      1.0  0.18697  0.61329  0.63533  1.0000
  C   C553      1.0  0.27452  0.60073  0.74787  1.0000
  C   C554      1.0  0.31442  0.47170  0.97122  1.0000
  C   C555      1.0  0.93750  0.51402  0.95498  1.0000
  H   H962      1.0  0.08004  0.50164  0.59105  1.0000
  H   H963      1.0  0.95604  0.52241  0.61904  1.0000
  H   H964      1.0  0.41959  0.52278  0.55580  1.0000
  H   H965      1.0  0.01086  0.62946  0.54492  1.0000
  H   H966      1.0  0.36205  0.59107  0.83206  1.0000
  H   H967      1.0  0.01482  0.44656  0.94326  1.0000
  H   H968      1.0  0.07259  0.59075  0.97143  1.0000
  H   H969      1.0  0.01136  0.51870  0.60596  1.0000
  C   C556      1.0  0.06557  0.65252  0.63267  1.0000
  S   S125      1.0  0.97386  0.55168  0.75122  1.0000
  C   C557      1.0  0.38371  0.66380  0.64154  1.0000
  H   H970      1.0  0.22778  0.53805  0.92914  1.0000
  C   C558      1.0  0.33978  0.59420  0.79449  1.0000
  H   H971      1.0  0.08184  0.53976  0.96179  1.0000
  H   H972      1.0  0.34666  0.55408  0.54214  1.0000
  N   N33       1.0  0.04314  0.65777  0.86494  1.0000
  H   H973      1.0  0.98947  0.45882  0.68895  1.0000
  H   H974      1.0  0.12561  0.43835  0.98412  1.0000
  H   H975      1.0  0.02504  0.63218  0.67597  1.0000
  H   H976      1.0  0.05885  0.50306  0.56903  1.0000
  C   C559      1.0  0.21814  0.54062  0.96066  1.0000
  C   C560      1.0  0.21199  0.52235  0.01759  1.0000
  H   H977      1.0  0.29899  0.52169  0.65442  1.0000
  S   S126      1.0  0.42104  0.61112  0.64898  1.0000
  H   H978      1.0  0.03177  0.45720  0.61254  1.0000
  H   H979      1.0  0.02079  0.49830  0.62319  1.0000
  H   H980      1.0  0.03611  0.44439  0.69478  1.0000
  H   H981      1.0  0.29370  0.57723  0.95656  1.0000
  H   H982      1.0  0.35446  0.58951  0.55757  1.0000
  S   S127      1.0  0.37697  0.61123  0.01839  1.0000
  H   H983      1.0  0.20671  0.53539  0.70808  1.0000
  H   H984      1.0  0.29301  0.46571  0.58401  1.0000
  H   H985      1.0  0.42302  0.49182  0.95150  1.0000
  H   H986      1.0  0.06270  0.46894  0.56874  1.0000
  C   C561      1.0  0.13890  0.43409  0.97044  1.0000
  C   C562      1.0  0.06132  0.43713  0.87094  1.0000
  H   H987      1.0  0.04840  0.61766  0.74296  1.0000
  H   H988      1.0  0.14034  0.50489  0.90077  1.0000
  H   H989      1.0  0.02036  0.60422  0.92798  1.0000
  H   H990      1.0  0.14759  0.66362  0.92765  1.0000
  H   H991      1.0  0.29409  0.46860  0.92719  1.0000
  H   H992      1.0  0.28321  0.42456  0.86070  1.0000
  H   H993      1.0  0.41519  0.49708  0.82959  1.0000
  H   H994      1.0  0.15392  0.53039  0.80204  1.0000
  H   H995      1.0  0.43489  0.51782  0.73526  1.0000
  H   H996      1.0  0.95357  0.52043  0.87300  1.0000
  C   C563      1.0  0.10452  0.50600  0.73859  1.0000
  H   H997      1.0  0.95629  0.66762  0.59053  1.0000
  H   H998      1.0  0.27950  0.60326  0.88183  1.0000
  H   H999      1.0  0.19681  0.65069  0.88637  1.0000
  S   S128      1.0  0.41080  0.65192  0.85128  1.0000
  H   H1000     1.0  0.07438  0.61877  0.93522  1.0000
  H   H1001     1.0  0.30483  0.56756  0.86972  1.0000
  Fe  Fe61      1.0  0.18682  0.52738  0.52380  1.0000
  H   H1002     1.0  0.31772  0.45206  0.86968  1.0000
  H   H1003     1.0  0.21439  0.47189  0.57616  1.0000
  H   H1004     1.0  0.06947  0.65091  0.87522  1.0000
  C   C564      1.0  0.02004  0.51312  0.62887  1.0000
  C   C565      1.0  0.05048  0.46544  0.60776  1.0000
  C   C566      1.0  0.38348  0.55352  0.82498  1.0000
  C   C567      1.0  0.40288  0.51285  0.65583  1.0000
  H   H1005     1.0  0.94416  0.61374  0.63741  1.0000
  C   C568      1.0  0.31957  0.58846  0.84567  1.0000
  C   C569      1.0  0.37764  0.51004  0.55243  1.0000
  H   H1006     1.0  0.13610  0.61974  0.01960  1.0000
  H   H1007     1.0  0.40024  0.50966  0.69705  1.0000
  C   C570      1.0  0.94352  0.47179  0.54649  1.0000
  C   C571      1.0  0.08716  0.44427  0.58909  1.0000
  C   C572      1.0  0.31603  0.51480  0.95866  1.0000
  C   C573      1.0  0.30368  0.47956  0.94287  1.0000
  S   S129      1.0  0.07495  0.43144  0.94956  1.0000
  H   H1008     1.0  0.09288  0.43630  0.61742  1.0000
  C   C574      1.0  0.32717  0.48629  0.99049  1.0000
  C   C575      1.0  0.40743  0.45002  0.74711  1.0000
  H   H1009     1.0  0.27012  0.48188  0.59014  1.0000
  H   H1010     1.0  0.97662  0.63106  0.54733  1.0000
  N   N34       1.0  0.19395  0.57896  0.76788  1.0000
  S   S130      1.0  0.31476  0.54017  0.95474  1.0000
  S   S131      1.0  0.10452  0.49719  0.65475  1.0000
  S   S132      1.0  0.09863  0.65138  0.76273  1.0000
  H   H1011     1.0  0.96145  0.48390  0.86449  1.0000
  H   H1012     1.0  0.17935  0.54890  0.84985  1.0000
  H   H1013     1.0  0.40739  0.66392  0.93614  1.0000
  H   H1014     1.0  0.08254  0.60459  0.89899  1.0000
  C   C576      1.0  0.95748  0.45161  0.59928  1.0000
  Fe  Fe62      1.0  0.99637  0.44119  0.53886  1.0000
  C   C577      1.0  0.33232  0.49148  0.72279  1.0000
  S   S133      1.0  0.96596  0.59184  0.67794  1.0000
  H   H1015     1.0  0.11086  0.55078  0.90972  1.0000
  H   H1016     1.0  0.05192  0.48333  0.87761  1.0000
  N   N35       1.0  0.43549  0.52502  0.87753  1.0000
  H   H1017     1.0  0.96227  0.56783  0.01348  1.0000
  C   C578      1.0  0.16456  0.65637  0.85061  1.0000
  C   C579      1.0  0.42815  0.65887  0.70723  1.0000
  H   H1018     1.0  0.36623  0.66881  0.86930  1.0000
  H   H1019     1.0  0.93930  0.62862  0.58411  1.0000
  H   H1020     1.0  0.16070  0.64500  0.83039  1.0000
  C   C580      1.0  0.31281  0.48139  0.56069  1.0000
  C   C581      1.0  0.03088  0.49012  0.84029  1.0000
  H   H1021     1.0  0.96372  0.50340  0.60137  1.0000
  C   C582      1.0  0.18676  0.47869  0.58853  1.0000
  H   H1022     1.0  0.95147  0.49967  0.71358  1.0000
  C   C583      1.0  0.95093  0.63224  0.60392  1.0000
  S   S134      1.0  0.35531  0.59358  0.66367  1.0000
  H   H1023     1.0  0.39602  0.49996  0.93179  1.0000
  C   C584      1.0  0.98436  0.63527  0.81473  1.0000
  H   H1024     1.0  0.05486  0.43210  0.57875  1.0000
  C   C585      1.0  0.00856  0.44881  0.97848  1.0000
  H   H1025     1.0  0.12564  0.64329  0.83276  1.0000
  H   H1026     1.0  0.23912  0.43747  0.66850  1.0000
  H   H1027     1.0  0.30735  0.64691  0.80413  1.0000
  S   S135      1.0  0.27383  0.62575  0.61254  1.0000
  C   C586      1.0  0.03393  0.63756  0.85006  1.0000
  H   H1028     1.0  0.99659  0.49004  0.79642  1.0000
  S   S136      1.0  0.20705  0.51003  0.53220  1.0000
  C   C587      1.0  0.42841  0.52070  0.62067  1.0000
  H   H1029     1.0  0.31426  0.64265  0.85889  1.0000
  H   H1030     1.0  0.22362  0.67277  0.81922  1.0000
  C   C588      1.0  0.08313  0.61405  0.56296  1.0000
  H   H1031     1.0  0.04074  0.64895  0.70416  1.0000
  C   C589      1.0  0.31816  0.43853  0.85752  1.0000
  H   H1032     1.0  0.19930  0.49073  0.00327  1.0000
  H   H1033     1.0  0.34177  0.51180  0.61740  1.0000
  C   C590      1.0  0.40230  0.57529  0.82767  1.0000
  H   H1034     1.0  0.34353  0.63431  0.81756  1.0000
  Fe  Fe63      1.0  0.11571  0.63950  0.71199  1.0000
  C   C591      1.0  0.96581  0.47957  0.69231  1.0000
  C   C592      1.0  0.96250  0.46767  0.87063  1.0000
  H   H1035     1.0  0.18557  0.42666  0.65131  1.0000
  C   C593      1.0  0.03409  0.52000  0.89959  1.0000
  S   S137      1.0  0.31084  0.44315  0.98346  1.0000
  H   H1036     1.0  0.20119  0.53737  0.95984  1.0000
  H   H1037     1.0  0.11580  0.66949  0.92677  1.0000
  Fe  Fe64      1.0  0.97655  0.56657  0.66835  1.0000
  H   H1038     1.0  0.01266  0.50788  0.52989  1.0000
  H   H1039     1.0  0.06730  0.45762  0.65708  1.0000
  H   H1040     1.0  0.42663  0.61251  0.84208  1.0000
  C   C594      1.0  0.03620  0.64894  0.57039  1.0000
  C   C595      1.0  0.96671  0.47512  0.77730  1.0000
  H   H1041     1.0  0.24725  0.64699  0.74911  1.0000
  H   H1042     1.0  0.24481  0.62337  0.80582  1.0000
  S   S138      1.0  0.13959  0.66519  0.62085  1.0000
  C   C596      1.0  0.96398  0.50227  0.67626  1.0000
  S   S139      1.0  0.11380  0.63022  0.54824  1.0000
  H   H1043     1.0  0.32607  0.61091  0.65133  1.0000
  C   C597      1.0  0.15391  0.42714  0.67201  1.0000
  C   C598      1.0  0.03930  0.58803  0.62534  1.0000
  S   S140      1.0  0.00518  0.57745  0.58945  1.0000
  H   H1044     1.0  0.13089  0.55522  0.96780  1.0000
  H   H1045     1.0  0.94363  0.45000  0.89179  1.0000
  H   H1046     1.0  0.25971  0.58069  0.99437  1.0000
  C   C599      1.0  0.16992  0.55111  0.01172  1.0000
  C   C600      1.0  0.16197  0.46808  0.62007  1.0000
  C   C601      1.0  0.21766  0.54192  0.72803  1.0000
  C   C602      1.0  0.33568  0.54957  0.58373  1.0000
  Fe  Fe65      1.0  0.95964  0.57397  0.76386  1.0000
  C   C603      1.0  0.01427  0.60974  0.89829  1.0000
  C   C604      1.0  0.43095  0.43330  0.73106  1.0000
  H   H1047     1.0  0.02415  0.57691  0.66648  1.0000
  H   H1048     1.0  0.99595  0.45860  0.74294  1.0000
  H   H1049     1.0  0.01959  0.44813  0.99910  1.0000
  H   H1050     1.0  0.15710  0.64217  0.89415  1.0000
  H   H1051     1.0  0.28050  0.61499  0.95015  1.0000
  H   H1052     1.0  0.40209  0.56690  0.86720  1.0000
  H   H1053     1.0  0.22962  0.44882  0.71095  1.0000
  H   H1054     1.0  0.32240  0.47468  0.57810  1.0000
  H   H1055     1.0  0.94709  0.45839  0.79989  1.0000
  H   H1056     1.0  0.19682  0.66427  0.68872  1.0000
  C   C605      1.0  0.05558  0.65298  0.89756  1.0000
  H   H1057     1.0  0.14001  0.54548  0.81713  1.0000
  H   H1058     1.0  0.35359  0.61495  0.76520  1.0000
  H   H1059     1.0  0.38824  0.49502  0.66129  1.0000
  C   C606      1.0  0.25677  0.62297  0.57793  1.0000
  H   H1060     1.0  0.41649  0.63092  0.78764  1.0000
  H   H1061     1.0  0.40010  0.47328  0.90113  1.0000
  H   H1062     1.0  0.10947  0.62989  0.95254  1.0000
  H   H1063     1.0  0.28536  0.59930  0.00254  1.0000
  H   H1064     1.0  0.06020  0.51267  0.75547  1.0000
  H   H1065     1.0  0.15334  0.44926  0.92724  1.0000
  C   C607      1.0  0.25572  0.64292  0.54996  1.0000
  C   C608      1.0  0.35333  0.58322  0.80993  1.0000
  H   H1066     1.0  0.32732  0.57624  0.55039  1.0000
  H   H1067     1.0  0.02533  0.50303  0.83015  1.0000
  H   H1068     1.0  0.25812  0.47875  0.01562  1.0000
  Fe  Fe66      1.0  0.12185  0.62995  0.61694  1.0000
  S   S141      1.0  0.42532  0.55488  0.70566  1.0000
  H   H1069     1.0  0.29996  0.52906  0.59035  1.0000
  Fe  Fe67      1.0  0.12614  0.60134  0.71095  1.0000
  C   C609      1.0  0.14972  0.53746  0.82922  1.0000
  S   S142      1.0  0.21460  0.64380  0.99031  1.0000
  H   H1070     1.0  0.24419  0.58453  0.60127  1.0000
  C   C610      1.0  0.07937  0.52623  0.90509  1.0000
  C   C611      1.0  0.41309  0.43671  0.72590  1.0000
  H   H1071     1.0  0.06694  0.59737  0.65061  1.0000
  H   H1072     1.0  0.02335  0.55531  0.95170  1.0000
  H   H1073     1.0  0.34050  0.56216  0.83607  1.0000
  C   C612      1.0  0.40191  0.48981  0.87160  1.0000
  C   C613      1.0  0.06348  0.59949  0.61638  1.0000
  H   H1074     1.0  0.29570  0.50676  0.91569  1.0000
  C   C614      1.0  0.00564  0.50335  0.69067  1.0000
  H   H1075     1.0  0.05201  0.48109  0.79399  1.0000
  C   C615      1.0  0.38869  0.53518  0.54024  1.0000
  C   C616      1.0  0.30918  0.52489  0.61357  1.0000
  H   H1076     1.0  0.07433  0.64999  0.96794  1.0000
  H   H1077     1.0  0.36512  0.54248  0.86124  1.0000
  H   H1078     1.0  0.04241  0.63459  0.93708  1.0000
  C   C617      1.0  0.04707  0.49699  0.86763  1.0000
  Fe  Fe68      1.0  0.41651  0.59283  0.53927  1.0000
  H   H1079     1.0  0.22139  0.58639  0.79383  1.0000
  C   C618      1.0  0.10713  0.51531  0.68592  1.0000
  H   H1080     1.0  0.97203  0.62949  0.96473  1.0000
  C   C619      1.0  0.06036  0.49138  0.60225  1.0000
  H   H1081     1.0  0.21733  0.55473  0.78512  1.0000
  H   H1082     1.0  0.11933  0.57268  0.66018  1.0000
  C   C620      1.0  0.14551  0.44225  0.66145  1.0000
  H   H1083     1.0  0.33864  0.64461  0.93462  1.0000
  Fe  Fe69      1.0  0.42177  0.57995  0.64254  1.0000
  H   H1084     1.0  0.11601  0.65912  0.85793  1.0000
  H   H1085     1.0  0.29652  0.47890  0.73320  1.0000
  H   H1086     1.0  0.37160  0.46459  0.86434  1.0000
  H   H1087     1.0  0.97360  0.47929  0.65460  1.0000
  H   H1088     1.0  0.10611  0.51379  0.80304  1.0000
  H   H1089     1.0  0.11475  0.54678  0.61670  1.0000
  C   C621      1.0  0.04947  0.44738  0.65794  1.0000
  C   C622      1.0  0.06400  0.66868  0.54579  1.0000
  S   S143      1.0  0.37809  0.58047  0.95309  1.0000
  H   H1090     1.0  0.06486  0.51571  0.83541  1.0000
  C   C623      1.0  0.95814  0.42996  0.76965  1.0000
  H   H1091     1.0  0.99754  0.47232  0.94450  1.0000
  H   H1092     1.0  0.31066  0.51339  0.53815  1.0000
  C   C624      1.0  0.99488  0.66449  0.70806  1.0000
  H   H1093     1.0  0.01299  0.51233  0.98155  1.0000
  H   H1094     1.0  0.16687  0.56629  0.84754  1.0000
  H   H1095     1.0  0.98726  0.65700  0.97146  1.0000
  C   C625      1.0  0.04044  0.63744  0.68492  1.0000
  H   H1096     1.0  0.12622  0.43388  0.68410  1.0000
  H   H1097     1.0  0.28451  0.57632  0.81820  1.0000
  C   C626      1.0  0.02644  0.54962  0.92082  1.0000
  H   H1098     1.0  0.96540  0.65575  0.63643  1.0000
  H   H1099     1.0  0.98194  0.52076  0.65636  1.0000
  H   H1100     1.0  0.18761  0.53009  0.80051  1.0000
  C   C627      1.0  0.00784  0.64142  0.95801  1.0000
  S   S144      1.0  0.96742  0.59166  0.81412  1.0000
  C   C628      1.0  0.13809  0.54668  0.98851  1.0000
  C   C629      1.0  0.95378  0.50410  0.63634  1.0000
  H   H1101     1.0  0.10052  0.48746  0.76025  1.0000
  N   N36       1.0  0.15165  0.66902  0.84791  1.0000
  C   C630      1.0  0.23514  0.63129  0.79281  1.0000
  C   C631      1.0  0.99347  0.66083  0.79333  1.0000
  H   H1102     1.0  0.28487  0.42841  0.58877  1.0000
  C   C632      1.0  0.30453  0.50111  0.93651  1.0000
  H   H1103     1.0  0.01870  0.51511  0.89023  1.0000
  H   H1104     1.0  0.93715  0.61319  0.92762  1.0000
  H   H1105     1.0  0.03545  0.60117  0.71047  1.0000
  N   N37       1.0  0.03621  0.49813  0.91736  1.0000
  H   H1106     1.0  0.18217  0.62884  0.67160  1.0000
  C   C633      1.0  0.40947  0.51039  0.88751  1.0000
  S   S145      1.0  0.11793  0.56385  0.76453  1.0000
  H   H1107     1.0  0.09282  0.46318  0.58295  1.0000
  H   H1108     1.0  0.42192  0.51894  0.98394  1.0000
  H   H1109     1.0  0.28803  0.60381  0.71128  1.0000
  H   H1110     1.0  0.38891  0.53938  0.57223  1.0000
  C   C634      1.0  0.05443  0.60463  0.52785  1.0000
  C   C635      1.0  0.95047  0.64977  0.62553  1.0000
  H   H1111     1.0  0.01705  0.50118  0.70911  1.0000
  H   H1112     1.0  0.98226  0.63022  0.70521  1.0000
  H   H1113     1.0  0.98044  0.62407  0.85597  1.0000
  H   H1114     1.0  0.03023  0.63009  0.60152  1.0000
  N   N38       1.0  0.30729  0.50139  0.61941  1.0000
  C   C636      1.0  0.98545  0.63873  0.72973  1.0000
  C   C637      1.0  0.29837  0.59727  0.79761  1.0000
  C   C638      1.0  0.36029  0.62248  0.65120  1.0000
  C   C639      1.0  0.00880  0.59112  0.87815  1.0000
  C   C640      1.0  0.42850  0.59036  0.77894  1.0000
  H   H1115     1.0  0.03215  0.48525  0.77066  1.0000
  H   H1116     1.0  0.42818  0.45796  0.95743  1.0000
  C   C641      1.0  0.97688  0.64400  0.56223  1.0000
  H   H1117     1.0  0.33710  0.51859  0.00061  1.0000
  C   C642      1.0  0.28825  0.59330  0.88778  1.0000
  C   C643      1.0  0.24107  0.63985  0.52474  1.0000
  H   H1118     1.0  0.22000  0.58388  0.69797  1.0000
  C   C644      1.0  0.98374  0.63830  0.98127  1.0000
  H   H1119     1.0  0.08077  0.44958  0.84215  1.0000
  H   H1120     1.0  0.39528  0.63916  0.64902  1.0000
  H   H1121     1.0  0.04554  0.53610  0.94913  1.0000
  H   H1122     1.0  0.11487  0.50075  0.89018  1.0000
  C   C645      1.0  0.17309  0.55816  0.82531  1.0000
  H   H1123     1.0  0.32885  0.47298  0.73094  1.0000
  C   C646      1.0  0.32183  0.49676  0.64553  1.0000
  Fe  Fe70      1.0  0.35593  0.44574  0.60739  1.0000
  S   S146      1.0  0.34313  0.60049  0.95946  1.0000
  C   C647      1.0  0.13200  0.51461  0.88791  1.0000
  C   C648      1.0  0.02272  0.65880  0.89465  1.0000
  C   C649      1.0  0.41903  0.45920  0.77482  1.0000
  C   C650      1.0  0.42856  0.55487  0.96825  1.0000
  H   H1124     1.0  0.21084  0.64585  0.61030  1.0000
  H   H1125     1.0  0.26703  0.61116  0.73329  1.0000
  Fe  Fe71      1.0  0.29733  0.66521  0.59678  1.0000
  C   C651      1.0  0.20560  0.54807  0.76695  1.0000
  C   C652      1.0  0.37707  0.48003  0.87373  1.0000
  H   H1126     1.0  0.27293  0.47741  0.69550  1.0000
  H   H1127     1.0  0.97358  0.52559  0.90245  1.0000
  H   H1128     1.0  0.39598  0.58728  0.82890  1.0000
  Fe  Fe72      1.0  0.39083  0.59889  0.62778  1.0000
  H   H1129     1.0  0.11693  0.61396  0.92173  1.0000
  C   C653      1.0  0.12568  0.65002  0.86226  1.0000
  C   C654      1.0  0.34221  0.62571  0.64836  1.0000
  H   H1130     1.0  0.21889  0.52658  0.75136  1.0000
  H   H1131     1.0  0.00527  0.51890  0.69378  1.0000
  H   H1132     1.0  0.99501  0.57136  0.91383  1.0000
  C   C655      1.0  0.36540  0.66684  0.63940  1.0000
  S   S147      1.0  0.17747  0.59539  0.94814  1.0000
  C   C656      1.0  0.20216  0.56830  0.73618  1.0000
  H   H1133     1.0  0.19505  0.67205  0.02193  1.0000
  H   H1134     1.0  0.01622  0.60178  0.76286  1.0000
  Fe  Fe73      1.0  0.19882  0.60732  0.99056  1.0000
  H   H1135     1.0  0.42360  0.56723  0.94847  1.0000
  H   H1136     1.0  0.17186  0.58023  0.72921  1.0000
  C   C657      1.0  0.04471  0.49248  0.78684  1.0000
  H   H1137     1.0  0.96618  0.49166  0.77121  1.0000
  H   H1138     1.0  0.21860  0.57930  0.55600  1.0000
  C   C658      1.0  0.06873  0.66291  0.96484  1.0000
  C   C659      1.0  0.11553  0.55428  0.68188  1.0000
  H   H1139     1.0  0.42853  0.59851  0.00338  1.0000
  S   S148      1.0  0.30016  0.66949  0.66723  1.0000
  C   C660      1.0  0.43643  0.45535  0.78092  1.0000
  H   H1140     1.0  0.23133  0.63926  0.81826  1.0000
  H   H1141     1.0  0.05650  0.53206  0.62176  1.0000
  H   H1142     1.0  0.02573  0.59314  0.85575  1.0000
  C   C661      1.0  0.20324  0.65966  0.84155  1.0000
  H   H1143     1.0  0.33650  0.48105  0.00996  1.0000
  H   H1144     1.0  0.32840  0.49151  0.76177  1.0000
  C   C662      1.0  0.24332  0.59999  0.58007  1.0000
  H   H1145     1.0  0.27329  0.57295  0.90554  1.0000
  C   C663      1.0  0.22743  0.61680  0.52738  1.0000
  H   H1146     1.0  0.05062  0.53703  0.86010  1.0000
  C   C664      1.0  0.21104  0.61061  0.80054  1.0000
  H   H1147     1.0  0.18928  0.55983  0.72141  1.0000
  S   S149      1.0  0.38923  0.56563  0.62878  1.0000
  H   H1148     1.0  0.31923  0.47868  0.65203  1.0000
  H   H1149     1.0  0.04317  0.56660  0.88178  1.0000
  C   C665      1.0  0.98222  0.45730  0.72931  1.0000
  H   H1150     1.0  0.32917  0.44887  0.81212  1.0000
  H   H1151     1.0  0.25927  0.58013  0.77491  1.0000
  H   H1152     1.0  0.00115  0.59463  0.85067  1.0000
  H   H1153     1.0  0.41427  0.46897  0.79236  1.0000
  H   H1154     1.0  0.07247  0.66026  0.53036  1.0000
  H   H1155     1.0  0.09058  0.51842  0.96696  1.0000
  H   H1156     1.0  0.04428  0.50043  0.98221  1.0000
  C   C666      1.0  0.08321  0.60896  0.93185  1.0000
  H   H1157     1.0  0.26568  0.66047  0.54888  1.0000
  H   H1158     1.0  0.43233  0.50899  0.64705  1.0000
  S   S150      1.0  0.15090  0.62474  0.61976  1.0000
  C   C667      1.0  0.93699  0.44156  0.64760  1.0000
  N   N39       1.0  0.30891  0.60319  0.83380  1.0000
  H   H1159     1.0  0.34536  0.54773  0.60736  1.0000
  H   H1160     1.0  0.23177  0.61145  0.72941  1.0000
  H   H1161     1.0  0.32460  0.56893  0.61757  1.0000
  C   C668      1.0  0.10786  0.52099  0.76256  1.0000
  H   H1162     1.0  0.36282  0.47234  0.91526  1.0000
  H   H1163     1.0  0.06624  0.63910  0.62043  1.0000
  H   H1164     1.0  0.09048  0.52276  0.87871  1.0000
  H   H1165     1.0  0.21668  0.63333  0.68992  1.0000
  C   C669      1.0  0.10972  0.62549  0.91971  1.0000
  H   H1166     1.0  0.10988  0.66704  0.57124  1.0000
  C   C670      1.0  0.23785  0.45305  0.66819  1.0000
  C   C671      1.0  0.05268  0.50161  0.94278  1.0000
  C   C672      1.0  0.22863  0.59690  0.55491  1.0000
  H   H1167     1.0  0.01036  0.54296  0.91395  1.0000
  H   H1168     1.0  0.26085  0.49367  0.63090  1.0000
  C   C673      1.0  0.32914  0.63132  0.80518  1.0000
  C   C674      1.0  0.18544  0.59276  0.73786  1.0000
  C   C675      1.0  0.33537  0.57239  0.57695  1.0000
  C   C676      1.0  0.32784  0.50774  0.98449  1.0000
  H   H1169     1.0  0.31471  0.61118  0.91427  1.0000
  C   C677      1.0  0.11272  0.53950  0.65746  1.0000
  C   C678      1.0  0.27915  0.59753  0.97228  1.0000
  C   C679      1.0  0.32164  0.64826  0.81524  1.0000
  H   H1170     1.0  0.42715  0.59230  0.74124  1.0000
  H   H1171     1.0  0.10158  0.57503  0.01764  1.0000
  S   S151      1.0  0.23178  0.60760  0.98108  1.0000
  S   S152      1.0  0.38246  0.43932  0.62550  1.0000
  H   H1172     1.0  0.94028  0.62686  0.72746  1.0000
  H   H1173     1.0  0.17509  0.59695  0.76402  1.0000
  S   S153      1.0  0.41637  0.62551  0.53762  1.0000
  H   H1174     1.0  0.07922  0.65795  0.64728  1.0000
  H   H1175     1.0  0.35199  0.50701  0.69247  1.0000
  H   H1176     1.0  0.00394  0.47454  0.99739  1.0000
  S   S154      1.0  0.09589  0.60446  0.70766  1.0000
  C   C680      1.0  0.98003  0.62408  0.78331  1.0000
  H   H1177     1.0  0.23373  0.49511  0.00299  1.0000
  H   H1178     1.0  0.18752  0.56292  0.00826  1.0000
  C   C681      1.0  0.31761  0.50528  0.56275  1.0000
  H   H1179     1.0  0.98426  0.66244  0.52691  1.0000
  H   H1180     1.0  0.38861  0.54048  0.82458  1.0000
  H   H1181     1.0  0.22551  0.45364  0.65148  1.0000
  Fe  Fe74      1.0  0.33818  0.56358  0.98162  1.0000
  C   C682      1.0  0.96068  0.46659  0.54850  1.0000
  C   C683      1.0  0.38131  0.64171  0.64668  1.0000
  H   H1182     1.0  0.37809  0.49555  0.84287  1.0000
  H   H1183     1.0  0.02538  0.65468  0.58922  1.0000
  H   H1184     1.0  0.40598  0.52389  0.86548  1.0000
  C   C684      1.0  0.04445  0.43397  0.85172  1.0000
  H   H1185     1.0  0.12719  0.52072  0.91687  1.0000
  H   H1186     1.0  0.40221  0.52509  0.96337  1.0000
  H   H1187     1.0  0.05100  0.44415  0.80806  1.0000
  H   H1188     1.0  0.99671  0.66929  0.81775  1.0000
  H   H1189     1.0  0.18513  0.66812  0.94987  1.0000
  H   H1190     1.0  0.41023  0.65608  0.71975  1.0000
  H   H1191     1.0  0.33792  0.51965  0.53932  1.0000
  C   C685      1.0  0.16085  0.56220  0.98408  1.0000
  C   C686      1.0  0.02968  0.52848  0.94173  1.0000
  H   H1192     1.0  0.41934  0.49609  0.58777  1.0000
  H   H1193     1.0  0.95152  0.42568  0.81262  1.0000
  H   H1194     1.0  0.36780  0.58825  0.77191  1.0000
  H   H1195     1.0  0.19738  0.64458  0.83111  1.0000
  H   H1196     1.0  0.33060  0.65015  0.64077  1.0000
  H   H1197     1.0  0.15538  0.47963  0.61182  1.0000
  H   H1198     1.0  0.31287  0.60297  0.75875  1.0000
  H   H1199     1.0  0.32503  0.65653  0.99905  1.0000
  C   C687      1.0  0.35050  0.66507  0.90219  1.0000
  H   H1200     1.0  0.05595  0.54322  0.55799  1.0000
  H   H1201     1.0  0.22494  0.67168  0.72800  1.0000
  H   H1202     1.0  0.23655  0.55901  0.69581  1.0000
  C   C688      1.0  0.11353  0.54525  0.73405  1.0000
  H   H1203     1.0  0.20271  0.61971  0.78485  1.0000
  C   C689      1.0  0.42140  0.53363  0.95523  1.0000
  H   H1204     1.0  0.04987  0.48924  0.64134  1.0000
  H   H1205     1.0  0.02568  0.64108  0.82384  1.0000
  H   H1206     1.0  0.96772  0.54881  0.87698  1.0000
  Fe  Fe75      1.0  0.13978  0.52179  0.57584  1.0000
  H   H1207     1.0  0.38222  0.56108  0.78723  1.0000
  H   H1208     1.0  0.23020  0.56054  0.95037  1.0000
  H   H1209     1.0  0.33892  0.63967  0.75992  1.0000
  H   H1210     1.0  0.01408  0.47025  0.86783  1.0000
  H   H1211     1.0  0.41862  0.54642  0.01330  1.0000
  C   C690      1.0  0.21548  0.59683  0.77121  1.0000
  H   H1212     1.0  0.27893  0.46064  0.66695  1.0000
  C   C691      1.0  0.01088  0.47398  0.95963  1.0000
  S   S155      1.0  0.14384  0.63423  0.72325  1.0000
  H   H1213     1.0  0.99678  0.60702  0.91927  1.0000
  Fe  Fe76      1.0  0.24597  0.64206  0.98896  1.0000
  H   H1214     1.0  0.43375  0.57713  0.78906  1.0000
  H   H1215     1.0  0.97021  0.42447  0.99948  1.0000
  H   H1216     1.0  0.93697  0.66846  0.86922  1.0000
  C   C692      1.0  0.03038  0.64557  0.52590  1.0000
  H   H1217     1.0  0.38061  0.65762  0.02181  1.0000
  C   C693      1.0  0.98188  0.42582  0.01929  1.0000
  H   H1218     1.0  0.43592  0.66344  0.66405  1.0000
  H   H1219     1.0  0.33968  0.66944  0.88501  1.0000
  S   S156      1.0  0.36521  0.47349  0.52445  1.0000
  C   C694      1.0  0.12413  0.52010  0.02207  1.0000
  C   C695      1.0  0.94700  0.67369  0.69451  1.0000
  H   H1220     1.0  0.27333  0.66426  0.10909  1.0000
  C   C696      1.0  0.02610  0.55329  0.44695  1.0000
  C   C697      1.0  0.17733  0.47831  0.43585  1.0000
  Fe  Fe77      1.0  0.34319  0.43693  0.11759  1.0000
  H   H1221     1.0  0.40528  0.50655  0.20848  1.0000
  C   C698      1.0  0.01019  0.46998  0.13434  1.0000
  C   C699      1.0  0.97159  0.57427  0.07367  1.0000
  H   H1222     1.0  0.27244  0.57736  0.49496  1.0000
  H   H1223     1.0  0.17613  0.49287  0.03773  1.0000
  C   C700      1.0  0.07854  0.61641  0.51880  1.0000
  C   C701      1.0  0.08938  0.55496  0.05225  1.0000
  C   C702      1.0  0.16896  0.44846  0.10029  1.0000
  H   H1224     1.0  0.08472  0.48884  0.44627  1.0000
  C   C703      1.0  0.29930  0.65646  0.07748  1.0000
  H   H1225     1.0  0.95823  0.43308  0.25480  1.0000
  H   H1226     1.0  0.97089  0.45547  0.38144  1.0000
  C   C704      1.0  0.25033  0.54980  0.10284  1.0000
  S   S157      1.0  0.11653  0.47625  0.09429  1.0000
  H   H1227     1.0  0.16557  0.43329  0.13748  1.0000
  H   H1228     1.0  0.97558  0.64554  0.09932  1.0000
  C   C705      1.0  0.94160  0.44224  0.45948  1.0000
  H   H1229     1.0  0.96725  0.50260  0.14444  1.0000
  C   C706      1.0  0.94213  0.65040  0.27006  1.0000
  S   S158      1.0  0.39361  0.46755  0.30551  1.0000
  H   H1230     1.0  0.10512  0.49431  0.24337  1.0000
  H   H1231     1.0  0.95337  0.60427  0.39924  1.0000
  H   H1232     1.0  0.94664  0.66564  0.27831  1.0000
  C   C707      1.0  0.36200  0.51058  0.06338  1.0000
  C   C708      1.0  0.14321  0.54290  0.36931  1.0000
  H   H1233     1.0  0.01200  0.44470  0.19631  1.0000
  C   C709      1.0  0.95630  0.56851  0.05032  1.0000
  H   H1234     1.0  0.05082  0.59859  0.31146  1.0000
  H   H1235     1.0  0.42822  0.66600  0.30650  1.0000
  H   H1236     1.0  0.18849  0.49596  0.13105  1.0000
  Fe  Fe78      1.0  0.06381  0.60372  0.10300  1.0000
  H   H1237     1.0  0.01152  0.46499  0.25176  1.0000
  H   H1238     1.0  0.15577  0.52804  0.14081  1.0000
  C   C710      1.0  0.14254  0.55389  0.32123  1.0000
  H   H1239     1.0  0.42478  0.52353  0.47964  1.0000
  H   H1240     1.0  0.13285  0.62779  0.45693  1.0000
  C   C711      1.0  0.38825  0.52419  0.45728  1.0000
  H   H1241     1.0  0.32354  0.47114  0.40192  1.0000
  C   C712      1.0  0.08864  0.44531  0.38046  1.0000
  S   S159      1.0  0.22906  0.61976  0.08074  1.0000
  Fe  Fe79      1.0  0.04016  0.46643  0.42880  1.0000
  H   H1242     1.0  0.34577  0.54014  0.25381  1.0000
  C   C713      1.0  0.42761  0.44422  0.21876  1.0000
  C   C714      1.0  0.17649  0.64563  0.45137  1.0000
  H   H1243     1.0  0.94893  0.51583  0.30676  1.0000
  H   H1244     1.0  0.02145  0.56350  0.30871  1.0000
  H   H1245     1.0  0.33708  0.65081  0.10407  1.0000
  H   H1246     1.0  0.39357  0.53670  0.16764  1.0000
  C   C715      1.0  0.33652  0.44810  0.39639  1.0000
  H   H1247     1.0  0.13914  0.62759  0.39548  1.0000
  H   H1248     1.0  0.23533  0.58342  0.14687  1.0000
  C   C716      1.0  0.99088  0.64365  0.09320  1.0000
  H   H1249     1.0  0.03768  0.66176  0.16137  1.0000
  H   H1250     1.0  0.19508  0.63165  0.25999  1.0000
  C   C717      1.0  0.41541  0.67336  0.43938  1.0000
  H   H1251     1.0  0.40808  0.56460  0.40335  1.0000
  H   H1252     1.0  0.18561  0.65649  0.29383  1.0000
  H   H1253     1.0  0.42090  0.61697  0.13660  1.0000
  H   H1254     1.0  0.39917  0.44455  0.45079  1.0000
  H   H1255     1.0  0.20671  0.66476  0.16828  1.0000
  H   H1256     1.0  0.16411  0.47203  0.51837  1.0000
  C   C718      1.0  0.19948  0.63445  0.29184  1.0000
  N   N40       1.0  0.08821  0.51932  0.18818  1.0000
  H   H1257     1.0  0.42625  0.67258  0.46007  1.0000
  S   S160      1.0  0.00357  0.45960  0.45243  1.0000
  H   H1258     1.0  0.14758  0.43804  0.20428  1.0000
  C   C719      1.0  0.24694  0.47899  0.04965  1.0000
  C   C720      1.0  0.32653  0.46285  0.37651  1.0000
  C   C721      1.0  0.94511  0.66159  0.44971  1.0000
  H   H1259     1.0  0.95413  0.49800  0.07550  1.0000
  H   H1260     1.0  0.36529  0.43884  0.42987  1.0000
  H   H1261     1.0  0.97656  0.53064  0.05226  1.0000
  Fe  Fe80      1.0  0.03419  0.44217  0.09681  1.0000
  H   H1262     1.0  0.00824  0.54270  0.48452  1.0000
  H   H1263     1.0  0.98933  0.66757  0.21454  1.0000
  S   S161      1.0  0.34727  0.42677  0.05277  1.0000
  H   H1264     1.0  0.10410  0.42926  0.22504  1.0000
  S   S162      1.0  0.00661  0.59793  0.25743  1.0000
  C   C722      1.0  0.13597  0.59792  0.46062  1.0000
  H   H1265     1.0  0.97868  0.47714  0.40629  1.0000
  C   C723      1.0  0.95245  0.60701  0.43462  1.0000
  C   C724      1.0  0.27852  0.65146  0.12466  1.0000
  C   C725      1.0  0.34990  0.65810  0.06122  1.0000
  H   H1266     1.0  0.33022  0.65300  0.37079  1.0000
  H   H1267     1.0  0.29612  0.66822  0.30169  1.0000
  H   H1268     1.0  0.26593  0.59851  0.39547  1.0000
  H   H1269     1.0  0.03377  0.66309  0.49569  1.0000
  C   C726      1.0  0.99582  0.66095  0.30383  1.0000
  Fe  Fe81      1.0  0.01548  0.58004  0.10203  1.0000
  H   H1270     1.0  0.29513  0.49438  0.14307  1.0000
  H   H1271     1.0  0.34000  0.64586  0.04733  1.0000
  H   H1272     1.0  0.04019  0.56393  0.45695  1.0000
  C   C727      1.0  0.31199  0.49590  0.22226  1.0000
  H   H1273     1.0  0.23676  0.55330  0.38514  1.0000
  H   H1274     1.0  0.12077  0.55025  0.28085  1.0000
  C   C728      1.0  0.06146  0.47047  0.22931  1.0000
  H   H1275     1.0  0.00388  0.66575  0.32954  1.0000
  H   H1276     1.0  0.15973  0.50526  0.27963  1.0000
  H   H1277     1.0  0.35114  0.43906  0.48922  1.0000
  C   C729      1.0  0.43346  0.50831  0.43184  1.0000
  Fe  Fe82      1.0  0.16837  0.54742  0.45178  1.0000
  H   H1278     1.0  0.03052  0.60652  0.37312  1.0000
  H   H1279     1.0  0.16279  0.61547  0.05621  1.0000
  H   H1280     1.0  0.40526  0.66253  0.38384  1.0000
  H   H1281     1.0  0.27535  0.59996  0.14482  1.0000
  H   H1282     1.0  0.22910  0.50550  0.34769  1.0000
  H   H1283     1.0  0.28928  0.44970  0.19047  1.0000
  H   H1284     1.0  0.16044  0.48053  0.13091  1.0000
  H   H1285     1.0  0.01573  0.64583  0.12399  1.0000
  H   H1286     1.0  0.97613  0.58083  0.13775  1.0000
  H   H1287     1.0  0.36216  0.63576  0.09495  1.0000
  H   H1288     1.0  0.18629  0.62529  0.39610  1.0000
  H   H1289     1.0  0.08336  0.42577  0.19758  1.0000
  C   C730      1.0  0.42948  0.42992  0.26735  1.0000
  H   H1290     1.0  0.94100  0.63787  0.16810  1.0000
  H   H1291     1.0  0.09816  0.56607  0.10782  1.0000
  S   S163      1.0  0.99333  0.55387  0.19358  1.0000
  H   H1292     1.0  0.17569  0.49640  0.34530  1.0000
  C   C731      1.0  0.17461  0.47797  0.13534  1.0000
  C   C732      1.0  0.39934  0.54935  0.44512  1.0000
  H   H1293     1.0  0.14512  0.44742  0.27895  1.0000
  C   C733      1.0  0.05184  0.65456  0.27306  1.0000
  C   C734      1.0  0.19282  0.49430  0.03631  1.0000
  H   H1294     1.0  0.95695  0.47517  0.23184  1.0000
  H   H1295     1.0  0.41886  0.60838  0.22565  1.0000
  H   H1296     1.0  0.04745  0.44311  0.31392  1.0000
  C   C735      1.0  0.98437  0.53029  0.35465  1.0000
  H   H1297     1.0  0.25843  0.50806  0.27070  1.0000
  C   C736      1.0  0.18747  0.64214  0.36989  1.0000
  C   C737      1.0  0.00191  0.58089  0.45823  1.0000
  C   C738      1.0  0.02640  0.59087  0.41056  1.0000
  H   H1298     1.0  0.04593  0.52986  0.49265  1.0000
  H   H1299     1.0  0.06554  0.56151  0.26431  1.0000
  C   C739      1.0  0.37167  0.66118  0.17263  1.0000
  C   C740      1.0  0.96402  0.57550  0.12075  1.0000
  H   H1300     1.0  0.20328  0.46033  0.12934  1.0000
  C   C741      1.0  0.24521  0.55750  0.34240  1.0000
  H   H1301     1.0  0.43577  0.65491  0.13745  1.0000
  C   C742      1.0  0.24899  0.64009  0.32384  1.0000
  H   H1302     1.0  0.16312  0.51639  0.06674  1.0000
  S   S164      1.0  0.32900  0.55307  0.06838  1.0000
  C   C743      1.0  0.09405  0.53857  0.20582  1.0000
  H   H1303     1.0  0.25900  0.56041  0.46391  1.0000
  H   H1304     1.0  0.94472  0.51853  0.07675  1.0000
  H   H1305     1.0  0.08224  0.45515  0.35792  1.0000
  S   S165      1.0  0.17857  0.58277  0.08217  1.0000
  S   S166      1.0  0.10401  0.63360  0.04659  1.0000
  C   C744      1.0  0.96381  0.46343  0.40249  1.0000
  C   C745      1.0  0.13322  0.50912  0.05009  1.0000
  H   H1306     1.0  0.09897  0.53370  0.23850  1.0000
  H   H1307     1.0  0.32552  0.46496  0.26640  1.0000
  N   N41       1.0  0.31012  0.47438  0.21537  1.0000
  H   H1308     1.0  0.31675  0.43529  0.48190  1.0000
  C   C746      1.0  0.41772  0.44092  0.12569  1.0000
  C   C747      1.0  0.00868  0.54730  0.35174  1.0000
  H   H1309     1.0  0.43302  0.63994  0.04977  1.0000
  H   H1310     1.0  0.41884  0.48837  0.46607  1.0000
  C   C748      1.0  0.32276  0.65690  0.34270  1.0000
  C   C749      1.0  0.12106  0.62866  0.07665  1.0000
  C   C750      1.0  0.42495  0.63168  0.35029  1.0000
  H   H1311     1.0  0.43386  0.54782  0.15648  1.0000
  C   C751      1.0  0.93815  0.58132  0.48722  1.0000
  H   H1312     1.0  0.36028  0.49559  0.05452  1.0000
  C   C752      1.0  0.95372  0.50635  0.14099  1.0000
  H   H1313     1.0  0.07767  0.47019  0.21566  1.0000
  S   S167      1.0  0.07244  0.46512  0.02756  1.0000
  H   H1314     1.0  0.25640  0.65135  0.37991  1.0000
  H   H1315     1.0  0.95792  0.52296  0.14563  1.0000
  H   H1316     1.0  0.32288  0.48930  0.10111  1.0000
  H   H1317     1.0  0.25936  0.65995  0.28944  1.0000
  H   H1318     1.0  0.29389  0.45222  0.30363  1.0000
  C   C753      1.0  0.29802  0.66808  0.39094  1.0000
  H   H1319     1.0  0.41021  0.56298  0.21361  1.0000
  H   H1320     1.0  0.05285  0.57280  0.33431  1.0000
  C   C754      1.0  0.43598  0.61655  0.14146  1.0000
  H   H1321     1.0  0.31310  0.43187  0.23769  1.0000
  H   H1322     1.0  0.16340  0.62267  0.34024  1.0000
  Fe  Fe83      1.0  0.43204  0.50365  0.25955  1.0000
  C   C755      1.0  0.28290  0.57882  0.11263  1.0000
  H   H1323     1.0  0.27114  0.48130  0.20909  1.0000
  S   S168      1.0  0.07406  0.50330  0.35575  1.0000
  C   C756      1.0  0.96192  0.65673  0.45597  1.0000
  H   H1324     1.0  0.18930  0.51547  0.42436  1.0000
  H   H1325     1.0  0.40908  0.60254  0.33058  1.0000
  H   H1326     1.0  0.94342  0.61663  0.43780  1.0000
  H   H1327     1.0  0.31477  0.52675  0.26585  1.0000
  H   H1328     1.0  0.98638  0.63503  0.17374  1.0000
  H   H1329     1.0  0.43069  0.48030  0.14277  1.0000
  C   C757      1.0  0.09794  0.55252  0.09505  1.0000
  N   N42       1.0  0.02733  0.57146  0.39856  1.0000
  C   C758      1.0  0.39436  0.48897  0.21019  1.0000
  C   C759      1.0  0.27702  0.60108  0.41665  1.0000
  S   S169      1.0  0.04595  0.57904  0.19400  1.0000
  H   H1330     1.0  0.33786  0.51704  0.10606  1.0000
  H   H1331     1.0  0.11702  0.55852  0.07457  1.0000
  H   H1332     1.0  0.01215  0.51901  0.44169  1.0000
  C   C760      1.0  0.24485  0.53140  0.26220  1.0000
  Fe  Fe84      1.0  0.06194  0.42873  0.03059  1.0000
  H   H1333     1.0  0.95895  0.47412  0.37681  1.0000
  H   H1334     1.0  0.00542  0.65710  0.04945  1.0000
  C   C761      1.0  0.24594  0.57688  0.13361  1.0000
  H   H1335     1.0  0.05679  0.52260  0.26673  1.0000
  H   H1336     1.0  0.31014  0.49036  0.48563  1.0000
  H   H1337     1.0  0.98609  0.57136  0.45176  1.0000
  C   C762      1.0  0.07505  0.66509  0.23178  1.0000
  H   H1338     1.0  0.34014  0.54665  0.19639  1.0000
  H   H1339     1.0  0.40508  0.63987  0.43450  1.0000
  C   C763      1.0  0.42547  0.60029  0.20425  1.0000
  C   C764      1.0  0.08057  0.52485  0.14507  1.0000
  H   H1340     1.0  0.29200  0.65204  0.05025  1.0000
  H   H1341     1.0  0.19685  0.61697  0.31988  1.0000
  H   H1342     1.0  0.04082  0.59999  0.42126  1.0000
  C   C765      1.0  0.10069  0.50704  0.41163  1.0000
  C   C766      1.0  0.28574  0.64888  0.33776  1.0000
  H   H1343     1.0  0.97083  0.51341  0.39676  1.0000
  H   H1344     1.0  0.17645  0.52078  0.35550  1.0000
  C   C767      1.0  0.28741  0.46033  0.21066  1.0000
  H   H1345     1.0  0.16682  0.48107  0.22906  1.0000
  H   H1346     1.0  0.02423  0.44403  0.29976  1.0000
  H   H1347     1.0  0.11458  0.62677  0.29206  1.0000
  C   C768      1.0  0.33300  0.48402  0.16637  1.0000
  H   H1348     1.0  0.40486  0.62713  0.30461  1.0000
  S   S170      1.0  0.37652  0.46901  0.10704  1.0000
  C   C769      1.0  0.95740  0.51376  0.08289  1.0000
  H   H1349     1.0  0.94749  0.43230  0.48352  1.0000
  C   C770      1.0  0.00132  0.64906  0.13045  1.0000
  C   C771      1.0  0.05624  0.63354  0.20788  1.0000
  H   H1350     1.0  0.03064  0.50239  0.48677  1.0000
  H   H1351     1.0  0.42664  0.49055  0.06223  1.0000
  H   H1352     1.0  0.24459  0.44301  0.20448  1.0000
  H   H1353     1.0  0.25310  0.54669  0.34204  1.0000
  C   C772      1.0  0.41600  0.66064  0.40468  1.0000
  H   H1354     1.0  0.09718  0.62642  0.25649  1.0000
  H   H1355     1.0  0.20378  0.52590  0.24643  1.0000
  C   C773      1.0  0.26060  0.46159  0.16738  1.0000
  C   C774      1.0  0.06725  0.49325  0.23749  1.0000
  C   C775      1.0  0.38921  0.65995  0.48385  1.0000
  C   C776      1.0  0.12102  0.63221  0.12073  1.0000
  Fe  Fe85      1.0  0.21242  0.58515  0.07317  1.0000
  C   C777      1.0  0.33747  0.50051  0.10913  1.0000
  H   H1356     1.0  0.25403  0.47274  0.15073  1.0000
  S   S171      1.0  0.17359  0.62504  0.13713  1.0000
  C   C778      1.0  0.00848  0.49039  0.11774  1.0000
  H   H1357     1.0  0.27142  0.53244  0.20128  1.0000
  C   C779      1.0  0.12002  0.51274  0.20487  1.0000
  H   H1358     1.0  0.36221  0.42526  0.29505  1.0000
  C   C780      1.0  0.02949  0.51737  0.49090  1.0000
  H   H1359     1.0  0.07880  0.51207  0.12857  1.0000
  C   C781      1.0  0.25857  0.63933  0.36476  1.0000
  H   H1360     1.0  0.21186  0.50965  0.41824  1.0000
  C   C782      1.0  0.05102  0.58585  0.34607  1.0000
  H   H1361     1.0  0.09517  0.43148  0.32730  1.0000
  C   C783      1.0  0.17648  0.67147  0.36929  1.0000
  H   H1362     1.0  0.98897  0.54154  0.43123  1.0000
  C   C784      1.0  0.20878  0.47680  0.09134  1.0000
  H   H1363     1.0  0.09653  0.57980  0.20960  1.0000
  H   H1364     1.0  0.20458  0.52738  0.04629  1.0000
  H   H1365     1.0  0.13263  0.49451  0.17040  1.0000
  H   H1366     1.0  0.10851  0.45940  0.36452  1.0000
  H   H1367     1.0  0.98028  0.66253  0.31167  1.0000
  H   H1368     1.0  0.29424  0.60416  0.39195  1.0000
  H   H1369     1.0  0.09811  0.59950  0.28626  1.0000
  H   H1370     1.0  0.94727  0.57213  0.48050  1.0000
  H   H1371     1.0  0.97140  0.61941  0.42692  1.0000
  C   C785      1.0  0.93904  0.63476  0.20790  1.0000
  Fe  Fe86      1.0  0.01841  0.58751  0.19676  1.0000
  H   H1372     1.0  0.19895  0.64889  0.51599  1.0000
  C   C786      1.0  0.25425  0.51810  0.24143  1.0000
  H   H1373     1.0  0.40831  0.43264  0.22767  1.0000
  H   H1374     1.0  0.15876  0.57194  0.28593  1.0000
  H   H1375     1.0  0.93958  0.58463  0.52102  1.0000
  H   H1376     1.0  0.21897  0.65101  0.27129  1.0000
  H   H1377     1.0  0.17668  0.45415  0.20245  1.0000
  H   H1378     1.0  0.13705  0.46299  0.23395  1.0000
  C   C787      1.0  0.08108  0.56078  0.24603  1.0000
  H   H1379     1.0  0.07622  0.61848  0.34991  1.0000
  H   H1380     1.0  0.25046  0.62824  0.30710  1.0000
  S   S172      1.0  0.01065  0.45600  0.09457  1.0000
  H   H1381     1.0  0.10835  0.50894  0.14458  1.0000
  C   C788      1.0  0.26231  0.57613  0.47145  1.0000
  H   H1382     1.0  0.20709  0.65843  0.34964  1.0000
  C   C789      1.0  0.94094  0.57040  0.14536  1.0000
  C   C790      1.0  0.26617  0.58592  0.30547  1.0000
  S   S173      1.0  0.01165  0.50816  0.23456  1.0000
  Fe  Fe87      1.0  0.08226  0.45255  0.09216  1.0000
  S   S174      1.0  0.04289  0.57119  0.09246  1.0000
  C   C791      1.0  0.28256  0.62361  0.42557  1.0000
  S   S175      1.0  0.20452  0.56509  0.45010  1.0000
  H   H1383     1.0  0.14681  0.50539  0.20819  1.0000
  S   S176      1.0  0.20981  0.61367  0.49423  1.0000
  S   S177      1.0  0.21013  0.54963  0.11385  1.0000
  H   H1384     1.0  0.13728  0.63395  0.17351  1.0000
  H   H1385     1.0  0.30181  0.65668  0.46495  1.0000
  H   H1386     1.0  0.06196  0.52039  0.16349  1.0000
  H   H1387     1.0  0.98583  0.59543  0.49809  1.0000
  H   H1388     1.0  0.43456  0.63346  0.27213  1.0000
  H   H1389     1.0  0.18738  0.46683  0.49849  1.0000
  H   H1390     1.0  0.27106  0.44550  0.25210  1.0000
  H   H1391     1.0  0.38945  0.66931  0.50827  1.0000
  H   H1392     1.0  0.43196  0.46215  0.21695  1.0000
  H   H1393     1.0  0.21442  0.55646  0.33791  1.0000
  H   H1394     1.0  0.97661  0.47459  0.51100  1.0000
  H   H1395     1.0  0.05002  0.66277  0.29803  1.0000
  C   C792      1.0  0.04118  0.44519  0.28301  1.0000
  H   H1396     1.0  0.04996  0.49179  0.25076  1.0000
  C   C793      1.0  0.40836  0.56675  0.08619  1.0000
  C   C794      1.0  0.19499  0.53166  0.27085  1.0000
  H   H1397     1.0  0.05527  0.47136  0.19824  1.0000
  H   H1398     1.0  0.24664  0.61944  0.39970  1.0000
  H   H1399     1.0  0.04534  0.54110  0.40425  1.0000
  H   H1400     1.0  0.24419  0.57143  0.49654  1.0000
  C   C795      1.0  0.39058  0.48927  0.16592  1.0000
  H   H1401     1.0  0.98747  0.52368  0.32559  1.0000
  H   H1402     1.0  0.98385  0.62402  0.10285  1.0000
  H   H1403     1.0  0.30899  0.45028  0.37838  1.0000
  C   C796      1.0  0.01141  0.46090  0.18253  1.0000
  H   H1404     1.0  0.29210  0.62386  0.45042  1.0000
  H   H1405     1.0  0.00589  0.61673  0.42486  1.0000
  C   C797      1.0  0.13612  0.62260  0.05355  1.0000
  H   H1406     1.0  0.96240  0.44676  0.29751  1.0000
  S   S178      1.0  0.31240  0.59361  0.10487  1.0000
  H   H1407     1.0  0.23497  0.56144  0.27835  1.0000
  H   H1408     1.0  0.34109  0.50385  0.47452  1.0000
  C   C798      1.0  0.20457  0.66757  0.48483  1.0000
  H   H1409     1.0  0.94231  0.45614  0.20706  1.0000
  C   C799      1.0  0.00895  0.50231  0.14831  1.0000
  Fe  Fe88      1.0  0.36948  0.57352  0.03822  1.0000
  H   H1410     1.0  0.94617  0.48365  0.50733  1.0000
  H   H1411     1.0  0.37756  0.66090  0.46515  1.0000
  H   H1412     1.0  0.94600  0.52988  0.44009  1.0000
  H   H1413     1.0  0.32412  0.49499  0.28387  1.0000
  H   H1414     1.0  0.20724  0.55251  0.25276  1.0000
  C   C800      1.0  0.41002  0.55265  0.12928  1.0000
  H   H1415     1.0  0.33292  0.46806  0.16540  1.0000
  H   H1416     1.0  0.09010  0.54271  0.03606  1.0000
  H   H1417     1.0  0.97375  0.62559  0.02649  1.0000
  H   H1418     1.0  0.16197  0.53042  0.29031  1.0000
  C   C801      1.0  0.02848  0.53271  0.44183  1.0000
  S   S179      1.0  0.17115  0.55852  0.36900  1.0000
  H   H1419     1.0  0.24044  0.50431  0.23555  1.0000
  C   C802      1.0  0.03083  0.63360  0.28149  1.0000
  H   H1420     1.0  0.99819  0.56721  0.49809  1.0000
  H   H1421     1.0  0.12273  0.51104  0.45204  1.0000
  H   H1422     1.0  0.17741  0.44640  0.06623  1.0000
  H   H1423     1.0  0.37353  0.64576  0.18326  1.0000
  H   H1424     1.0  0.98877  0.64102  0.31605  1.0000
  H   H1425     1.0  0.07028  0.49011  0.27358  1.0000
  C   C803      1.0  0.40378  0.57295  0.22826  1.0000
  H   H1426     1.0  0.11071  0.55778  0.17157  1.0000
  H   H1427     1.0  0.14648  0.45334  0.06408  1.0000
  S   S180      1.0  0.00684  0.66652  0.42577  1.0000
  S   S181      1.0  0.41411  0.58638  0.47067  1.0000
  C   C804      1.0  0.26864  0.58639  0.13202  1.0000
  C   C805      1.0  0.15131  0.62026  0.07414  1.0000
  H   H1428     1.0  0.17369  0.62743  0.47565  1.0000
  Fe  Fe89      1.0  0.33693  0.59110  0.04438  1.0000
  C   C806      1.0  0.38460  0.46607  0.25615  1.0000
  H   H1429     1.0  0.34959  0.49488  0.16956  1.0000
  H   H1430     1.0  0.40384  0.44270  0.14914  1.0000
  H   H1431     1.0  0.26023  0.54665  0.26191  1.0000
  H   H1432     1.0  0.01291  0.62549  0.31338  1.0000
  H   H1433     1.0  0.13486  0.44561  0.13414  1.0000
  C   C807      1.0  0.11094  0.52054  0.16428  1.0000
  C   C808      1.0  0.17209  0.52570  0.26560  1.0000
  H   H1434     1.0  0.97461  0.42713  0.05566  1.0000
  H   H1435     1.0  0.24060  0.54068  0.23232  1.0000
  H   H1436     1.0  0.05104  0.60682  0.49346  1.0000
  H   H1437     1.0  0.10445  0.58089  0.44796  1.0000
  C   C809      1.0  0.14447  0.62566  0.42818  1.0000
  H   H1438     1.0  0.16311  0.64590  0.48117  1.0000
  H   H1439     1.0  0.00073  0.57056  0.37264  1.0000
  H   H1440     1.0  0.27557  0.59098  0.26232  1.0000
  C   C810      1.0  0.41469  0.44120  0.07537  1.0000
  C   C811      1.0  0.22222  0.51233  0.32081  1.0000
  C   C812      1.0  0.17101  0.46450  0.49573  1.0000
  H   H1441     1.0  0.35444  0.46204  0.39115  1.0000
  H   H1442     1.0  0.01851  0.61290  0.47045  1.0000
  H   H1443     1.0  0.06725  0.54644  0.19878  1.0000
  H   H1444     1.0  0.38848  0.52005  0.42484  1.0000
  N   N43       1.0  0.17128  0.64624  0.40465  1.0000
  C   C813      1.0  0.94879  0.43184  0.29347  1.0000
  H   H1445     1.0  0.30363  0.64315  0.09482  1.0000
  H   H1446     1.0  0.09811  0.45899  0.50218  1.0000
  C   C814      1.0  0.34822  0.65584  0.19194  1.0000
  H   H1447     1.0  0.00794  0.51824  0.13513  1.0000
  N   N44       1.0  0.20882  0.52187  0.34427  1.0000
  C   C815      1.0  0.42977  0.58747  0.03674  1.0000
  C   C816      1.0  0.00556  0.55761  0.39076  1.0000
  C   C817      1.0  0.41793  0.62329  0.31186  1.0000
  H   H1448     1.0  0.22937  0.63244  0.34525  1.0000
  Fe  Fe90      1.0  0.31454  0.42607  0.05670  1.0000
  H   H1449     1.0  0.04181  0.64111  0.50384  1.0000
  C   C818      1.0  0.07511  0.60256  0.34592  1.0000
  H   H1450     1.0  0.27991  0.59083  0.31979  1.0000
  H   H1451     1.0  0.34020  0.47864  0.33333  1.0000
  C   C819      1.0  0.10856  0.57905  0.48240  1.0000
  C   C820      1.0  0.94481  0.65451  0.21838  1.0000
  C   C821      1.0  0.09755  0.61448  0.29183  1.0000
  C   C822      1.0  0.39969  0.55485  0.48665  1.0000
  H   H1452     1.0  0.05803  0.62593  0.18169  1.0000
  C   C823      1.0  0.18249  0.63907  0.32355  1.0000
  C   C824      1.0  0.20293  0.66690  0.43467  1.0000
  C   C825      1.0  0.30023  0.42990  0.27323  1.0000
  H   H1453     1.0  0.95555  0.63933  0.49097  1.0000
  C   C826      1.0  0.93851  0.45982  0.24132  1.0000
  H   H1454     1.0  0.14507  0.66659  0.42850  1.0000
  H   H1455     1.0  0.01625  0.53633  0.36057  1.0000
  H   H1456     1.0  0.20927  0.49531  0.32068  1.0000
  S   S182      1.0  0.03787  0.61442  0.10604  1.0000
  H   H1457     1.0  0.24341  0.53595  0.09075  1.0000
  C   C827      1.0  0.38539  0.43141  0.49518  1.0000
  H   H1458     1.0  0.07647  0.59113  0.37979  1.0000
  H   H1459     1.0  0.28456  0.55422  0.08410  1.0000
  S   S183      1.0  0.00008  0.57972  0.04445  1.0000
  C   C828      1.0  0.01118  0.47238  0.21382  1.0000
  C   C829      1.0  0.15236  0.46247  0.23669  1.0000
  C   C830      1.0  0.32169  0.48695  0.50174  1.0000
  H   H1460     1.0  0.09368  0.62771  0.47740  1.0000
  H   H1461     1.0  0.13895  0.59450  0.49668  1.0000
  C   C831      1.0  0.30775  0.45616  0.26599  1.0000
  H   H1462     1.0  0.31664  0.51134  0.18375  1.0000
  H   H1463     1.0  0.07028  0.54919  0.07061  1.0000
  H   H1464     1.0  0.26215  0.63148  0.14573  1.0000
  S   S184      1.0  0.04485  0.43248  0.16156  1.0000
  H   H1465     1.0  0.94775  0.50482  0.23368  1.0000
  H   H1466     1.0  0.37660  0.51696  0.07496  1.0000
  H   H1467     1.0  0.28400  0.65428  0.15518  1.0000
  H   H1468     1.0  0.15647  0.44385  0.51580  1.0000
  H   H1469     1.0  0.26898  0.45837  0.13559  1.0000
  C   C832      1.0  0.07725  0.65429  0.19986  1.0000
  H   H1470     1.0  0.16016  0.47476  0.43597  1.0000
  H   H1471     1.0  0.39873  0.50723  0.12979  1.0000
  H   H1472     1.0  0.17752  0.53733  0.22205  1.0000
  C   C833      1.0  0.00668  0.66956  0.20729  1.0000
  C   C834      1.0  0.14001  0.51001  0.17932  1.0000
  H   H1473     1.0  0.08686  0.55588  0.27710  1.0000
  C   C835      1.0  0.37028  0.65511  0.06147  1.0000
  H   H1474     1.0  0.10928  0.63682  0.13874  1.0000
  H   H1475     1.0  0.28708  0.63726  0.31998  1.0000
  C   C836      1.0  0.12222  0.51959  0.41484  1.0000
  C   C837      1.0  0.37754  0.50451  0.51096  1.0000
  C   C838      1.0  0.35100  0.42623  0.47399  1.0000
  C   C839      1.0  0.15616  0.52470  0.04459  1.0000
  H   H1476     1.0  0.16955  0.67045  0.33966  1.0000
  H   H1477     1.0  0.33206  0.63631  0.21781  1.0000
  Fe  Fe91      1.0  0.02228  0.54728  0.18435  1.0000
  H   H1478     1.0  0.38383  0.44262  0.51383  1.0000
  H   H1479     1.0  0.00118  0.64970  0.22428  1.0000
  C   C840      1.0  0.14394  0.44191  0.10473  1.0000
  S   S185      1.0  0.37845  0.55609  0.09971  1.0000
  H   H1480     1.0  0.25889  0.49661  0.04907  1.0000
  C   C841      1.0  0.07302  0.54086  0.22935  1.0000
  C   C842      1.0  0.36567  0.44329  0.21510  1.0000
  C   C843      1.0  0.03299  0.62325  0.24853  1.0000
  C   C844      1.0  0.01044  0.49337  0.19620  1.0000
  H   H1481     1.0  0.32209  0.64488  0.32455  1.0000
  C   C845      1.0  0.22547  0.54985  0.32385  1.0000
  S   S186      1.0  0.31259  0.43941  0.11611  1.0000
  H   H1482     1.0  0.18328  0.46955  0.41543  1.0000
  C   C846      1.0  0.19751  0.50739  0.40618  1.0000
  Fe  Fe92      1.0  0.19650  0.61912  0.08179  1.0000
  H   H1483     1.0  0.26475  0.61888  0.45259  1.0000
  H   H1484     1.0  0.97687  0.54112  0.34257  1.0000
  C   C847      1.0  0.10010  0.51801  0.36324  1.0000
  C   C848      1.0  0.37685  0.46654  0.16762  1.0000
  H   H1485     1.0  0.14586  0.59352  0.43434  1.0000
  H   H1486     1.0  0.34903  0.51436  0.21464  1.0000
  C   C849      1.0  0.27959  0.47636  0.18150  1.0000
  H   H1487     1.0  0.39506  0.56257  0.27378  1.0000
  H   H1488     1.0  0.12661  0.54018  0.13023  1.0000
  C   C850      1.0  0.00317  0.60286  0.46300  1.0000
  C   C851      1.0  0.18802  0.51681  0.33170  1.0000
  C   C852      1.0  0.12105  0.54154  0.31826  1.0000
  H   H1489     1.0  0.09514  0.66231  0.16807  1.0000
  C   C853      1.0  0.33055  0.50846  0.24082  1.0000
  S   S187      1.0  0.31626  0.66859  0.19826  1.0000
  C   C854      1.0  0.27363  0.56022  0.09879  1.0000
  C   C855      1.0  0.33287  0.53191  0.23908  1.0000
  C   C856      1.0  0.16287  0.45650  0.19521  1.0000
  H   H1490     1.0  0.00734  0.49732  0.08068  1.0000
  H   H1491     1.0  0.27909  0.66093  0.41834  1.0000
  H   H1492     1.0  0.38334  0.66941  0.06747  1.0000
  H   H1493     1.0  0.25905  0.59738  0.30665  1.0000
  H   H1494     1.0  0.29381  0.48888  0.25377  1.0000
  H   H1495     1.0  0.22023  0.49382  0.09328  1.0000
  C   C857      1.0  0.43281  0.55881  0.12311  1.0000
  H   H1496     1.0  0.33949  0.44055  0.36942  1.0000
  C   C858      1.0  0.15213  0.62479  0.11673  1.0000
  C   C859      1.0  0.36963  0.44306  0.25953  1.0000
  H   H1497     1.0  0.38986  0.57255  0.21634  1.0000
  N   N45       1.0  0.29731  0.64938  0.37425  1.0000
  C   C860      1.0  0.13680  0.63055  0.14041  1.0000
  H   H1498     1.0  0.12791  0.52747  0.21566  1.0000
  N   N46       1.0  0.18630  0.47442  0.09074  1.0000
  H   H1499     1.0  0.40784  0.62067  0.38963  1.0000
  C   C861      1.0  0.23695  0.55888  0.11828  1.0000
  H   H1500     1.0  0.19255  0.67230  0.50353  1.0000
  Fe  Fe93      1.0  0.18857  0.57422  0.50904  1.0000
  S   S188      1.0  0.15340  0.55898  0.50617  1.0000
  H   H1501     1.0  0.42608  0.51406  0.40523  1.0000
  H   H1502     1.0  0.24011  0.65526  0.50374  1.0000
  H   H1503     1.0  0.32038  0.47040  0.50088  1.0000
  H   H1504     1.0  0.07865  0.43834  0.42484  1.0000
  H   H1505     1.0  0.07482  0.66851  0.09412  1.0000
  H   H1506     1.0  0.09786  0.58249  0.50985  1.0000
  H   H1507     1.0  0.21601  0.66326  0.41586  1.0000
  H   H1508     1.0  0.10614  0.50818  0.02745  1.0000
  H   H1509     1.0  0.38093  0.63970  0.51250  1.0000
  H   H1510     1.0  0.23991  0.46210  0.08870  1.0000
  H   H1511     1.0  0.94177  0.47508  0.31718  1.0000
  H   H1512     1.0  0.35516  0.42565  0.21641  1.0000
  H   H1513     1.0  0.41957  0.45977  0.04630  1.0000
  S   S189      1.0  0.02701  0.42969  0.43137  1.0000
  H   H1514     1.0  0.03669  0.42921  0.27582  1.0000
  H   H1515     1.0  0.41688  0.42692  0.30530  1.0000
  H   H1516     1.0  0.10284  0.55934  0.50636  1.0000
  C   C862      1.0  0.31867  0.42632  0.45722  1.0000
  H   H1517     1.0  0.21552  0.46087  0.04012  1.0000
  C   C863      1.0  0.22569  0.47796  0.04266  1.0000
  S   S190      1.0  0.03394  0.45064  0.51460  1.0000
  C   C864      1.0  0.31209  0.67360  0.42311  1.0000
  H   H1518     1.0  0.94226  0.64189  0.02815  1.0000
  H   H1519     1.0  0.12143  0.46035  0.51925  1.0000
  H   H1520     1.0  0.36780  0.52710  0.02528  1.0000
  H   H1521     1.0  0.31828  0.42387  0.32068  1.0000
  H   H1522     1.0  0.42639  0.43713  0.05287  1.0000
  H   H1523     1.0  0.24253  0.42440  0.34673  1.0000
  S   S191      1.0  0.15167  0.50867  0.52105  1.0000
  C   C865      1.0  0.08272  0.80357  0.92186  1.0000
  H   H1524     1.0  0.99823  0.78393  0.65777  1.0000
  H   H1525     1.0  0.14805  0.67500  0.74773  1.0000
  H   H1526     1.0  0.39962  0.67836  0.63955  1.0000
  H   H1527     1.0  0.32992  0.89407  0.53542  1.0000
  C   C866      1.0  0.39025  0.78315  0.56438  1.0000
  S   S192      1.0  0.01578  0.85046  0.89348  1.0000
  H   H1528     1.0  0.08852  0.71719  0.69737  1.0000
  C   C867      1.0  0.10053  0.85205  0.82196  1.0000
  H   H1529     1.0  0.22303  0.91216  0.77482  1.0000
  H   H1530     1.0  0.10629  0.74343  0.79905  1.0000
  H   H1531     1.0  0.33149  0.80413  0.73979  1.0000
  C   C868      1.0  0.21404  0.85949  0.92338  1.0000
  H   H1532     1.0  0.11511  0.86674  0.61665  1.0000
  H   H1533     1.0  0.21577  0.91982  0.62744  1.0000
  H   H1534     1.0  0.97773  0.84589  0.98719  1.0000
  H   H1535     1.0  0.35388  0.84640  0.00538  1.0000
  H   H1536     1.0  0.23999  0.88257  0.00449  1.0000
  C   C869      1.0  0.11440  0.68329  0.53479  1.0000
  H   H1537     1.0  0.17513  0.80963  0.95393  1.0000
  C   C870      1.0  0.30422  0.69518  0.76613  1.0000
  H   H1538     1.0  0.07212  0.69833  0.81940  1.0000
  H   H1539     1.0  0.11743  0.69223  0.78484  1.0000
  S   S193      1.0  0.34146  0.73054  0.57820  1.0000
  H   H1540     1.0  0.39603  0.85088  0.98105  1.0000
  C   C871      1.0  0.34372  0.67613  0.78276  1.0000
  S   S194      1.0  0.02568  0.71178  0.93713  1.0000
  C   C872      1.0  0.97720  0.82545  0.78534  1.0000
  H   H1541     1.0  0.19821  0.68834  0.83906  1.0000
  H   H1542     1.0  0.32529  0.78792  0.64184  1.0000
  C   C873      1.0  0.95801  0.90154  0.62793  1.0000
  H   H1543     1.0  0.24153  0.76020  0.60062  1.0000
  H   H1544     1.0  0.03931  0.71265  0.60184  1.0000
  C   C874      1.0  0.40889  0.73314  0.70142  1.0000
  C   C875      1.0  0.34247  0.73469  0.74615  1.0000
  H   H1545     1.0  0.10270  0.81877  0.89675  1.0000
  H   H1546     1.0  0.23410  0.77101  0.64625  1.0000
  H   H1547     1.0  0.13692  0.69966  0.86359  1.0000
  C   C876      1.0  0.09353  0.78232  0.98822  1.0000
  S   S195      1.0  0.18960  0.81661  0.74128  1.0000
  C   C877      1.0  0.18759  0.82408  0.90955  1.0000
  S   S196      1.0  0.43425  0.89757  0.96762  1.0000
  H   H1548     1.0  0.08833  0.68824  0.87699  1.0000
  C   C878      1.0  0.94668  0.69516  0.69845  1.0000
  C   C879      1.0  0.36815  0.77608  0.65823  1.0000
  C   C880      1.0  0.97046  0.82412  0.74061  1.0000
  S   S197      1.0  0.32138  0.75967  0.99785  1.0000
  S   S198      1.0  0.01033  0.70758  0.71384  1.0000
  H   H1549     1.0  0.34877  0.68465  0.73891  1.0000
  H   H1550     1.0  0.17112  0.69499  0.87164  1.0000
  Fe  Fe94      1.0  0.40520  0.88261  0.54946  1.0000
  H   H1551     1.0  0.18150  0.70509  0.65613  1.0000
  H   H1552     1.0  0.37331  0.73316  0.01073  1.0000
  H   H1553     1.0  0.96560  0.68261  0.66184  1.0000
  Fe  Fe95      1.0  0.96730  0.71223  0.87225  1.0000
  H   H1554     1.0  0.01175  0.83305  0.00792  1.0000
  H   H1555     1.0  0.38089  0.85900  0.83641  1.0000
  H   H1556     1.0  0.29921  0.68630  0.81023  1.0000
  C   C881      1.0  0.10515  0.73885  0.87561  1.0000
  H   H1557     1.0  0.33613  0.83628  0.94070  1.0000
  H   H1558     1.0  0.94563  0.90426  0.69920  1.0000
  H   H1559     1.0  0.04243  0.67656  0.62449  1.0000
  H   H1560     1.0  0.04532  0.67967  0.75856  1.0000
  H   H1561     1.0  0.97133  0.84133  0.71925  1.0000
  H   H1562     1.0  0.13964  0.72944  0.58829  1.0000
  H   H1563     1.0  0.95622  0.78072  0.66428  1.0000
  H   H1564     1.0  0.39634  0.76279  0.83343  1.0000
  H   H1565     1.0  0.40497  0.80347  0.54695  1.0000
  H   H1566     1.0  0.31442  0.68938  0.74528  1.0000
  C   C882      1.0  0.35549  0.90202  0.62271  1.0000
  H   H1567     1.0  0.99114  0.85304  0.61119  1.0000
  H   H1568     1.0  0.93686  0.84881  0.92300  1.0000
  H   H1569     1.0  0.31231  0.83797  0.97692  1.0000
  C   C883      1.0  0.09052  0.73138  0.92915  1.0000
  H   H1570     1.0  0.40478  0.86453  0.67177  1.0000
  C   C884      1.0  0.97361  0.89788  0.59743  1.0000
  H   H1571     1.0  0.10718  0.70236  0.57521  1.0000
  S   S199      1.0  0.98711  0.73735  0.78077  1.0000
  C   C885      1.0  0.06892  0.67382  0.91042  1.0000
  C   C886      1.0  0.24835  0.88154  0.96844  1.0000
  H   H1572     1.0  0.06496  0.72903  0.61184  1.0000
  H   H1573     1.0  0.21670  0.85207  0.76544  1.0000
  C   C887      1.0  0.37983  0.89504  0.96105  1.0000
  H   H1574     1.0  0.36995  0.67596  0.94412  1.0000
  S   S200      1.0  0.36772  0.69392  0.63437  1.0000
  H   H1575     1.0  0.10524  0.82623  0.52486  1.0000
  H   H1576     1.0  0.17753  0.72301  0.68572  1.0000
  H   H1577     1.0  0.96548  0.82824  0.81208  1.0000
  H   H1578     1.0  0.10951  0.85598  0.84688  1.0000
  H   H1579     1.0  0.99238  0.81064  0.72274  1.0000
  H   H1580     1.0  0.17447  0.87522  0.95623  1.0000
  C   C888      1.0  0.96118  0.84732  0.56443  1.0000
  S   S201      1.0  0.16282  0.77028  0.60564  1.0000
  H   H1581     1.0  0.35276  0.72746  0.73212  1.0000
  C   C889      1.0  0.07470  0.71868  0.72185  1.0000
  S   S202      1.0  0.04807  0.90753  0.74553  1.0000
  H   H1582     1.0  0.42342  0.84803  0.71661  1.0000
  H   H1583     1.0  0.41467  0.72150  0.62521  1.0000
  C   C890      1.0  0.33345  0.78285  0.57305  1.0000
  C   C891      1.0  0.08199  0.91325  0.60038  1.0000
  C   C892      1.0  0.37634  0.76015  0.78786  1.0000
  H   H1584     1.0  0.95120  0.80739  0.76043  1.0000
  C   C893      1.0  0.07142  0.71495  0.55733  1.0000
  C   C894      1.0  0.31332  0.84373  0.56803  1.0000
  H   H1585     1.0  0.18319  0.73926  0.02025  1.0000
  H   H1586     1.0  0.32854  0.68285  0.95121  1.0000
  Fe  Fe96      1.0  0.17505  0.78919  0.65107  1.0000
  C   C895      1.0  0.15223  0.67833  0.88767  1.0000
  H   H1587     1.0  0.06020  0.68368  0.91314  1.0000
  S   S203      1.0  0.12912  0.90369  0.85813  1.0000
  C   C896      1.0  0.23263  0.88526  0.68651  1.0000
  S   S204      1.0  0.94092  0.90868  0.60179  1.0000
  Fe  Fe97      1.0  0.01678  0.90508  0.73557  1.0000
  H   H1588     1.0  0.33521  0.75985  0.78952  1.0000
  H   H1589     1.0  0.40140  0.74187  0.53387  1.0000
  H   H1590     1.0  0.28337  0.74074  0.57464  1.0000
  C   C897      1.0  0.00523  0.81154  0.87352  1.0000
  C   C898      1.0  0.95739  0.78814  0.69258  1.0000
  H   H1591     1.0  0.12658  0.70298  0.94746  1.0000
  C   C899      1.0  0.34521  0.80711  0.75402  1.0000
  H   H1592     1.0  0.40804  0.74353  0.60245  1.0000
  H   H1593     1.0  0.30766  0.72906  0.75566  1.0000
  C   C900      1.0  0.24654  0.76653  0.62834  1.0000
  H   H1594     1.0  0.09002  0.78235  0.76954  1.0000
  C   C901      1.0  0.26865  0.78331  0.96770  1.0000
  H   H1595     1.0  0.25993  0.89995  0.88216  1.0000
  C   C902      1.0  0.42931  0.72469  0.84935  1.0000
  H   H1596     1.0  0.08915  0.80405  0.71705  1.0000
  H   H1597     1.0  0.17369  0.67441  0.74542  1.0000
  C   C903      1.0  0.13046  0.85811  0.55791  1.0000
  H   H1598     1.0  0.08949  0.87728  0.81985  1.0000
  H   H1599     1.0  0.96028  0.70446  0.71085  1.0000
  C   C904      1.0  0.22262  0.90253  0.87646  1.0000
  H   H1600     1.0  0.33345  0.88133  0.92735  1.0000
  H   H1601     1.0  0.00623  0.84253  0.67385  1.0000
  H   H1602     1.0  0.97446  0.80754  0.81115  1.0000
  C   C905      1.0  0.42315  0.74222  0.60408  1.0000
  C   C906      1.0  0.97403  0.89852  0.69150  1.0000
  C   C907      1.0  0.00112  0.81898  0.61849  1.0000
  H   H1603     1.0  0.95153  0.70968  0.65813  1.0000
  Fe  Fe98      1.0  0.16077  0.77679  0.76746  1.0000
  C   C908      1.0  0.39681  0.87056  0.84080  1.0000
  H   H1604     1.0  0.04184  0.76260  0.93077  1.0000
  C   C909      1.0  0.06264  0.86793  0.62025  1.0000
  N   N47       1.0  0.30834  0.81942  0.60787  1.0000
  C   C910      1.0  0.05340  0.69272  0.77298  1.0000
  H   H1605     1.0  0.14311  0.81823  0.86443  1.0000
  N   N48       1.0  0.98020  0.81517  0.66179  1.0000
  C   C911      1.0  0.35994  0.68156  0.92616  1.0000
  Fe  Fe99      1.0  0.42909  0.85602  0.53652  1.0000
  H   H1606     1.0  0.29970  0.77187  0.63170  1.0000
  H   H1607     1.0  0.02794  0.79635  0.95560  1.0000
  H   H1608     1.0  0.94502  0.68340  0.00455  1.0000
  C   C912      1.0  0.21548  0.68120  0.66423  1.0000
  C   C913      1.0  0.93996  0.78151  0.52901  1.0000
  C   C914      1.0  0.33838  0.67739  0.97069  1.0000
  H   H1609     1.0  0.96605  0.70992  0.00707  1.0000
  H   H1610     1.0  0.20226  0.71961  0.67920  1.0000
  H   H1611     1.0  0.06329  0.85531  0.73002  1.0000
  C   C915      1.0  0.41738  0.87602  0.68348  1.0000
  C   C916      1.0  0.31934  0.78801  0.61047  1.0000
  H   H1612     1.0  0.97138  0.77038  0.73818  1.0000
  H   H1613     1.0  0.33018  0.76452  0.59801  1.0000
  C   C917      1.0  0.36136  0.80025  0.72841  1.0000
  H   H1614     1.0  0.24553  0.89971  0.81463  1.0000
  S   S205      1.0  0.18689  0.77468  0.70961  1.0000
  C   C918      1.0  0.08413  0.79964  0.84169  1.0000
  H   H1615     1.0  0.22005  0.75153  0.54920  1.0000
  S   S206      1.0  0.14737  0.78888  0.71071  1.0000
  H   H1616     1.0  0.35224  0.72348  0.93410  1.0000
  H   H1617     1.0  0.39125  0.72909  0.70392  1.0000
  H   H1618     1.0  0.36780  0.74723  0.64014  1.0000
  C   C919      1.0  0.38475  0.76498  0.93690  1.0000
  C   C920      1.0  0.12230  0.70030  0.74197  1.0000
  H   H1619     1.0  0.23904  0.86129  0.98055  1.0000
  H   H1620     1.0  0.07659  0.68179  0.78783  1.0000
  C   C921      1.0  0.38816  0.87108  0.89332  1.0000
  H   H1621     1.0  0.28523  0.91327  0.94184  1.0000
  C   C922      1.0  0.07381  0.82754  0.86018  1.0000
  C   C923      1.0  0.18296  0.70997  0.68797  1.0000
  C   C924      1.0  0.32283  0.74247  0.92722  1.0000
  S   S207      1.0  0.99565  0.73988  0.88295  1.0000
  H   H1622     1.0  0.03675  0.88591  0.54932  1.0000
  H   H1623     1.0  0.03590  0.78208  0.89013  1.0000
  H   H1624     1.0  0.07119  0.90629  0.64451  1.0000
  C   C925      1.0  0.19877  0.68720  0.94170  1.0000
  H   H1625     1.0  0.08278  0.82294  0.77171  1.0000
  H   H1626     1.0  0.30786  0.80259  0.68453  1.0000
  C   C926      1.0  0.22303  0.87204  0.74842  1.0000
  C   C927      1.0  0.03018  0.81748  0.78810  1.0000
  C   C928      1.0  0.41811  0.67996  0.85037  1.0000
  C   C929      1.0  0.17632  0.86473  0.99026  1.0000
  C   C930      1.0  0.34563  0.77203  0.74394  1.0000
  H   H1627     1.0  0.08783  0.77372  0.92777  1.0000
  S   S208      1.0  0.99107  0.88245  0.82572  1.0000
  H   H1628     1.0  0.23037  0.80021  0.95308  1.0000
  H   H1629     1.0  0.28416  0.78462  0.57546  1.0000
  C   C931      1.0  0.42976  0.75190  0.64207  1.0000
  H   H1630     1.0  0.98544  0.88707  0.93390  1.0000
  C   C932      1.0  0.97566  0.88590  0.97217  1.0000
  H   H1631     1.0  0.23062  0.86135  0.89905  1.0000
  H   H1632     1.0  0.33896  0.68676  0.79870  1.0000
  H   H1633     1.0  0.34218  0.88499  0.66275  1.0000
  H   H1634     1.0  0.14053  0.68809  0.96990  1.0000
  H   H1635     1.0  0.37909  0.72564  0.92907  1.0000
  C   C933      1.0  0.11461  0.68438  0.72108  1.0000
  C   C934      1.0  0.23132  0.68552  0.68662  1.0000
  C   C935      1.0  0.12025  0.69496  0.66610  1.0000
  H   H1636     1.0  0.20322  0.82310  0.89447  1.0000
  S   S209      1.0  0.03685  0.74603  0.78303  1.0000
  H   H1637     1.0  0.26426  0.78819  0.99952  1.0000
  H   H1638     1.0  0.39537  0.91442  0.92552  1.0000
  C   C936      1.0  0.30219  0.83102  0.68307  1.0000
  H   H1639     1.0  0.15893  0.71860  0.90669  1.0000
  C   C937      1.0  0.95425  0.76856  0.74444  1.0000
  H   H1640     1.0  0.98884  0.79939  0.91319  1.0000
  S   S210      1.0  0.27661  0.71066  0.67909  1.0000
  H   H1641     1.0  0.35335  0.79839  0.55091  1.0000
  Fe  Fe100     1.0  0.34064  0.69571  0.61004  1.0000
  C   C938      1.0  0.24849  0.72012  0.57773  1.0000
  C   C939      1.0  0.30926  0.73667  0.97999  1.0000
  H   H1642     1.0  0.37292  0.70169  0.89191  1.0000
  H   H1643     1.0  0.98308  0.83381  0.55376  1.0000
  H   H1644     1.0  0.37616  0.85109  0.92777  1.0000
  H   H1645     1.0  0.97386  0.89817  0.56044  1.0000
  C   C940      1.0  0.04689  0.84312  0.76962  1.0000
  H   H1646     1.0  0.06829  0.69210  0.63301  1.0000
  S   S211      1.0  0.38022  0.88157  0.61622  1.0000
  H   H1647     1.0  0.40457  0.88181  0.89720  1.0000
  H   H1648     1.0  0.30972  0.85100  0.65477  1.0000
  H   H1649     1.0  0.16270  0.89400  0.78476  1.0000
  C   C941      1.0  0.00929  0.80171  0.84007  1.0000
  H   H1650     1.0  0.18924  0.74283  0.56991  1.0000
  H   H1651     1.0  0.94653  0.84499  0.59713  1.0000
  C   C942      1.0  0.25301  0.75447  0.99295  1.0000
  H   H1652     1.0  0.32498  0.73181  0.69366  1.0000
  H   H1653     1.0  0.42413  0.72101  0.54628  1.0000
  H   H1654     1.0  0.29981  0.89982  0.69354  1.0000
  C   C943      1.0  0.16445  0.69161  0.79106  1.0000
  H   H1655     1.0  0.10435  0.81239  0.82412  1.0000
  H   H1656     1.0  0.30963  0.84206  0.53459  1.0000
  H   H1657     1.0  0.94051  0.78744  0.70682  1.0000
  H   H1658     1.0  0.20809  0.76209  0.59035  1.0000
  H   H1659     1.0  0.28202  0.81905  0.70027  1.0000
  H   H1660     1.0  0.14174  0.73891  0.72382  1.0000
  H   H1661     1.0  0.99669  0.84169  0.76673  1.0000
  Fe  Fe101     1.0  0.30730  0.92239  0.74716  1.0000
  C   C944      1.0  0.06280  0.68881  0.60252  1.0000
  H   H1662     1.0  0.06387  0.73107  0.82945  1.0000
  C   C945      1.0  0.14316  0.73733  0.65141  1.0000
  C   C946      1.0  0.19365  0.68660  0.99593  1.0000
  H   H1663     1.0  0.04871  0.83373  0.56844  1.0000
  C   C947      1.0  0.20835  0.75819  0.55662  1.0000
  C   C948      1.0  0.07139  0.73158  0.85700  1.0000
  C   C949      1.0  0.26928  0.86599  0.76864  1.0000
  H   H1664     1.0  0.05880  0.78932  0.80870  1.0000
  H   H1665     1.0  0.07593  0.80909  0.95040  1.0000
  C   C950      1.0  0.01357  0.84827  0.01604  1.0000
  H   H1666     1.0  0.17477  0.71656  0.99846  1.0000
  C   C951      1.0  0.04433  0.78111  0.91718  1.0000
  H   H1667     1.0  0.40240  0.76837  0.91384  1.0000
  C   C952      1.0  0.97700  0.86985  0.01949  1.0000
  H   H1668     1.0  0.05632  0.87242  0.78941  1.0000
  H   H1669     1.0  0.41679  0.70318  0.93557  1.0000
  C   C953      1.0  0.37482  0.88403  0.89198  1.0000
  H   H1670     1.0  0.15479  0.70075  0.78946  1.0000
  H   H1671     1.0  0.01656  0.83966  0.59147  1.0000
  H   H1672     1.0  0.39527  0.79111  0.70398  1.0000
  C   C954      1.0  0.28461  0.88046  0.71202  1.0000
  C   C955      1.0  0.33989  0.86802  0.53931  1.0000
  S   S212      1.0  0.13493  0.74711  0.85663  1.0000
  H   H1673     1.0  0.08734  0.78871  0.01518  1.0000
  H   H1674     1.0  0.06577  0.74426  0.54804  1.0000
  H   H1675     1.0  0.03958  0.69508  0.79382  1.0000
  C   C956      1.0  0.31482  0.72383  0.91306  1.0000
  H   H1676     1.0  0.06914  0.91206  0.58394  1.0000
  C   C957      1.0  0.09380  0.80141  0.75074  1.0000
  C   C958      1.0  0.14978  0.83520  0.82778  1.0000
  H   H1677     1.0  0.41287  0.74124  0.72740  1.0000
  C   C959      1.0  0.15303  0.85633  0.83022  1.0000
  H   H1678     1.0  0.21741  0.69213  0.92068  1.0000
  H   H1679     1.0  0.25983  0.92205  0.67073  1.0000
  H   H1680     1.0  0.41129  0.76526  0.77006  1.0000
  H   H1681     1.0  0.00145  0.73844  0.01357  1.0000
  H   H1682     1.0  0.98443  0.90551  0.96444  1.0000
  H   H1683     1.0  0.33140  0.76965  0.73143  1.0000
  C   C960      1.0  0.16624  0.87864  0.73281  1.0000
  H   H1684     1.0  0.11349  0.68275  0.65046  1.0000
  C   C961      1.0  0.36090  0.71932  0.95895  1.0000
  S   S213      1.0  0.39126  0.84498  0.55709  1.0000
  C   C962      1.0  0.42005  0.70294  0.89799  1.0000
  C   C963      1.0  0.15447  0.83569  0.77818  1.0000
  H   H1685     1.0  0.13339  0.85620  0.63044  1.0000
  H   H1686     1.0  0.20110  0.90713  0.54668  1.0000
  S   S214      1.0  0.01156  0.89303  0.67573  1.0000
  C   C964      1.0  0.24633  0.89637  0.91962  1.0000
  N   N49       1.0  0.35941  0.76320  0.71913  1.0000
  C   C965      1.0  0.26433  0.72439  0.60002  1.0000
  H   H1687     1.0  0.11163  0.85042  0.79086  1.0000
  H   H1688     1.0  0.08147  0.67864  0.96844  1.0000
  H   H1689     1.0  0.20509  0.89417  0.87543  1.0000
  C   C966      1.0  0.10028  0.69410  0.55150  1.0000
  C   C967      1.0  0.13624  0.72674  0.70733  1.0000
  H   H1690     1.0  0.39773  0.77568  0.54271  1.0000
  C   C968      1.0  0.31966  0.72417  0.73778  1.0000
  C   C969      1.0  0.28147  0.79825  0.63396  1.0000
  H   H1691     1.0  0.33423  0.83403  0.63660  1.0000
  H   H1692     1.0  0.01743  0.80855  0.66827  1.0000
  H   H1693     1.0  0.34401  0.82882  0.56170  1.0000
  H   H1694     1.0  0.18044  0.85028  0.91695  1.0000
  S   S215      1.0  0.27565  0.88072  0.80676  1.0000
  H   H1695     1.0  0.03564  0.77873  0.99749  1.0000
  C   C970      1.0  0.22414  0.69834  0.60955  1.0000
  C   C971      1.0  0.96764  0.82936  0.58868  1.0000
  H   H1696     1.0  0.27594  0.78117  0.67063  1.0000
  H   H1697     1.0  0.23747  0.82923  0.83678  1.0000
  H   H1698     1.0  0.21289  0.72765  0.95409  1.0000
  H   H1699     1.0  0.17726  0.81955  0.88724  1.0000
  C   C972      1.0  0.38077  0.76758  0.62590  1.0000
  C   C973      1.0  0.43305  0.72416  0.80094  1.0000
  C   C974      1.0  0.29287  0.69963  0.95071  1.0000
  C   C975      1.0  0.16334  0.85761  0.73037  1.0000
  H   H1700     1.0  0.23248  0.82660  0.95682  1.0000
  H   H1701     1.0  0.19726  0.70132  0.91433  1.0000
  H   H1702     1.0  0.24410  0.75060  0.66169  1.0000
  C   C976      1.0  0.38143  0.77016  0.72764  1.0000
  S   S216      1.0  0.14873  0.90033  0.94748  1.0000
  C   C977      1.0  0.13512  0.68650  0.90106  1.0000
  H   H1703     1.0  0.39096  0.76287  0.71100  1.0000
  H   H1704     1.0  0.94621  0.79464  0.54446  1.0000
  C   C978      1.0  0.41687  0.86530  0.01869  1.0000
  H   H1705     1.0  0.33518  0.72539  0.79134  1.0000
  H   H1706     1.0  0.25529  0.73334  0.53534  1.0000
  H   H1707     1.0  0.97444  0.89908  0.72745  1.0000
  N   N50       1.0  0.36129  0.88108  0.94579  1.0000
  C   C979      1.0  0.27856  0.69419  0.00255  1.0000
  C   C980      1.0  0.98846  0.82316  0.69894  1.0000
  C   C981      1.0  0.14071  0.69982  0.93328  1.0000
  H   H1708     1.0  0.43082  0.70143  0.76382  1.0000
  C   C982      1.0  0.10125  0.87522  0.79097  1.0000
  S   S217      1.0  0.17171  0.85873  0.66771  1.0000
  C   C983      1.0  0.27517  0.89295  0.95369  1.0000
  H   H1709     1.0  0.00171  0.89222  0.58944  1.0000
  H   H1710     1.0  0.24207  0.81005  0.99513  1.0000
  H   H1711     1.0  0.18321  0.70677  0.78027  1.0000
  H   H1712     1.0  0.28433  0.89152  0.91918  1.0000
  H   H1713     1.0  0.17246  0.89539  0.69625  1.0000
  H   H1714     1.0  0.38850  0.88525  0.97090  1.0000
  H   H1715     1.0  0.37491  0.80395  0.74330  1.0000
  H   H1716     1.0  0.43268  0.77050  0.62888  1.0000
  H   H1717     1.0  0.11371  0.81622  0.73287  1.0000
  H   H1718     1.0  0.30058  0.79383  0.01659  1.0000
  H   H1719     1.0  0.94847  0.77127  0.77930  1.0000
  C   C984      1.0  0.34372  0.85349  0.99156  1.0000
  H   H1720     1.0  0.35284  0.77377  0.65018  1.0000
  C   C985      1.0  0.22841  0.80770  0.98079  1.0000
  H   H1721     1.0  0.38793  0.77719  0.95509  1.0000
  S   S218      1.0  0.29465  0.69768  0.56334  1.0000
  H   H1722     1.0  0.22108  0.90141  0.60345  1.0000
  H   H1723     1.0  0.03000  0.67844  0.88637  1.0000
  H   H1724     1.0  0.99644  0.88020  0.00994  1.0000
  C   C986      1.0  0.07846  0.80377  0.79342  1.0000
  C   C987      1.0  0.35162  0.92058  0.60437  1.0000
  H   H1725     1.0  0.34888  0.73465  0.00509  1.0000
  C   C988      1.0  0.09556  0.73894  0.83950  1.0000
  H   H1726     1.0  0.93726  0.74691  0.54214  1.0000
  Fe  Fe102     1.0  0.00531  0.71763  0.77966  1.0000
  N   N51       1.0  0.07258  0.67568  0.58356  1.0000
  C   C989      1.0  0.06637  0.72385  0.94671  1.0000
  C   C990      1.0  0.19669  0.85065  0.89941  1.0000
  C   C991      1.0  0.40036  0.77068  0.79005  1.0000
  N   N52       1.0  0.34524  0.69116  0.00076  1.0000
  H   H1727     1.0  0.96297  0.77002  0.54329  1.0000
  C   C992      1.0  0.42766  0.70181  0.80133  1.0000
  H   H1728     1.0  0.32576  0.72799  0.87322  1.0000
  H   H1729     1.0  0.24621  0.88218  0.66800  1.0000
  H   H1730     1.0  0.30038  0.84716  0.58856  1.0000
  H   H1731     1.0  0.99581  0.78221  0.85370  1.0000
  H   H1732     1.0  0.36627  0.76595  0.80892  1.0000
  H   H1733     1.0  0.36553  0.73908  0.81118  1.0000
  H   H1734     1.0  0.42778  0.89641  0.65217  1.0000
  H   H1735     1.0  0.99543  0.81282  0.59109  1.0000
  C   C993      1.0  0.05958  0.72579  0.58138  1.0000
  H   H1736     1.0  0.32336  0.81603  0.53886  1.0000
  H   H1737     1.0  0.28839  0.79106  0.94937  1.0000
  H   H1738     1.0  0.20291  0.86523  0.01280  1.0000
  C   C994      1.0  0.25578  0.70703  0.65438  1.0000
  H   H1739     1.0  0.93972  0.73723  0.72937  1.0000
  C   C995      1.0  0.98940  0.89456  0.61378  1.0000
  C   C996      1.0  0.24916  0.84075  0.79282  1.0000
  H   H1740     1.0  0.09795  0.73158  0.95692  1.0000
  H   H1741     1.0  0.38934  0.90448  0.86010  1.0000
  C   C997      1.0  0.03460  0.81282  0.59100  1.0000
  N   N53       1.0  0.22119  0.88366  0.92393  1.0000
  H   H1742     1.0  0.34595  0.87027  0.56935  1.0000
  C   C998      1.0  0.08649  0.89313  0.59988  1.0000
  H   H1743     1.0  0.09024  0.76406  0.01389  1.0000
  C   C999      1.0  0.28020  0.87008  0.67919  1.0000
  C   C1000     1.0  0.00204  0.75589  0.99918  1.0000
  C   C1001     1.0  0.97487  0.83299  0.63222  1.0000
  C   C1002     1.0  0.16634  0.68572  0.74433  1.0000
  H   H1744     1.0  0.11360  0.79669  0.96007  1.0000
  Fe  Fe103     1.0  0.15101  0.89081  0.88177  1.0000
  H   H1745     1.0  0.37793  0.77028  0.90844  1.0000
  H   H1746     1.0  0.35675  0.82750  0.74130  1.0000
  H   H1747     1.0  0.32713  0.78143  0.54271  1.0000
  H   H1748     1.0  0.33538  0.88840  0.97910  1.0000
  H   H1749     1.0  0.15064  0.81883  0.77728  1.0000
  S   S219      1.0  0.43660  0.75388  0.98337  1.0000
  C   C1003     1.0  0.02849  0.77963  0.96812  1.0000
  C   C1004     1.0  0.13473  0.72137  0.63114  1.0000
  H   H1750     1.0  0.20647  0.86381  0.85454  1.0000
  Fe  Fe104     1.0  0.01677  0.76362  0.79129  1.0000
  C   C1005     1.0  0.05667  0.72363  0.91098  1.0000
  C   C1006     1.0  0.95771  0.90131  0.67574  1.0000
  S   S220      1.0  0.20565  0.69313  0.57835  1.0000
  C   C1007     1.0  0.19284  0.67449  0.82534  1.0000
  H   H1751     1.0  0.26558  0.79252  0.93453  1.0000
  H   H1752     1.0  0.40621  0.87241  0.72391  1.0000
  H   H1753     1.0  0.07934  0.78008  0.86008  1.0000
  C   C1008     1.0  0.13190  0.86797  0.59731  1.0000
  H   H1754     1.0  0.36228  0.87727  0.87524  1.0000
  C   C1009     1.0  0.16101  0.87797  0.78279  1.0000
  C   C1010     1.0  0.21232  0.71297  0.98623  1.0000
  H   H1755     1.0  0.33557  0.79534  0.79959  1.0000
  H   H1756     1.0  0.22794  0.81139  0.77813  1.0000
  S   S221      1.0  0.14536  0.85455  0.89369  1.0000
  H   H1757     1.0  0.20533  0.84353  0.96553  1.0000
  C   C1011     1.0  0.43486  0.86870  0.68626  1.0000
  Fe  Fe105     1.0  0.01354  0.72038  0.87465  1.0000
  H   H1758     1.0  0.43335  0.80035  0.00378  1.0000
  H   H1759     1.0  0.06535  0.83038  0.89274  1.0000
  C   C1012     1.0  0.99006  0.89543  0.65995  1.0000
  S   S222      1.0  0.20492  0.83039  0.61420  1.0000
  H   H1760     1.0  0.12039  0.89264  0.76836  1.0000
  H   H1761     1.0  0.37522  0.78178  0.55652  1.0000
  H   H1762     1.0  0.39689  0.77044  0.63043  1.0000
  H   H1763     1.0  0.16819  0.84500  0.99899  1.0000
  C   C1013     1.0  0.01180  0.80468  0.63878  1.0000
  H   H1764     1.0  0.29257  0.88143  0.63543  1.0000
  C   C1014     1.0  0.37664  0.90566  0.58984  1.0000
  S   S223      1.0  0.43094  0.82851  0.59767  1.0000
  H   H1765     1.0  0.09958  0.89943  0.55850  1.0000
  H   H1766     1.0  0.23778  0.88170  0.75771  1.0000
  H   H1767     1.0  0.11420  0.83792  0.58239  1.0000
  H   H1768     1.0  0.14835  0.88798  0.57529  1.0000
  H   H1769     1.0  0.25902  0.75083  0.95993  1.0000
  H   H1770     1.0  0.20179  0.68534  0.77982  1.0000
  H   H1771     1.0  0.06331  0.82671  0.83763  1.0000
  H   H1772     1.0  0.06764  0.72568  0.69593  1.0000
  C   C1015     1.0  0.32438  0.81411  0.57698  1.0000
  C   C1016     1.0  0.36975  0.89776  0.01052  1.0000
  Fe  Fe106     1.0  0.30054  0.70377  0.62977  1.0000
  S   S224      1.0  0.03548  0.92316  0.83647  1.0000
  H   H1773     1.0  0.95630  0.87766  0.98184  1.0000
  H   H1774     1.0  0.06598  0.85328  0.62436  1.0000
  H   H1775     1.0  0.37147  0.81344  0.68334  1.0000
  C   C1017     1.0  0.07987  0.77886  0.95542  1.0000
  H   H1776     1.0  0.41151  0.79175  0.76929  1.0000
  H   H1777     1.0  0.09507  0.87356  0.76061  1.0000
  H   H1778     1.0  0.40917  0.89009  0.80455  1.0000
  H   H1779     1.0  0.40705  0.86205  0.84219  1.0000
  H   H1780     1.0  0.23064  0.71692  0.96688  1.0000
  C   C1018     1.0  0.24390  0.83062  0.75964  1.0000
  S   S225      1.0  0.98326  0.69048  0.87140  1.0000
  H   H1781     1.0  0.02964  0.80733  0.56230  1.0000
  H   H1782     1.0  0.29783  0.81009  0.76317  1.0000
  H   H1783     1.0  0.29958  0.83853  0.74941  1.0000
  H   H1784     1.0  0.38143  0.79689  0.63842  1.0000
  H   H1785     1.0  0.20982  0.89602  0.97736  1.0000
  C   C1019     1.0  0.30703  0.83007  0.73100  1.0000
  H   H1786     1.0  0.40701  0.71499  0.71783  1.0000
  H   H1787     1.0  0.28647  0.91858  0.61620  1.0000
  H   H1788     1.0  0.04845  0.86114  0.66105  1.0000
  Fe  Fe107     1.0  0.21452  0.81581  0.67806  1.0000
  H   H1789     1.0  0.27469  0.80533  0.56347  1.0000
  C   C1020     1.0  0.02183  0.83729  0.85458  1.0000
  H   H1790     1.0  0.05567  0.87022  0.59065  1.0000
  C   C1021     1.0  0.31405  0.82146  0.65271  1.0000
  H   H1791     1.0  0.33996  0.76110  0.89797  1.0000
  C   C1022     1.0  0.34681  0.89170  0.93920  1.0000
  S   S226      1.0  0.25371  0.83414  0.65879  1.0000
  H   H1792     1.0  0.20728  0.87209  0.76904  1.0000
  Fe  Fe108     1.0  0.02317  0.88696  0.83562  1.0000
  H   H1793     1.0  0.26988  0.80382  0.65046  1.0000
  S   S227      1.0  0.03647  0.80598  0.74531  1.0000
  H   H1794     1.0  0.09411  0.88922  0.62740  1.0000
  H   H1795     1.0  0.95954  0.83111  0.66189  1.0000
  H   H1796     1.0  0.32706  0.84114  0.71668  1.0000
  C   C1023     1.0  0.25942  0.84543  0.70260  1.0000
  C   C1024     1.0  0.04283  0.85290  0.80301  1.0000
  C   C1025     1.0  0.32626  0.83467  0.97945  1.0000
  H   H1797     1.0  0.08371  0.73280  0.73338  1.0000
  H   H1798     1.0  0.21697  0.87589  0.67958  1.0000
  N   N54       1.0  0.07123  0.80297  0.88524  1.0000
  C   C1026     1.0  0.20345  0.87802  0.97697  1.0000
  C   C1027     1.0  0.27318  0.78989  0.59574  1.0000
  H   H1799     1.0  0.04251  0.80317  0.60703  1.0000
  Fe  Fe109     1.0  0.17799  0.82860  0.67989  1.0000
  C   C1028     1.0  0.41438  0.68059  0.89854  1.0000
  H   H1800     1.0  0.37921  0.69604  0.99075  1.0000
  H   H1801     1.0  0.01538  0.86278  0.98094  1.0000
  H   H1802     1.0  0.05531  0.71847  0.98778  1.0000
  H   H1803     1.0  0.95152  0.80956  0.60718  1.0000
  H   H1804     1.0  0.06028  0.76275  0.98457  1.0000
  H   H1805     1.0  0.28697  0.68791  0.76379  1.0000
  C   C1029     1.0  0.06241  0.68293  0.81167  1.0000
  H   H1806     1.0  0.27612  0.88250  0.98975  1.0000
  S   S228      1.0  0.09682  0.91051  0.97574  1.0000
  H   H1807     1.0  0.94525  0.87744  0.86717  1.0000
  S   S229      1.0  0.28486  0.67685  0.93113  1.0000
  H   H1808     1.0  0.25752  0.90544  0.57593  1.0000
  H   H1809     1.0  0.99351  0.75636  0.97236  1.0000
  H   H1810     1.0  0.18943  0.78680  0.01317  1.0000
  S   S230      1.0  0.33799  0.68924  0.54185  1.0000
  C   C1030     1.0  0.03755  0.86110  0.01774  1.0000
  C   C1031     1.0  0.39863  0.84614  0.01631  1.0000
  H   H1811     1.0  0.05311  0.86882  0.97808  1.0000
  C   C1032     1.0  0.94333  0.76095  0.55534  1.0000
  H   H1812     1.0  0.06673  0.71326  0.52520  1.0000
  H   H1813     1.0  0.33248  0.91901  0.88188  1.0000
  H   H1814     1.0  0.22307  0.75482  0.98683  1.0000
  C   C1033     1.0  0.36600  0.73709  0.98254  1.0000
  H   H1815     1.0  0.99879  0.67573  0.66693  1.0000
  C   C1034     1.0  0.22524  0.74295  0.01820  1.0000
  H   H1816     1.0  0.17447  0.68038  0.01606  1.0000
  H   H1817     1.0  0.97773  0.86739  0.54041  1.0000
  H   H1818     1.0  0.35981  0.67819  0.78666  1.0000
  H   H1819     1.0  0.23028  0.91502  0.68788  1.0000
  H   H1820     1.0  0.25310  0.91548  0.91445  1.0000
  H   H1821     1.0  0.02217  0.70836  0.54199  1.0000
  H   H1822     1.0  0.14118  0.91257  0.62174  1.0000
  H   H1823     1.0  0.10680  0.91525  0.66109  1.0000
  H   H1824     1.0  0.36725  0.91314  0.99753  1.0000
  C   C1035     1.0  0.24427  0.91396  0.66245  1.0000
  C   C1036     1.0  0.99874  0.67551  0.74013  1.0000
  C   C1037     1.0  0.22991  0.92104  0.59586  1.0000
  H   H1825     1.0  0.39952  0.91530  0.74453  1.0000
  H   H1826     1.0  0.14712  0.85879  0.54167  1.0000
  H   H1827     1.0  0.09152  0.72919  0.53770  1.0000
  H   H1828     1.0  0.14795  0.71086  0.53008  1.0000
  H   H1829     1.0  0.93827  0.69994  0.54609  1.0000
  C   C1038     1.0  0.24367  0.91423  0.81897  1.0000
  Fe  Fe110     1.0  0.13015  0.91683  0.91820  1.0000
  H   H1830     1.0  0.29326  0.90398  0.54975  1.0000
  H   H1831     1.0  0.40592  0.92115  0.00191  1.0000
  H   H1832     1.0  0.95447  0.84312  0.53630  1.0000
  C   C1039     1.0  0.36215  0.92044  0.89566  1.0000
  C   C1040     1.0  0.28696  0.71261  0.01748  1.0000
  Fe  Fe111     1.0  0.00487  0.92010  0.82003  1.0000
  H   H1833     1.0  0.22517  0.91862  0.88183  1.0000
  H   H1834     1.0  0.95421  0.92138  0.02112  1.0000
  H   H1835     1.0  0.03110  0.92137  0.98520  1.0000
  H   H1836     1.0  0.11112  0.87211  0.53182  1.0000
  H   H1837     1.0  0.33529  0.91765  0.62955  1.0000
  H   H1838     1.0  0.14412  0.92354  0.66892  1.0000
  H   H1839     1.0  0.40800  0.82902  0.14327  1.0000
  C   C1041     1.0  0.99478  0.69586  0.36991  1.0000
  H   H1840     1.0  0.14228  0.70786  0.10710  1.0000
  H   H1841     1.0  0.97625  0.91812  0.24108  1.0000
  H   H1842     1.0  0.97179  0.87978  0.22865  1.0000
  H   H1843     1.0  0.43584  0.82507  0.16137  1.0000
  C   C1042     1.0  0.13926  0.85364  0.22695  1.0000
  C   C1043     1.0  0.38694  0.81459  0.10604  1.0000
  H   H1844     1.0  0.04611  0.79512  0.39487  1.0000
  H   H1845     1.0  0.05984  0.83977  0.31740  1.0000
  S   S231      1.0  0.04349  0.87550  0.46182  1.0000
  H   H1846     1.0  0.16351  0.75627  0.20757  1.0000
  C   C1044     1.0  0.25258  0.75921  0.13458  1.0000
  H   H1847     1.0  0.36104  0.90891  0.48654  1.0000
  H   H1848     1.0  0.09696  0.69871  0.03112  1.0000
  C   C1045     1.0  0.01547  0.67914  0.24349  1.0000
  H   H1849     1.0  0.19180  0.69182  0.15415  1.0000
  H   H1850     1.0  0.23993  0.92068  0.15847  1.0000
  H   H1851     1.0  0.10626  0.89460  0.46923  1.0000
  H   H1852     1.0  0.96281  0.78963  0.09735  1.0000
  C   C1046     1.0  0.16508  0.68107  0.40079  1.0000
  Fe  Fe112     1.0  0.09132  0.74958  0.27602  1.0000
  H   H1853     1.0  0.43526  0.87321  0.06513  1.0000
  H   H1854     1.0  0.15465  0.79033  0.44806  1.0000
  C   C1047     1.0  0.11194  0.80097  0.29681  1.0000
  C   C1048     1.0  0.11846  0.81711  0.31770  1.0000
  H   H1855     1.0  0.34378  0.69870  0.30750  1.0000
  C   C1049     1.0  0.07593  0.80376  0.48772  1.0000
  H   H1856     1.0  0.98648  0.91586  0.46423  1.0000
  H   H1857     1.0  0.11153  0.73938  0.11221  1.0000
  C   C1050     1.0  0.17353  0.77240  0.45782  1.0000
  H   H1858     1.0  0.05616  0.69087  0.15678  1.0000
  H   H1859     1.0  0.29582  0.81042  0.14814  1.0000
  H   H1860     1.0  0.19998  0.81666  0.04469  1.0000
  H   H1861     1.0  0.29699  0.69236  0.44858  1.0000
  H   H1862     1.0  0.01390  0.70893  0.33888  1.0000
  H   H1863     1.0  0.16636  0.80843  0.11251  1.0000
  H   H1864     1.0  0.25668  0.70648  0.37816  1.0000
  C   C1051     1.0  0.29646  0.73076  0.34201  1.0000
  H   H1865     1.0  0.07039  0.68593  0.50834  1.0000
  N   N55       1.0  0.01328  0.75714  0.43049  1.0000
  H   H1866     1.0  0.21261  0.73295  0.38490  1.0000
  C   C1052     1.0  0.31505  0.69585  0.42920  1.0000
  C   C1053     1.0  0.43584  0.79667  0.09860  1.0000
  C   C1054     1.0  0.17904  0.76619  0.16596  1.0000
  H   H1867     1.0  0.03229  0.68053  0.23949  1.0000
  S   S232      1.0  0.94241  0.74331  0.27158  1.0000
  C   C1055     1.0  0.07584  0.82993  0.14372  1.0000
  H   H1868     1.0  0.05843  0.89563  0.09105  1.0000
  H   H1869     1.0  0.99962  0.77819  0.49108  1.0000
  H   H1870     1.0  0.96604  0.86837  0.05694  1.0000
  C   C1056     1.0  0.40609  0.72851  0.47835  1.0000
  H   H1871     1.0  0.19182  0.75053  0.41712  1.0000
  H   H1872     1.0  0.32236  0.82081  0.29422  1.0000
  H   H1873     1.0  0.05636  0.76827  0.34986  1.0000
  H   H1874     1.0  0.33622  0.78179  0.40675  1.0000
  N   N56       1.0  0.02486  0.68547  0.14677  1.0000
  H   H1875     1.0  0.19491  0.88417  0.36534  1.0000
  H   H1876     1.0  0.36347  0.69487  0.04989  1.0000
  N   N57       1.0  0.17543  0.78140  0.12328  1.0000
  H   H1877     1.0  0.38838  0.75192  0.34045  1.0000
  H   H1878     1.0  0.12141  0.76099  0.41194  1.0000
  C   C1057     1.0  0.08087  0.89926  0.13177  1.0000
  H   H1879     1.0  0.17982  0.70998  0.10254  1.0000
  S   S233      1.0  0.36897  0.78333  0.16176  1.0000
  H   H1880     1.0  0.99540  0.67731  0.12728  1.0000
  H   H1881     1.0  0.03519  0.77230  0.27049  1.0000
  S   S234      1.0  0.98555  0.80183  0.37888  1.0000
  C   C1058     1.0  0.21857  0.68497  0.15649  1.0000
  H   H1882     1.0  0.96978  0.72670  0.42128  1.0000
  H   H1883     1.0  0.25874  0.76516  0.09177  1.0000
  C   C1059     1.0  0.38764  0.75340  0.30242  1.0000
  S   S235      1.0  0.00812  0.79782  0.16228  1.0000
  H   H1884     1.0  0.26143  0.67558  0.03169  1.0000
  C   C1060     1.0  0.01716  0.71997  0.13243  1.0000
  H   H1885     1.0  0.15472  0.78046  0.51248  1.0000
  H   H1886     1.0  0.95348  0.83491  0.13108  1.0000
  C   C1061     1.0  0.36741  0.69082  0.26852  1.0000
  C   C1062     1.0  0.38057  0.90150  0.17706  1.0000
  C   C1063     1.0  0.01101  0.82403  0.21704  1.0000
  C   C1064     1.0  0.20907  0.76345  0.37769  1.0000
  H   H1887     1.0  0.16817  0.88185  0.03592  1.0000
  S   S236      1.0  0.95507  0.68409  0.16663  1.0000
  H   H1888     1.0  0.08663  0.88299  0.23261  1.0000
  S   S237      1.0  0.29883  0.86047  0.10202  1.0000
  H   H1889     1.0  0.18993  0.73816  0.22802  1.0000
  S   S238      1.0  0.11055  0.79096  0.21427  1.0000
  H   H1890     1.0  0.23801  0.69306  0.13065  1.0000
  H   H1891     1.0  0.40562  0.78630  0.19030  1.0000
  C   C1065     1.0  0.27229  0.70519  0.36549  1.0000
  Fe  Fe113     1.0  0.31571  0.70281  0.16956  1.0000
  H   H1892     1.0  0.98507  0.90486  0.31682  1.0000
  C   C1066     1.0  0.14565  0.70646  0.06970  1.0000
  H   H1893     1.0  0.38845  0.80289  0.24651  1.0000
  C   C1067     1.0  0.14115  0.75045  0.36861  1.0000
  H   H1894     1.0  0.39901  0.83323  0.24042  1.0000
  H   H1895     1.0  0.98817  0.76155  0.27298  1.0000
  C   C1068     1.0  0.21102  0.70022  0.12568  1.0000
  Fe  Fe114     1.0  0.40525  0.86549  0.46682  1.0000
  H   H1896     1.0  0.32355  0.69828  0.45558  1.0000
  C   C1069     1.0  0.34181  0.89190  0.50714  1.0000
  H   H1897     1.0  0.19501  0.84394  0.17425  1.0000
  C   C1070     1.0  0.34108  0.90004  0.16878  1.0000
  H   H1898     1.0  0.16400  0.81572  0.21301  1.0000
  H   H1899     1.0  0.40605  0.72553  0.09663  1.0000
  S   S239      1.0  0.02454  0.90499  0.35798  1.0000
  C   C1071     1.0  0.13228  0.84348  0.28277  1.0000
  H   H1900     1.0  0.02325  0.68973  0.07218  1.0000
  C   C1072     1.0  0.99287  0.77924  0.27056  1.0000
  H   H1901     1.0  0.11427  0.83137  0.43141  1.0000
  S   S240      1.0  0.06893  0.67993  0.36665  1.0000
  H   H1902     1.0  0.28345  0.78630  0.41643  1.0000
  H   H1903     1.0  0.31645  0.69593  0.02640  1.0000
  H   H1904     1.0  0.41142  0.90116  0.35588  1.0000
  H   H1905     1.0  0.32355  0.81222  0.12683  1.0000
  H   H1906     1.0  0.07248  0.79772  0.45841  1.0000
  H   H1907     1.0  0.31178  0.72919  0.32726  1.0000
  N   N58       1.0  0.31543  0.77888  0.28478  1.0000
  H   H1908     1.0  0.05460  0.79433  0.31834  1.0000
  H   H1909     1.0  0.42400  0.76391  0.26204  1.0000
  H   H1910     1.0  0.20909  0.68604  0.40482  1.0000
  C   C1073     1.0  0.34197  0.68494  0.29426  1.0000
  Fe  Fe115     1.0  0.09460  0.71484  0.36463  1.0000
  H   H1911     1.0  0.01942  0.84081  0.17793  1.0000
  C   C1074     1.0  0.02579  0.78440  0.41678  1.0000
  H   H1912     1.0  0.07357  0.71489  0.05487  1.0000
  C   C1075     1.0  0.01150  0.67657  0.11726  1.0000
  H   H1913     1.0  0.33242  0.81757  0.22115  1.0000
  H   H1914     1.0  0.35546  0.86079  0.22662  1.0000
  H   H1915     1.0  0.04763  0.72114  0.14177  1.0000
  H   H1916     1.0  0.00469  0.89873  0.18474  1.0000
  C   C1076     1.0  0.21810  0.78238  0.50493  1.0000
  S   S241      1.0  0.34626  0.74177  0.09642  1.0000
  H   H1917     1.0  0.94001  0.80504  0.42411  1.0000
  C   C1077     1.0  0.21971  0.77820  0.45595  1.0000
  H   H1918     1.0  0.01099  0.84274  0.26337  1.0000
  H   H1919     1.0  0.99767  0.89649  0.10708  1.0000
  H   H1920     1.0  0.06401  0.83324  0.12854  1.0000
  H   H1921     1.0  0.39443  0.73236  0.46347  1.0000
  S   S242      1.0  0.07117  0.72873  0.36830  1.0000
  H   H1922     1.0  0.35186  0.88007  0.04467  1.0000
  H   H1923     1.0  0.13808  0.84531  0.16307  1.0000
  H   H1924     1.0  0.36493  0.71628  0.13241  1.0000
  H   H1925     1.0  0.05459  0.68569  0.05735  1.0000
  H   H1926     1.0  0.17883  0.90769  0.38743  1.0000
  H   H1927     1.0  0.93958  0.78057  0.17931  1.0000
  C   C1078     1.0  0.97791  0.70071  0.36347  1.0000
  C   C1079     1.0  0.17867  0.72773  0.21272  1.0000
  H   H1928     1.0  0.06333  0.79603  0.13861  1.0000
  S   S243      1.0  0.28629  0.70273  0.15199  1.0000
  C   C1080     1.0  0.18047  0.80215  0.30742  1.0000
  H   H1929     1.0  0.08648  0.83963  0.30771  1.0000
  H   H1930     1.0  0.37635  0.76028  0.29656  1.0000
  C   C1081     1.0  0.24569  0.77194  0.15537  1.0000
  H   H1931     1.0  0.28164  0.74732  0.29994  1.0000
  C   C1082     1.0  0.42061  0.85880  0.06392  1.0000
  C   C1083     1.0  0.06386  0.69401  0.07813  1.0000
  C   C1084     1.0  0.95299  0.68339  0.40316  1.0000
  H   H1932     1.0  0.03684  0.75093  0.14549  1.0000
  C   C1085     1.0  0.19873  0.79947  0.06847  1.0000
  H   H1933     1.0  0.19989  0.80721  0.45112  1.0000
  C   C1086     1.0  0.01959  0.78821  0.46636  1.0000
  C   C1087     1.0  0.02950  0.74762  0.11759  1.0000
  C   C1088     1.0  0.37394  0.82475  0.43109  1.0000
  H   H1934     1.0  0.99613  0.70505  0.50099  1.0000
  C   C1089     1.0  0.18238  0.74626  0.15949  1.0000
  H   H1935     1.0  0.32631  0.80315  0.02830  1.0000
  C   C1090     1.0  0.13727  0.91131  0.05796  1.0000
  Fe  Fe116     1.0  0.94049  0.70815  0.30895  1.0000
  H   H1936     1.0  0.15944  0.79376  0.04955  1.0000
  H   H1937     1.0  0.09319  0.69691  0.09553  1.0000
  H   H1938     1.0  0.27505  0.87478  0.34661  1.0000
  H   H1939     1.0  0.19315  0.80668  0.17962  1.0000
  C   C1091     1.0  0.08008  0.85190  0.29979  1.0000
  C   C1092     1.0  0.08010  0.87658  0.13117  1.0000
  H   H1940     1.0  0.11009  0.67676  0.50681  1.0000
  H   H1941     1.0  0.12082  0.90818  0.13574  1.0000
  H   H1942     1.0  0.19911  0.77066  0.05101  1.0000
  H   H1943     1.0  0.02633  0.81870  0.48250  1.0000
  S   S244      1.0  0.31100  0.71693  0.22691  1.0000
  C   C1093     1.0  0.96813  0.72012  0.46271  1.0000
  C   C1094     1.0  0.18025  0.82962  0.17121  1.0000
  C   C1095     1.0  0.41542  0.78588  0.04213  1.0000
  H   H1944     1.0  0.25678  0.90056  0.12301  1.0000
  C   C1096     1.0  0.10005  0.85568  0.12272  1.0000
  H   H1945     1.0  0.28345  0.77701  0.32567  1.0000
  H   H1946     1.0  0.43069  0.70584  0.32537  1.0000
  C   C1097     1.0  0.12727  0.75778  0.07413  1.0000
  H   H1947     1.0  0.10827  0.86615  0.07722  1.0000
  H   H1948     1.0  0.21668  0.68574  0.19430  1.0000
  H   H1949     1.0  0.37444  0.68978  0.29822  1.0000
  H   H1950     1.0  0.94387  0.76998  0.02854  1.0000
  C   C1098     1.0  0.20237  0.78924  0.02967  1.0000
  H   H1951     1.0  0.21910  0.80132  0.33491  1.0000
  H   H1952     1.0  0.94179  0.82684  0.33486  1.0000
  N   N59       1.0  0.96669  0.82508  0.07343  1.0000
  H   H1953     1.0  0.15904  0.71515  0.24480  1.0000
  H   H1954     1.0  0.32721  0.71380  0.38856  1.0000
  H   H1955     1.0  0.40586  0.79466  0.04934  1.0000
  C   C1099     1.0  0.24951  0.84556  0.33631  1.0000
  C   C1100     1.0  0.18895  0.81609  0.14962  1.0000
  N   N60       1.0  0.09713  0.87140  0.14585  1.0000
  C   C1101     1.0  0.35768  0.87816  0.20351  1.0000
  S   S245      1.0  0.24625  0.85184  0.12591  1.0000
  Fe  Fe117     1.0  0.31653  0.74289  0.08297  1.0000
  S   S246      1.0  0.27643  0.87720  0.18264  1.0000
  H   H1956     1.0  0.93980  0.84494  0.36601  1.0000
  H   H1957     1.0  0.34587  0.82068  0.40914  1.0000
  H   H1958     1.0  0.09857  0.91751  0.09779  1.0000
  H   H1959     1.0  0.02131  0.79433  0.38795  1.0000
  C   C1102     1.0  0.02353  0.74612  0.46079  1.0000
  S   S247      1.0  0.04083  0.87025  0.33101  1.0000
  N   N61       1.0  0.12766  0.86680  0.46822  1.0000
  C   C1103     1.0  0.98587  0.74297  0.46582  1.0000
  H   H1960     1.0  0.40270  0.87646  0.31160  1.0000
  H   H1961     1.0  0.17659  0.89527  0.45389  1.0000
  H   H1962     1.0  0.13973  0.71629  0.04544  1.0000
  H   H1963     1.0  0.11997  0.76671  0.05279  1.0000
  C   C1104     1.0  0.36221  0.90626  0.30504  1.0000
  S   S248      1.0  0.35568  0.75326  0.42649  1.0000
  Fe  Fe118     1.0  0.95210  0.70674  0.20431  1.0000
  C   C1105     1.0  0.08337  0.68920  0.07480  1.0000
  H   H1964     1.0  0.19658  0.68663  0.34298  1.0000
  H   H1965     1.0  0.15878  0.70060  0.33826  1.0000
  N   N62       1.0  0.20814  0.71530  0.03651  1.0000
  C   C1106     1.0  0.38062  0.90043  0.31222  1.0000
  C   C1107     1.0  0.14402  0.77558  0.08815  1.0000
  C   C1108     1.0  0.23704  0.74382  0.24541  1.0000
  H   H1966     1.0  0.22368  0.68229  0.47272  1.0000
  H   H1967     1.0  0.04454  0.76073  0.07451  1.0000
  H   H1968     1.0  0.27243  0.69935  0.33462  1.0000
  H   H1969     1.0  0.38036  0.90764  0.06674  1.0000
  Fe  Fe119     1.0  0.28821  0.85161  0.18871  1.0000
  C   C1109     1.0  0.24561  0.73239  0.22357  1.0000
  H   H1970     1.0  0.42556  0.90413  0.24395  1.0000
  S   S249      1.0  0.42157  0.69290  0.10589  1.0000
  H   H1971     1.0  0.33633  0.89098  0.47542  1.0000
  H   H1972     1.0  0.33073  0.67860  0.40249  1.0000
  H   H1973     1.0  0.23137  0.73815  0.28802  1.0000
  H   H1974     1.0  0.09075  0.82466  0.07755  1.0000
  H   H1975     1.0  0.32650  0.68945  0.07514  1.0000
  C   C1110     1.0  0.27440  0.87010  0.31417  1.0000
  C   C1111     1.0  0.13240  0.83739  0.20624  1.0000
  H   H1976     1.0  0.07860  0.89820  0.17105  1.0000
  C   C1112     1.0  0.25299  0.73976  0.16837  1.0000
  H   H1977     1.0  0.34018  0.87152  0.30475  1.0000
  C   C1113     1.0  0.34571  0.67571  0.17624  1.0000
  C   C1114     1.0  0.93801  0.89933  0.29488  1.0000
  H   H1978     1.0  0.25017  0.84173  0.30252  1.0000
  H   H1979     1.0  0.33148  0.85126  0.02875  1.0000
  H   H1980     1.0  0.12569  0.91209  0.03903  1.0000
  S   S250      1.0  0.24956  0.71085  0.26337  1.0000
  H   H1981     1.0  0.13434  0.68612  0.08206  1.0000
  C   C1115     1.0  0.33833  0.78332  0.28746  1.0000
  S   S251      1.0  0.25058  0.81717  0.22346  1.0000
  H   H1982     1.0  0.23143  0.70384  0.04962  1.0000
  C   C1116     1.0  0.32244  0.79798  0.22851  1.0000
  Fe  Fe120     1.0  0.08861  0.70413  0.27508  1.0000
  C   C1117     1.0  0.04829  0.77087  0.28347  1.0000
  C   C1118     1.0  0.99138  0.83702  0.07102  1.0000
  H   H1983     1.0  0.02089  0.71891  0.43404  1.0000
  C   C1119     1.0  0.41369  0.77171  0.25355  1.0000
  H   H1984     1.0  0.19318  0.87234  0.43200  1.0000
  H   H1985     1.0  0.30548  0.68638  0.35450  1.0000
  H   H1986     1.0  0.13787  0.74843  0.16311  1.0000
  H   H1987     1.0  0.02550  0.82404  0.41981  1.0000
  H   H1988     1.0  0.29644  0.73404  0.37633  1.0000
  C   C1120     1.0  0.16295  0.75926  0.32524  1.0000
  S   S252      1.0  0.20563  0.83393  0.27439  1.0000
  H   H1989     1.0  0.40057  0.76095  0.12789  1.0000
  Fe  Fe121     1.0  0.16709  0.90497  0.25439  1.0000
  H   H1990     1.0  0.97173  0.70563  0.47120  1.0000
  C   C1121     1.0  0.23712  0.76363  0.21128  1.0000
  H   H1991     1.0  0.33673  0.68860  0.26179  1.0000
  C   C1122     1.0  0.32243  0.68443  0.04491  1.0000
  H   H1992     1.0  0.28060  0.80382  0.36066  1.0000
  C   C1123     1.0  0.39000  0.70615  0.12283  1.0000
  H   H1993     1.0  0.39955  0.75657  0.20683  1.0000
  H   H1994     1.0  0.17550  0.83953  0.14342  1.0000
  H   H1995     1.0  0.38034  0.71028  0.23159  1.0000
  H   H1996     1.0  0.35833  0.82359  0.26688  1.0000
  H   H1997     1.0  0.04246  0.88508  0.16278  1.0000
  H   H1998     1.0  0.26929  0.69036  0.40231  1.0000
  H   H1999     1.0  0.42308  0.69363  0.41356  1.0000
  C   C1124     1.0  0.10450  0.84044  0.49513  1.0000
  C   C1125     1.0  0.95478  0.91286  0.09911  1.0000
  H   H2000     1.0  0.96508  0.87861  0.15076  1.0000
  C   C1126     1.0  0.38717  0.90406  0.03418  1.0000
  H   H2001     1.0  0.02576  0.69392  0.50234  1.0000
  H   H2002     1.0  0.15627  0.80687  0.35749  1.0000
  C   C1127     1.0  0.12219  0.89553  0.12143  1.0000
  H   H2003     1.0  0.42683  0.76571  0.46616  1.0000
  C   C1128     1.0  0.39255  0.68636  0.13653  1.0000
  Fe  Fe122     1.0  0.33958  0.75582  0.15286  1.0000
  C   C1129     1.0  0.94959  0.68990  0.03249  1.0000
  C   C1130     1.0  0.11873  0.81099  0.24114  1.0000
  C   C1131     1.0  0.08613  0.85580  0.20772  1.0000
  H   H2004     1.0  0.19979  0.67878  0.08751  1.0000
  H   H2005     1.0  0.42769  0.75088  0.16430  1.0000
  Fe  Fe123     1.0  0.25985  0.82770  0.13661  1.0000
  C   C1132     1.0  0.98648  0.88423  0.19187  1.0000
  C   C1133     1.0  0.03174  0.81633  0.44693  1.0000
  H   H2006     1.0  0.35802  0.91440  0.32958  1.0000
  C   C1134     1.0  0.96673  0.89923  0.32595  1.0000
  C   C1135     1.0  0.12825  0.87409  0.51109  1.0000
  C   C1136     1.0  0.30016  0.75264  0.29345  1.0000
  H   H2007     1.0  0.37773  0.80455  0.30707  1.0000
  C   C1137     1.0  0.41348  0.77551  0.19889  1.0000
  C   C1138     1.0  0.06019  0.89955  0.12389  1.0000
  C   C1139     1.0  0.18264  0.78511  0.29475  1.0000
  C   C1140     1.0  0.35057  0.79119  0.41581  1.0000
  H   H2008     1.0  0.28938  0.86819  0.29857  1.0000
  H   H2009     1.0  0.14998  0.87399  0.19980  1.0000
  Fe  Fe124     1.0  0.04664  0.69525  0.36380  1.0000
  H   H2010     1.0  0.13305  0.77958  0.11335  1.0000
  S   S253      1.0  0.95603  0.74254  0.15767  1.0000
  Fe  Fe125     1.0  0.33562  0.72207  0.51410  1.0000
  C   C1141     1.0  0.29966  0.77953  0.32963  1.0000
  H   H2011     1.0  0.99538  0.85210  0.08137  1.0000
  C   C1142     1.0  0.00450  0.80107  0.21978  1.0000
  H   H2012     1.0  0.16079  0.71141  0.38575  1.0000
  H   H2013     1.0  0.20135  0.75610  0.12692  1.0000
  H   H2014     1.0  0.02606  0.78105  0.49359  1.0000
  C   C1143     1.0  0.03581  0.71331  0.12439  1.0000
  H   H2015     1.0  0.42879  0.80835  0.09748  1.0000
  S   S254      1.0  0.41677  0.90278  0.46026  1.0000
  C   C1144     1.0  0.15360  0.76334  0.12086  1.0000
  Fe  Fe126     1.0  0.28422  0.88369  0.09851  1.0000
  H   H2016     1.0  0.32830  0.86916  0.36995  1.0000
  H   H2017     1.0  0.99118  0.75513  0.03566  1.0000
  C   C1145     1.0  0.94657  0.92222  0.05786  1.0000
  H   H2018     1.0  0.06082  0.85944  0.15863  1.0000
  H   H2019     1.0  0.29085  0.77493  0.21920  1.0000
  H   H2020     1.0  0.18833  0.72043  0.33255  1.0000
  C   C1146     1.0  0.17505  0.89101  0.42140  1.0000
  H   H2021     1.0  0.15180  0.78420  0.18149  1.0000
  C   C1147     1.0  0.24371  0.82313  0.38744  1.0000
  C   C1148     1.0  0.22406  0.79170  0.36280  1.0000
  H   H2022     1.0  0.08242  0.91965  0.25587  1.0000
  H   H2023     1.0  0.16917  0.73448  0.14951  1.0000
  H   H2024     1.0  0.15011  0.86402  0.40785  1.0000
  C   C1149     1.0  0.40547  0.83364  0.10777  1.0000
  H   H2025     1.0  0.30182  0.80409  0.06530  1.0000
  C   C1150     1.0  0.98612  0.91898  0.12725  1.0000
  C   C1151     1.0  0.04525  0.90316  0.51126  1.0000
  H   H2026     1.0  0.15737  0.75262  0.10358  1.0000
  C   C1152     1.0  0.10659  0.88784  0.43988  1.0000
  H   H2027     1.0  0.38800  0.88777  0.05292  1.0000
  S   S255      1.0  0.24929  0.79896  0.11003  1.0000
  H   H2028     1.0  0.42099  0.73206  0.44370  1.0000
  H   H2029     1.0  0.35289  0.86725  0.51001  1.0000
  H   H2030     1.0  0.16459  0.74617  0.31509  1.0000
  H   H2031     1.0  0.24060  0.76432  0.33592  1.0000
  Fe  Fe127     1.0  0.28415  0.72005  0.20369  1.0000
  H   H2032     1.0  0.94882  0.89347  0.10804  1.0000
  S   S256      1.0  0.30246  0.92248  0.02843  1.0000
  H   H2033     1.0  0.42744  0.76568  0.08262  1.0000
  C   C1153     1.0  0.31238  0.80328  0.33417  1.0000
  C   C1154     1.0  0.30125  0.79373  0.21538  1.0000
  H   H2034     1.0  0.25719  0.74629  0.02481  1.0000
  S   S257      1.0  0.42625  0.90368  0.09497  1.0000
  C   C1155     1.0  0.04527  0.68224  0.13856  1.0000
  S   S258      1.0  0.13965  0.86259  0.31165  1.0000
  H   H2035     1.0  0.04503  0.75236  0.29268  1.0000
  S   S259      1.0  0.37881  0.85102  0.43628  1.0000
  C   C1156     1.0  0.15821  0.79354  0.34882  1.0000
  H   H2036     1.0  0.37864  0.73413  0.30802  1.0000
  S   S260      1.0  0.99370  0.86683  0.32084  1.0000
  H   H2037     1.0  0.98053  0.75613  0.45409  1.0000
  H   H2038     1.0  0.09601  0.84315  0.42718  1.0000
  S   S261      1.0  0.31249  0.76033  0.13375  1.0000
  C   C1157     1.0  0.02912  0.71170  0.49980  1.0000
  C   C1158     1.0  0.38292  0.81298  0.26295  1.0000
  S   S262      1.0  0.10122  0.69232  0.21828  1.0000
  C   C1159     1.0  0.19917  0.79801  0.42620  1.0000
  C   C1160     1.0  0.16933  0.79685  0.14226  1.0000
  C   C1161     1.0  0.94142  0.70718  0.50336  1.0000
  H   H2039     1.0  0.19564  0.77890  0.16705  1.0000
  C   C1162     1.0  0.16099  0.86267  0.04167  1.0000
  H   H2040     1.0  0.05980  0.80233  0.51233  1.0000
  C   C1163     1.0  0.36167  0.81137  0.25477  1.0000
  H   H2041     1.0  0.17023  0.76564  0.42950  1.0000
  H   H2042     1.0  0.39453  0.70822  0.51166  1.0000
  C   C1164     1.0  0.94401  0.79802  0.17998  1.0000
  C   C1165     1.0  0.41899  0.77528  0.09093  1.0000
  H   H2043     1.0  0.37149  0.88492  0.35562  1.0000
  C   C1166     1.0  0.05094  0.90341  0.46192  1.0000
  C   C1167     1.0  0.00584  0.82500  0.26540  1.0000
  S   S263      1.0  0.30962  0.84794  0.23113  1.0000
  C   C1168     1.0  0.08099  0.81419  0.12319  1.0000
  H   H2044     1.0  0.95250  0.79288  0.48429  1.0000
  H   H2045     1.0  0.33547  0.79819  0.19651  1.0000
  H   H2046     1.0  0.00206  0.70781  0.17540  1.0000
  H   H2047     1.0  0.21352  0.90601  0.38186  1.0000
  H   H2048     1.0  0.04827  0.72447  0.07936  1.0000
  H   H2049     1.0  0.24377  0.80053  0.33620  1.0000
  C   C1169     1.0  0.01603  0.71946  0.47230  1.0000
  H   H2050     1.0  0.13760  0.75413  0.04655  1.0000
  H   H2051     1.0  0.98421  0.71804  0.32848  1.0000
  H   H2052     1.0  0.11301  0.85192  0.13118  1.0000
  H   H2053     1.0  0.06524  0.81841  0.18913  1.0000
  C   C1170     1.0  0.18206  0.70624  0.06825  1.0000
  H   H2054     1.0  0.23024  0.77220  0.22838  1.0000
  H   H2055     1.0  0.39568  0.90201  0.18101  1.0000
  C   C1171     1.0  0.19533  0.88808  0.39888  1.0000
  H   H2056     1.0  0.95415  0.67831  0.05705  1.0000
  H   H2057     1.0  0.32543  0.80352  0.34907  1.0000
  H   H2058     1.0  0.98520  0.86659  0.20043  1.0000
  H   H2059     1.0  0.09226  0.80971  0.13846  1.0000
  H   H2060     1.0  0.40067  0.82374  0.45298  1.0000
  H   H2061     1.0  0.06705  0.78622  0.24859  1.0000
  C   C1172     1.0  0.41953  0.91247  0.31062  1.0000
  C   C1173     1.0  0.14212  0.70356  0.50423  1.0000
  C   C1174     1.0  0.26703  0.92102  0.10139  1.0000
  C   C1175     1.0  0.36667  0.70088  0.14302  1.0000
  H   H2062     1.0  0.07834  0.79071  0.51551  1.0000
  H   H2063     1.0  0.30337  0.82066  0.37734  1.0000
  H   H2064     1.0  0.20343  0.76265  0.34610  1.0000
  C   C1176     1.0  0.33762  0.88192  0.32474  1.0000
  C   C1177     1.0  0.31132  0.81366  0.15624  1.0000
  C   C1178     1.0  0.09256  0.87039  0.23818  1.0000
  H   H2065     1.0  0.22294  0.71997  0.11600  1.0000
  H   H2066     1.0  0.14336  0.89460  0.49146  1.0000
  H   H2067     1.0  0.10637  0.71042  0.51249  1.0000
  C   C1179     1.0  0.01860  0.75744  0.37724  1.0000
  H   H2068     1.0  0.38281  0.89205  0.28647  1.0000
  N   N63       1.0  0.22102  0.79715  0.40894  1.0000
  H   H2069     1.0  0.99120  0.82266  0.10291  1.0000
  S   S264      1.0  0.95356  0.87174  0.43274  1.0000
  H   H2070     1.0  0.32180  0.83314  0.14933  1.0000
  H   H2071     1.0  0.42242  0.79021  0.25177  1.0000
  C   C1180     1.0  0.33794  0.87737  0.19904  1.0000
  H   H2072     1.0  0.06572  0.84266  0.22819  1.0000
  H   H2073     1.0  0.22029  0.74620  0.05274  1.0000
  C   C1181     1.0  0.04594  0.77384  0.33336  1.0000
  H   H2074     1.0  0.18413  0.71570  0.20546  1.0000
  H   H2075     1.0  0.36674  0.67718  0.25562  1.0000
  H   H2076     1.0  0.11261  0.88205  0.22354  1.0000
  H   H2077     1.0  0.19978  0.81048  0.38960  1.0000
  C   C1182     1.0  0.98341  0.89376  0.14152  1.0000
  H   H2078     1.0  0.36946  0.80604  0.05820  1.0000
  C   C1183     1.0  0.96179  0.90689  0.28315  1.0000
  C   C1184     1.0  0.94801  0.81792  0.12723  1.0000
  H   H2079     1.0  0.05206  0.82741  0.42450  1.0000
  H   H2080     1.0  0.98855  0.91043  0.04037  1.0000
  H   H2081     1.0  0.24225  0.82831  0.41957  1.0000
  C   C1185     1.0  0.38357  0.82077  0.06009  1.0000
  S   S265      1.0  0.11670  0.71816  0.40729  1.0000
  C   C1186     1.0  0.17280  0.71868  0.03473  1.0000
  C   C1187     1.0  0.98652  0.77990  0.31868  1.0000
  H   H2082     1.0  0.14518  0.90542  0.40508  1.0000
  H   H2083     1.0  0.32589  0.89957  0.16540  1.0000
  H   H2084     1.0  0.33434  0.77466  0.33093  1.0000
  H   H2085     1.0  0.20593  0.83073  0.10940  1.0000
  H   H2086     1.0  0.13358  0.89094  0.13624  1.0000
  H   H2087     1.0  0.22953  0.75146  0.40891  1.0000
  C   C1188     1.0  0.41682  0.74585  0.49991  1.0000
  H   H2088     1.0  0.08370  0.88005  0.08920  1.0000
  H   H2089     1.0  0.04925  0.72669  0.47544  1.0000
  H   H2090     1.0  0.27627  0.70816  0.05803  1.0000
  H   H2091     1.0  0.14751  0.85004  0.47326  1.0000
  H   H2092     1.0  0.29165  0.76316  0.37069  1.0000
  C   C1189     1.0  0.96026  0.80207  0.06842  1.0000
  Fe  Fe128     1.0  0.23938  0.84335  0.21076  1.0000
  H   H2093     1.0  0.16913  0.68518  0.08875  1.0000
  S   S266      1.0  0.97567  0.72313  0.23901  1.0000
  H   H2094     1.0  0.01798  0.74463  0.50142  1.0000
  H   H2095     1.0  0.39112  0.78486  0.44993  1.0000
  H   H2096     1.0  0.94364  0.90983  0.13881  1.0000
  H   H2097     1.0  0.15171  0.69518  0.49375  1.0000
  S   S267      1.0  0.11618  0.73764  0.27372  1.0000
  C   C1190     1.0  0.94788  0.88402  0.38044  1.0000
  C   C1191     1.0  0.10898  0.90692  0.38994  1.0000
  Fe  Fe129     1.0  0.97634  0.75747  0.19917  1.0000
  C   C1192     1.0  0.12847  0.88604  0.42297  1.0000
  H   H2098     1.0  0.08871  0.86928  0.45903  1.0000
  C   C1193     1.0  0.16860  0.70487  0.36161  1.0000
  H   H2099     1.0  0.17154  0.75780  0.49299  1.0000
  H   H2100     1.0  0.09208  0.84314  0.21822  1.0000
  H   H2101     1.0  0.13513  0.75705  0.50049  1.0000
  H   H2102     1.0  0.23627  0.77848  0.44102  1.0000
  H   H2103     1.0  0.10197  0.78081  0.32370  1.0000
  H   H2104     1.0  0.16118  0.85105  0.07773  1.0000
  H   H2105     1.0  0.97307  0.91541  0.16533  1.0000
  C   C1194     1.0  0.21305  0.69913  0.07306  1.0000
  H   H2106     1.0  0.23660  0.79761  0.49501  1.0000
  H   H2107     1.0  0.25956  0.73087  0.15137  1.0000
  H   H2108     1.0  0.09587  0.91133  0.40334  1.0000
  H   H2109     1.0  0.28834  0.79517  0.24293  1.0000
  H   H2110     1.0  0.11324  0.80919  0.36081  1.0000
  H   H2111     1.0  0.97636  0.76261  0.35784  1.0000
  H   H2112     1.0  0.13039  0.88275  0.38801  1.0000
  H   H2113     1.0  0.23538  0.84909  0.34694  1.0000
  H   H2114     1.0  0.01942  0.69810  0.23212  1.0000
  H   H2115     1.0  0.21506  0.80682  0.07471  1.0000
  S   S268      1.0  0.99000  0.84357  0.44105  1.0000
  H   H2116     1.0  0.96072  0.80590  0.18447  1.0000
  H   H2117     1.0  0.14749  0.71951  0.46554  1.0000
  C   C1195     1.0  0.99327  0.80272  0.31638  1.0000
  C   C1196     1.0  0.15332  0.77532  0.48100  1.0000
  H   H2118     1.0  0.98091  0.73618  0.50976  1.0000
  H   H2119     1.0  0.20405  0.75845  0.47264  1.0000
  C   C1197     1.0  0.42073  0.89541  0.28792  1.0000
  H   H2120     1.0  0.30849  0.75259  0.25571  1.0000
  H   H2121     1.0  0.01587  0.75200  0.12176  1.0000
  H   H2122     1.0  0.19950  0.79182  0.26165  1.0000
  H   H2123     1.0  0.34424  0.77345  0.27072  1.0000
  Fe  Fe130     1.0  0.00083  0.84041  0.36710  1.0000
  H   H2124     1.0  0.36814  0.81982  0.21002  1.0000
  H   H2125     1.0  0.01000  0.76483  0.35756  1.0000
  Fe  Fe131     1.0  0.03304  0.89738  0.28975  1.0000
  H   H2126     1.0  0.27749  0.88608  0.27954  1.0000
  H   H2127     1.0  0.08483  0.86280  0.32060  1.0000
  N   N64       1.0  0.40539  0.92266  0.29699  1.0000
  H   H2128     1.0  0.38807  0.91736  0.37669  1.0000
  C   C1198     1.0  0.38680  0.81474  0.44237  1.0000
  C   C1199     1.0  0.14942  0.86663  0.44342  1.0000
  C   C1200     1.0  0.29370  0.80340  0.37485  1.0000
  H   H2129     1.0  0.32560  0.88681  0.31448  1.0000
  S   S269      1.0  0.06453  0.71708  0.27167  1.0000
  Fe  Fe132     1.0  0.02935  0.87550  0.40199  1.0000
  C   C1201     1.0  0.22398  0.75255  0.37685  1.0000
  C   C1202     1.0  0.13854  0.76765  0.37959  1.0000
  H   H2130     1.0  0.01000  0.73796  0.38434  1.0000
  H   H2131     1.0  0.26014  0.82296  0.37699  1.0000
  Fe  Fe133     1.0  0.98589  0.87238  0.39252  1.0000
  H   H2132     1.0  0.00911  0.71746  0.10524  1.0000
  H   H2133     1.0  0.10483  0.89889  0.36386  1.0000
  H   H2134     1.0  0.04398  0.75924  0.43812  1.0000
  C   C1203     1.0  0.38137  0.79278  0.44074  1.0000
  C   C1204     1.0  0.36330  0.78108  0.42724  1.0000
  C   C1205     1.0  0.09898  0.83111  0.45579  1.0000
  C   C1206     1.0  0.35595  0.81308  0.41745  1.0000
  H   H2135     1.0  0.06412  0.91854  0.11196  1.0000
  H   H2136     1.0  0.08827  0.83885  0.52014  1.0000
  C   C1207     1.0  0.31291  0.80731  0.02534  1.0000
  H   H2137     1.0  0.04077  0.87711  0.02411  1.0000
  H   H2138     1.0  0.17365  0.68582  0.42587  1.0000
  H   H2139     1.0  0.14556  0.90250  0.04390  1.0000
  H   H2140     1.0  0.20581  0.78805  0.51489  1.0000
  H   H2141     1.0  0.36968  0.91977  0.26109  1.0000
  H   H2142     1.0  0.21907  0.91420  0.04105  1.0000
  H   H2143     1.0  0.03722  0.84727  0.05117  1.0000
  H   H2144     1.0  0.14169  0.85323  0.04999  1.0000
  C   C1208     1.0  0.36403  0.92344  0.14236  1.0000
  H   H2145     1.0  0.40406  0.77022  0.03658  1.0000
  H   H2146     1.0  0.97326  0.80802  0.02693  1.0000
  H   H2147     1.0  0.94812  0.83504  0.03291  1.0000
  C   C1209     1.0  0.43417  0.74187  0.51884  1.0000
  C   C1210     1.0  0.96701  0.84322  0.02701  1.0000
  H   H2148     1.0  0.43626  0.78356  0.51988  1.0000
  C   C1211     1.0  0.36041  0.68622  0.02433  1.0000
  C   C1212     1.0  0.98674  0.67382  0.41611  1.0000
  H   H2149     1.0  0.88045  0.15620  0.54384  1.0000
  C   C1213     1.0  0.89915  0.95290  0.93432  1.0000
  H   H2150     1.0  0.80122  0.03096  0.62365  1.0000
  H   H2151     1.0  0.66046  0.16628  0.74038  1.0000
  C   C1214     1.0  0.52651  0.98848  0.80508  1.0000
  Fe  Fe134     1.0  0.49078  0.96729  0.66318  1.0000
  C   C1215     1.0  0.88760  0.06974  0.87023  1.0000
  H   H2152     1.0  0.45952  0.93247  0.84308  1.0000
  H   H2153     1.0  0.75556  0.03106  0.75751  1.0000
  H   H2154     1.0  0.84072  0.15952  0.87992  1.0000
  H   H2155     1.0  0.59743  0.98192  0.65629  1.0000
  H   H2156     1.0  0.45979  0.98935  0.78182  1.0000
  H   H2157     1.0  0.60425  0.01027  0.54604  1.0000
  S   S270      1.0  0.80720  0.06471  0.73541  1.0000
  H   H2158     1.0  0.64523  0.01238  0.00465  1.0000
  C   C1216     1.0  0.69614  0.98397  0.67841  1.0000
  H   H2159     1.0  0.66815  0.13708  0.80530  1.0000
  S   S271      1.0  0.65397  0.14906  0.53252  1.0000
  H   H2160     1.0  0.70322  0.08515  0.84375  1.0000
  Fe  Fe135     1.0  0.61395  0.07393  0.01899  1.0000
  S   S272      1.0  0.81789  0.15851  0.72811  1.0000
  C   C1217     1.0  0.72632  0.16231  0.78452  1.0000
  H   H2161     1.0  0.84928  0.07346  0.91651  1.0000
  H   H2162     1.0  0.53354  0.05152  0.75543  1.0000
  H   H2163     1.0  0.56663  0.96141  0.77861  1.0000
  C   C1218     1.0  0.54125  0.01620  0.97542  1.0000
  C   C1219     1.0  0.89739  0.05629  0.84991  1.0000
  C   C1220     1.0  0.92979  0.14492  0.97577  1.0000
  C   C1221     1.0  0.57592  0.04032  0.98653  1.0000
  H   H2164     1.0  0.91792  0.00059  0.92888  1.0000
  H   H2165     1.0  0.59519  0.04991  0.97352  1.0000
  H   H2166     1.0  0.51115  0.92627  0.75671  1.0000
  H   H2167     1.0  0.86220  0.92512  0.68239  1.0000
  H   H2168     1.0  0.58635  0.96731  0.90543  1.0000
  C   C1222     1.0  0.74670  0.03182  0.58534  1.0000
  H   H2169     1.0  0.85962  0.10713  0.96738  1.0000
  C   C1223     1.0  0.91607  0.14206  0.74771  1.0000
  C   C1224     1.0  0.60462  0.11614  0.60001  1.0000
  H   H2170     1.0  0.65763  0.11302  0.68036  1.0000
  H   H2171     1.0  0.67832  0.97883  0.90564  1.0000
  H   H2172     1.0  0.88054  0.11173  0.81862  1.0000
  C   C1225     1.0  0.78392  0.16761  0.52643  1.0000
  H   H2173     1.0  0.89608  0.14141  0.98520  1.0000
  H   H2174     1.0  0.73519  0.98544  0.66278  1.0000
  H   H2175     1.0  0.81960  0.92429  0.74999  1.0000
  C   C1226     1.0  0.93257  0.05739  0.62113  1.0000
  C   C1227     1.0  0.69729  0.93460  0.84834  1.0000
  C   C1228     1.0  0.48955  0.04018  0.52355  1.0000
  H   H2176     1.0  0.79840  0.12152  0.92474  1.0000
  H   H2177     1.0  0.86129  0.95181  0.67304  1.0000
  Fe  Fe136     1.0  0.84092  0.10410  0.69743  1.0000
  H   H2178     1.0  0.89452  0.10573  0.89058  1.0000
  C   C1229     1.0  0.44227  0.01158  0.81629  1.0000
  C   C1230     1.0  0.72481  0.99054  0.79972  1.0000
  S   S273      1.0  0.52981  0.00138  0.94087  1.0000
  H   H2179     1.0  0.72851  0.15911  0.71299  1.0000
  C   C1231     1.0  0.77703  0.94254  0.77901  1.0000
  H   H2180     1.0  0.68652  0.99254  0.66800  1.0000
  C   C1232     1.0  0.68588  0.98364  0.93210  1.0000
  H   H2181     1.0  0.64266  0.14612  0.99630  1.0000
  S   S274      1.0  0.64477  0.98299  0.85368  1.0000
  C   C1233     1.0  0.74485  0.95311  0.93989  1.0000
  H   H2182     1.0  0.55576  0.02644  0.81548  1.0000
  H   H2183     1.0  0.91743  0.06690  0.83487  1.0000
  H   H2184     1.0  0.77770  0.15123  0.56552  1.0000
  H   H2185     1.0  0.73190  0.10855  0.71453  1.0000
  Fe  Fe137     1.0  0.82264  0.96659  0.80825  1.0000
  C   C1234     1.0  0.74462  0.95568  0.88670  1.0000
  S   S275      1.0  0.82633  0.12288  0.65637  1.0000
  H   H2186     1.0  0.77478  0.01157  0.77237  1.0000
  H   H2187     1.0  0.67204  0.03356  0.76611  1.0000
  C   C1235     1.0  0.90122  0.95093  0.98654  1.0000
  H   H2188     1.0  0.47062  0.02275  0.86187  1.0000
  C   C1236     1.0  0.66276  0.95919  0.77717  1.0000
  H   H2189     1.0  0.75664  0.04827  0.99779  1.0000
  C   C1237     1.0  0.44681  0.97733  0.82681  1.0000
  C   C1238     1.0  0.91061  0.94204  0.90917  1.0000
  N   N65       1.0  0.44646  0.99369  0.85032  1.0000
  H   H2190     1.0  0.89977  0.01315  0.98572  1.0000
  H   H2191     1.0  0.44702  0.02743  0.82430  1.0000
  H   H2192     1.0  0.73364  0.09625  0.79829  1.0000
  C   C1239     1.0  0.73597  0.97226  0.86542  1.0000
  H   H2193     1.0  0.65195  0.96568  0.76528  1.0000
  H   H2194     1.0  0.72607  0.94326  0.97293  1.0000
  H   H2195     1.0  0.82866  0.92891  0.00125  1.0000
  H   H2196     1.0  0.92439  0.13703  0.01993  1.0000
  H   H2197     1.0  0.59673  0.95286  0.77343  1.0000
  C   C1240     1.0  0.68023  0.15825  0.78239  1.0000
  C   C1241     1.0  0.89498  0.07763  0.62568  1.0000
  C   C1242     1.0  0.66337  0.03279  0.80359  1.0000
  H   H2198     1.0  0.78034  0.95257  0.69873  1.0000
  H   H2199     1.0  0.66943  0.02433  0.53719  1.0000
  Fe  Fe138     1.0  0.66073  0.08075  0.01370  1.0000
  H   H2200     1.0  0.64394  0.15500  0.85890  1.0000
  C   C1243     1.0  0.72161  0.02708  0.78253  1.0000
  H   H2201     1.0  0.49628  0.01305  0.77812  1.0000
  H   H2202     1.0  0.72391  0.09632  0.58551  1.0000
  H   H2203     1.0  0.63232  0.02433  0.54978  1.0000
  Fe  Fe139     1.0  0.71529  0.13521  0.56224  1.0000
  H   H2204     1.0  0.72218  0.16869  0.95920  1.0000
  C   C1244     1.0  0.62178  0.01236  0.53572  1.0000
  H   H2205     1.0  0.65055  0.93141  0.62485  1.0000
  H   H2206     1.0  0.73384  0.16573  0.00619  1.0000
  H   H2207     1.0  0.74288  0.15074  0.82981  1.0000
  H   H2208     1.0  0.69956  0.02283  0.88773  1.0000
  C   C1245     1.0  0.56729  0.02576  0.78277  1.0000
  N   N66       1.0  0.73762  0.97819  0.80986  1.0000
  H   H2209     1.0  0.60604  0.03504  0.83614  1.0000
  C   C1246     1.0  0.58388  0.94557  0.56863  1.0000
  H   H2210     1.0  0.66393  0.94361  0.72524  1.0000
  S   S276      1.0  0.84100  0.94711  0.80666  1.0000
  C   C1247     1.0  0.78765  0.15430  0.68230  1.0000
  H   H2211     1.0  0.47673  0.98682  0.53125  1.0000
  S   S277      1.0  0.91085  0.99764  0.73794  1.0000
  C   C1248     1.0  0.72676  0.01121  0.58079  1.0000
  N   N67       1.0  0.70302  0.16879  0.73205  1.0000
  H   H2212     1.0  0.71540  0.01779  0.57308  1.0000
  C   C1249     1.0  0.80021  0.02305  0.87064  1.0000
  H   H2213     1.0  0.68928  0.99545  0.00603  1.0000
  H   H2214     1.0  0.67130  0.95635  0.55343  1.0000
  N   N68       1.0  0.71076  0.98445  0.62969  1.0000
  Fe  Fe140     1.0  0.87247  0.98098  0.79717  1.0000
  H   H2215     1.0  0.73206  0.93616  0.89551  1.0000
  H   H2216     1.0  0.72237  0.03049  0.74243  1.0000
  C   C1250     1.0  0.91625  0.99358  0.97044  1.0000
  C   C1251     1.0  0.89156  0.12110  0.77474  1.0000
  C   C1252     1.0  0.55201  0.99762  0.79851  1.0000
  S   S278      1.0  0.83425  0.99842  0.93681  1.0000
  H   H2217     1.0  0.70026  0.13436  0.77361  1.0000
  C   C1253     1.0  0.69424  0.96679  0.61594  1.0000
  C   C1254     1.0  0.62540  0.11926  0.56645  1.0000
  C   C1255     1.0  0.64095  0.03109  0.90001  1.0000
  C   C1256     1.0  0.60445  0.09341  0.79800  1.0000
  H   H2218     1.0  0.57456  0.06831  0.79076  1.0000
  H   H2219     1.0  0.58266  0.98802  0.82437  1.0000
  C   C1257     1.0  0.67723  0.13555  0.71046  1.0000
  H   H2220     1.0  0.73706  0.96933  0.57609  1.0000
  H   H2221     1.0  0.66912  0.05729  0.66463  1.0000
  H   H2222     1.0  0.56560  0.09047  0.65483  1.0000
  Fe  Fe141     1.0  0.53811  0.01505  0.63384  1.0000
  C   C1258     1.0  0.44428  0.97484  0.70858  1.0000
  C   C1259     1.0  0.64911  0.04486  0.67912  1.0000
  H   H2223     1.0  0.61752  0.99323  0.55806  1.0000
  C   C1260     1.0  0.85443  0.93246  0.70387  1.0000
  H   H2224     1.0  0.54894  0.98514  0.83879  1.0000
  H   H2225     1.0  0.55465  0.97228  0.54046  1.0000
  C   C1261     1.0  0.86775  0.05852  0.66878  1.0000
  C   C1262     1.0  0.69487  0.05032  0.93839  1.0000
  H   H2226     1.0  0.73803  0.03497  0.61689  1.0000
  H   H2227     1.0  0.73577  0.01180  0.54267  1.0000
  C   C1263     1.0  0.45452  0.94495  0.82405  1.0000
  C   C1264     1.0  0.60833  0.03742  0.72949  1.0000
  Fe  Fe142     1.0  0.80799  0.15122  0.00872  1.0000
  N   N69       1.0  0.88663  0.06831  0.92296  1.0000
  H   H2228     1.0  0.75707  0.97202  0.93414  1.0000
  H   H2229     1.0  0.74755  0.07818  0.58802  1.0000
  H   H2230     1.0  0.75533  0.09084  0.71631  1.0000
  H   H2231     1.0  0.73775  0.01675  0.82988  1.0000
  S   S279      1.0  0.77225  0.07294  0.65235  1.0000
  S   S280      1.0  0.92868  0.15427  0.78409  1.0000
  C   C1265     1.0  0.91143  0.08282  0.65309  1.0000
  H   H2232     1.0  0.68183  0.98909  0.57939  1.0000
  H   H2233     1.0  0.76272  0.01761  0.69584  1.0000
  H   H2234     1.0  0.71387  0.95516  0.67513  1.0000
  H   H2235     1.0  0.46350  0.98664  0.69648  1.0000
  H   H2236     1.0  0.64987  0.94025  0.81556  1.0000
  H   H2237     1.0  0.68382  0.12370  0.72170  1.0000
  H   H2238     1.0  0.70530  0.96971  0.57617  1.0000
  H   H2239     1.0  0.57883  0.05282  0.84512  1.0000
  H   H2240     1.0  0.51835  0.02835  0.82732  1.0000
  C   C1266     1.0  0.71426  0.15537  0.74952  1.0000
  C   C1267     1.0  0.91931  0.14653  0.66050  1.0000
  H   H2241     1.0  0.87023  0.02790  0.96531  1.0000
  C   C1268     1.0  0.74521  0.13685  0.96578  1.0000
  H   H2242     1.0  0.59759  0.05986  0.58395  1.0000
  C   C1269     1.0  0.67386  0.96947  0.61093  1.0000
  H   H2243     1.0  0.89784  0.09548  0.59910  1.0000
  H   H2244     1.0  0.90471  0.06421  0.68727  1.0000
  H   H2245     1.0  0.43918  0.00391  0.70413  1.0000
  C   C1270     1.0  0.44222  0.95039  0.58725  1.0000
  C   C1271     1.0  0.79776  0.02402  0.66664  1.0000
  H   H2246     1.0  0.67670  0.07206  0.76168  1.0000
  H   H2247     1.0  0.51596  0.98916  0.83930  1.0000
  H   H2248     1.0  0.72900  0.04517  0.78218  1.0000
  C   C1272     1.0  0.78967  0.02828  0.90794  1.0000
  H   H2249     1.0  0.84926  0.03537  0.96777  1.0000
  S   S281      1.0  0.45010  0.93734  0.71429  1.0000
  H   H2250     1.0  0.76993  0.17150  0.53332  1.0000
  H   H2251     1.0  0.71764  0.02134  0.94632  1.0000
  H   H2252     1.0  0.93485  0.11297  0.69559  1.0000
  S   S282      1.0  0.68257  0.10904  0.92353  1.0000
  H   H2253     1.0  0.75158  0.94157  0.95307  1.0000
  H   H2254     1.0  0.68512  0.16276  0.81204  1.0000
  H   H2255     1.0  0.56905  0.94097  0.85665  1.0000
  S   S283      1.0  0.85538  0.00181  0.79243  1.0000
  C   C1273     1.0  0.87210  0.96218  0.00948  1.0000
  C   C1274     1.0  0.93255  0.01994  0.74602  1.0000
  H   H2256     1.0  0.86122  0.93392  0.73345  1.0000
  C   C1275     1.0  0.45824  0.97656  0.53518  1.0000
  H   H2257     1.0  0.72263  0.12685  0.81996  1.0000
  N   N70       1.0  0.89520  0.96572  0.00818  1.0000
  C   C1276     1.0  0.65758  0.16284  0.99164  1.0000
  H   H2258     1.0  0.82145  0.00917  0.85145  1.0000
  H   H2259     1.0  0.47266  0.99699  0.87908  1.0000
  H   H2260     1.0  0.90732  0.94220  0.87425  1.0000
  H   H2261     1.0  0.68666  0.94975  0.74701  1.0000
  H   H2262     1.0  0.92023  0.95712  0.97698  1.0000
  H   H2263     1.0  0.90670  0.01181  0.82094  1.0000
  C   C1277     1.0  0.68745  0.00666  0.93078  1.0000
  H   H2264     1.0  0.91235  0.04580  0.63826  1.0000
  H   H2265     1.0  0.76969  0.98029  0.63018  1.0000
  H   H2266     1.0  0.88571  0.09027  0.96057  1.0000
  S   S284      1.0  0.51059  0.96219  0.60054  1.0000
  C   C1278     1.0  0.75373  0.08378  0.65182  1.0000
  H   H2267     1.0  0.90148  0.04732  0.78541  1.0000
  Fe  Fe143     1.0  0.53245  0.00421  0.54377  1.0000
  H   H2268     1.0  0.44005  0.95233  0.62362  1.0000
  H   H2269     1.0  0.52632  0.92706  0.90618  1.0000
  H   H2270     1.0  0.64221  0.02482  0.70472  1.0000
  H   H2271     1.0  0.64448  0.95344  0.59191  1.0000
  S   S285      1.0  0.85868  0.96441  0.88723  1.0000
  C   C1279     1.0  0.85365  0.10080  0.94048  1.0000
  H   H2272     1.0  0.68012  0.04062  0.92924  1.0000
  H   H2273     1.0  0.75961  0.99996  0.56312  1.0000
  H   H2274     1.0  0.60869  0.99565  0.69429  1.0000
  S   S286      1.0  0.51682  0.97358  0.69680  1.0000
  Fe  Fe144     1.0  0.83849  0.98196  0.88424  1.0000
  H   H2275     1.0  0.63042  0.16175  0.81734  1.0000
  C   C1280     1.0  0.76439  0.99550  0.76687  1.0000
  S   S287      1.0  0.62038  0.94197  0.01733  1.0000
  H   H2276     1.0  0.80392  0.12026  0.86293  1.0000
  H   H2277     1.0  0.93072  0.95373  0.89342  1.0000
  H   H2278     1.0  0.45109  0.94054  0.58534  1.0000
  S   S288      1.0  0.67913  0.11040  0.57006  1.0000
  S   S289      1.0  0.65684  0.08089  0.84263  1.0000
  H   H2279     1.0  0.77228  0.97115  0.57959  1.0000
  H   H2280     1.0  0.86286  0.06441  0.69824  1.0000
  C   C1281     1.0  0.59278  0.99955  0.83944  1.0000
  C   C1282     1.0  0.71567  0.07950  0.83469  1.0000
  C   C1283     1.0  0.88102  0.11272  0.74473  1.0000
  H   H2281     1.0  0.46865  0.95850  0.78005  1.0000
  C   C1284     1.0  0.67724  0.95744  0.73179  1.0000
  H   H2282     1.0  0.75828  0.02652  0.59654  1.0000
  C   C1285     1.0  0.57314  0.95842  0.74466  1.0000
  H   H2283     1.0  0.66140  0.14282  0.65790  1.0000
  H   H2284     1.0  0.58404  0.99509  0.68429  1.0000
  H   H2285     1.0  0.67533  0.97267  0.78578  1.0000
  C   C1286     1.0  0.80624  0.01482  0.96344  1.0000
  H   H2286     1.0  0.68702  0.14213  0.62791  1.0000
  H   H2287     1.0  0.73163  0.08630  0.88598  1.0000
  H   H2288     1.0  0.70861  0.99624  0.68928  1.0000
  C   C1287     1.0  0.76198  0.92459  0.83521  1.0000
  H   H2289     1.0  0.89896  0.06982  0.60008  1.0000
  N   N71       1.0  0.59263  0.03679  0.77700  1.0000
  C   C1288     1.0  0.93336  0.10254  0.87597  1.0000
  C   C1289     1.0  0.75948  0.13193  0.98600  1.0000
  H   H2290     1.0  0.63183  0.03029  0.93707  1.0000
  H   H2291     1.0  0.62902  0.13327  0.83737  1.0000
  C   C1290     1.0  0.92573  0.02350  0.78998  1.0000
  H   H2292     1.0  0.86325  0.03933  0.69169  1.0000
  Fe  Fe145     1.0  0.62471  0.94753  0.93520  1.0000
  H   H2293     1.0  0.48117  0.02220  0.56176  1.0000
  H   H2294     1.0  0.87451  0.97005  0.96735  1.0000
  H   H2295     1.0  0.61222  0.00672  0.81733  1.0000
  C   C1291     1.0  0.56638  0.96626  0.53400  1.0000
  H   H2296     1.0  0.73395  0.05661  0.95305  1.0000
  N   N72       1.0  0.69489  0.03146  0.98251  1.0000
  C   C1292     1.0  0.73524  0.10191  0.68688  1.0000
  C   C1293     1.0  0.73109  0.09538  0.61363  1.0000
  H   H2297     1.0  0.72933  0.06135  0.87516  1.0000
  H   H2298     1.0  0.72702  0.95887  0.76645  1.0000
  H   H2299     1.0  0.57394  0.01492  0.86550  1.0000
  S   S290      1.0  0.77282  0.04000  0.89646  1.0000
  H   H2300     1.0  0.78408  0.16548  0.83421  1.0000
  C   C1294     1.0  0.62287  0.09886  0.56092  1.0000
  H   H2301     1.0  0.72432  0.98887  0.98153  1.0000
  C   C1295     1.0  0.71950  0.06975  0.88352  1.0000
  S   S291      1.0  0.88007  0.11866  0.64941  1.0000
  H   H2302     1.0  0.72264  0.99186  0.76302  1.0000
  H   H2303     1.0  0.55727  0.94802  0.73921  1.0000
  H   H2304     1.0  0.66892  0.00210  0.94330  1.0000
  H   H2305     1.0  0.89400  0.11287  0.00088  1.0000
  C   C1296     1.0  0.58250  0.98165  0.90041  1.0000
  H   H2306     1.0  0.76352  0.96407  0.85650  1.0000
  S   S292      1.0  0.63961  0.92475  0.93461  1.0000
  H   H2307     1.0  0.86225  0.09611  0.76588  1.0000
  H   H2308     1.0  0.64517  0.07282  0.68761  1.0000
  H   H2309     1.0  0.64649  0.04751  0.64259  1.0000
  H   H2310     1.0  0.60643  0.13174  0.60461  1.0000
  S   S293      1.0  0.68638  0.16902  0.89783  1.0000
  H   H2311     1.0  0.48061  0.04928  0.53258  1.0000
  C   C1297     1.0  0.49397  0.02534  0.79217  1.0000
  C   C1298     1.0  0.44734  0.99161  0.53718  1.0000
  H   H2312     1.0  0.70206  0.01335  0.81483  1.0000
  C   C1299     1.0  0.83345  0.15441  0.85347  1.0000
  H   H2313     1.0  0.61506  0.10950  0.75492  1.0000
  C   C1300     1.0  0.71976  0.16742  0.99906  1.0000
  C   C1301     1.0  0.74562  0.97957  0.59512  1.0000
  H   H2314     1.0  0.88933  0.93034  0.01861  1.0000
  H   H2315     1.0  0.85987  0.14866  0.81332  1.0000
  Fe  Fe146     1.0  0.81157  0.12310  0.73286  1.0000
  H   H2316     1.0  0.93535  0.10633  0.83488  1.0000
  C   C1302     1.0  0.73675  0.14747  0.80030  1.0000
  H   H2317     1.0  0.44460  0.99258  0.57510  1.0000
  H   H2318     1.0  0.66070  0.96474  0.65049  1.0000
  H   H2319     1.0  0.56854  0.03746  0.74400  1.0000
  C   C1303     1.0  0.72593  0.97584  0.64354  1.0000
  C   C1304     1.0  0.74420  0.08478  0.61561  1.0000
  H   H2320     1.0  0.66008  0.12738  0.74678  1.0000
  H   H2321     1.0  0.80684  0.04076  0.67098  1.0000
  C   C1305     1.0  0.59206  0.98440  0.69176  1.0000
  Fe  Fe147     1.0  0.79357  0.06901  0.80692  1.0000
  H   H2322     1.0  0.76233  0.99101  0.69772  1.0000
  C   C1306     1.0  0.73671  0.01721  0.79277  1.0000
  H   H2323     1.0  0.80605  0.01364  0.67457  1.0000
  C   C1307     1.0  0.56835  0.95307  0.57783  1.0000
  H   H2324     1.0  0.87866  0.16159  0.85825  1.0000
  H   H2325     1.0  0.49328  0.03876  0.76042  1.0000
  H   H2326     1.0  0.74718  0.99023  0.86460  1.0000
  H   H2327     1.0  0.69038  0.06151  0.95315  1.0000
  H   H2328     1.0  0.87292  0.04304  0.81728  1.0000
  C   C1308     1.0  0.79277  0.02430  0.95420  1.0000
  C   C1309     1.0  0.52593  0.01503  0.01954  1.0000
  C   C1310     1.0  0.66595  0.05453  0.80108  1.0000
  H   H2329     1.0  0.86528  0.11713  0.89751  1.0000
  C   C1311     1.0  0.76890  0.93853  0.74224  1.0000
  H   H2330     1.0  0.90923  0.07377  0.96186  1.0000
  C   C1312     1.0  0.58150  0.09273  0.62852  1.0000
  C   C1313     1.0  0.65918  0.95152  0.59440  1.0000
  H   H2331     1.0  0.77287  0.98520  0.77216  1.0000
  S   S294      1.0  0.45999  0.95916  0.98248  1.0000
  H   H2332     1.0  0.60811  0.07607  0.72039  1.0000
  C   C1314     1.0  0.86646  0.04143  0.96962  1.0000
  C   C1315     1.0  0.89294  0.05528  0.80253  1.0000
  Fe  Fe148     1.0  0.53821  0.97144  0.62957  1.0000
  H   H2333     1.0  0.63858  0.04866  0.74925  1.0000
  H   H2334     1.0  0.60722  0.04654  0.69222  1.0000
  H   H2335     1.0  0.90841  0.97287  0.90221  1.0000
  H   H2336     1.0  0.62204  0.07235  0.76194  1.0000
  C   C1316     1.0  0.77012  0.00652  0.70611  1.0000
  H   H2337     1.0  0.90079  0.07456  0.76958  1.0000
  S   S295      1.0  0.82836  0.10706  0.77149  1.0000
  C   C1317     1.0  0.72024  0.11772  0.98888  1.0000
  H   H2338     1.0  0.84204  0.06263  0.98704  1.0000
  C   C1318     1.0  0.85392  0.16117  0.80135  1.0000
  S   S296      1.0  0.73650  0.92428  0.57698  1.0000
  C   C1319     1.0  0.72761  0.10497  0.64780  1.0000
  H   H2339     1.0  0.60136  0.01802  0.73768  1.0000
  H   H2340     1.0  0.82017  0.16878  0.54421  1.0000
  H   H2341     1.0  0.61727  0.09306  0.81338  1.0000
  H   H2342     1.0  0.86900  0.06164  0.87408  1.0000
  S   S297      1.0  0.80567  0.97043  0.75393  1.0000
  C   C1320     1.0  0.64925  0.01004  0.85417  1.0000
  C   C1321     1.0  0.58855  0.06816  0.80181  1.0000
  H   H2343     1.0  0.77645  0.95167  0.01082  1.0000
  C   C1322     1.0  0.85527  0.07896  0.94423  1.0000
  C   C1323     1.0  0.57878  0.07243  0.62247  1.0000
  H   H2344     1.0  0.70583  0.97848  0.83462  1.0000
  C   C1324     1.0  0.63835  0.00923  0.90257  1.0000
  C   C1325     1.0  0.89454  0.12614  0.68743  1.0000
  C   C1326     1.0  0.60402  0.06404  0.76269  1.0000
  S   S298      1.0  0.77563  0.08536  0.77504  1.0000
  H   H2345     1.0  0.76317  0.15222  0.64905  1.0000
  H   H2346     1.0  0.85636  0.05732  0.64830  1.0000
  H   H2347     1.0  0.71278  0.15798  0.82281  1.0000
  H   H2348     1.0  0.83433  0.09427  0.95432  1.0000
  C   C1327     1.0  0.91466  0.01177  0.98884  1.0000
  C   C1328     1.0  0.69719  0.16367  0.68967  1.0000
  H   H2349     1.0  0.56122  0.99506  0.76653  1.0000
  H   H2350     1.0  0.79759  0.02584  0.83521  1.0000
  C   C1329     1.0  0.76378  0.05726  0.53087  1.0000
  H   H2351     1.0  0.92980  0.15710  0.61615  1.0000
  C   C1330     1.0  0.74865  0.09189  0.68797  1.0000
  S   S299      1.0  0.79042  0.15713  0.95698  1.0000
  C   C1331     1.0  0.45334  0.95935  0.85326  1.0000
  H   H2352     1.0  0.75265  0.15369  0.76351  1.0000
  H   H2353     1.0  0.59108  0.99245  0.91864  1.0000
  C   C1332     1.0  0.91048  0.07526  0.92230  1.0000
  S   S300      1.0  0.48309  0.92771  0.01229  1.0000
  S   S301      1.0  0.63021  0.05320  0.00663  1.0000
  C   C1333     1.0  0.59950  0.07552  0.58845  1.0000
  S   S302      1.0  0.71648  0.12337  0.64032  1.0000
  S   S303      1.0  0.54897  0.04376  0.66050  1.0000
  S   S304      1.0  0.55258  0.94784  0.64264  1.0000
  H   H2354     1.0  0.51640  0.05492  0.80590  1.0000
  H   H2355     1.0  0.93193  0.11692  0.88268  1.0000
  C   C1334     1.0  0.47049  0.00928  0.84870  1.0000
  H   H2356     1.0  0.71420  0.17022  0.65463  1.0000
  H   H2357     1.0  0.81961  0.11462  0.89990  1.0000
  C   C1335     1.0  0.67042  0.13333  0.66638  1.0000
  S   S305      1.0  0.56169  0.01349  0.56879  1.0000
  H   H2358     1.0  0.93640  0.05390  0.65576  1.0000
  C   C1336     1.0  0.93017  0.15424  0.69076  1.0000
  C   C1337     1.0  0.69788  0.01355  0.96786  1.0000
  H   H2359     1.0  0.87216  0.16288  0.70028  1.0000
  S   S306      1.0  0.63294  0.10284  0.92978  1.0000
  C   C1338     1.0  0.77685  0.16377  0.65713  1.0000
  H   H2360     1.0  0.90739  0.09254  0.67354  1.0000
  H   H2361     1.0  0.44590  0.02972  0.53602  1.0000
  C   C1339     1.0  0.63597  0.05209  0.71283  1.0000
  H   H2362     1.0  0.88838  0.03652  0.88253  1.0000
  C   C1340     1.0  0.56630  0.02907  0.95885  1.0000
  Fe  Fe149     1.0  0.79138  0.08381  0.70016  1.0000
  H   H2363     1.0  0.78213  0.13521  0.69434  1.0000
  C   C1341     1.0  0.81680  0.00954  0.92615  1.0000
  C   C1342     1.0  0.81358  0.01346  0.88001  1.0000
  H   H2364     1.0  0.68521  0.94652  0.64659  1.0000
  H   H2365     1.0  0.71689  0.96260  0.89748  1.0000
  S   S307      1.0  0.51041  0.00874  0.60464  1.0000
  C   C1343     1.0  0.80501  0.16941  0.69331  1.0000
  C   C1344     1.0  0.66489  0.16820  0.77273  1.0000
  H   H2366     1.0  0.45494  0.02107  0.77174  1.0000
  C   C1345     1.0  0.51690  0.04095  0.79563  1.0000
  H   H2367     1.0  0.84490  0.15505  0.77811  1.0000
  H   H2368     1.0  0.56232  0.97164  0.92313  1.0000
  H   H2369     1.0  0.52791  0.00041  0.76666  1.0000
  H   H2370     1.0  0.51626  0.96849  0.81477  1.0000
  H   H2371     1.0  0.82533  0.16464  0.84233  1.0000
  C   C1346     1.0  0.81263  0.12594  0.88720  1.0000
  C   C1347     1.0  0.59119  0.02224  0.83047  1.0000
  H   H2372     1.0  0.89924  0.08983  0.83607  1.0000
  H   H2373     1.0  0.59257  0.09631  0.82407  1.0000
  C   C1348     1.0  0.65448  0.05362  0.84909  1.0000
  C   C1349     1.0  0.64060  0.15360  0.82491  1.0000
  H   H2374     1.0  0.70756  0.06451  0.82468  1.0000
  C   C1350     1.0  0.75915  0.96935  0.61455  1.0000
  H   H2375     1.0  0.59685  0.94763  0.71877  1.0000
  H   H2376     1.0  0.47141  0.96998  0.85100  1.0000
  H   H2377     1.0  0.87954  0.94185  0.94498  1.0000
  Fe  Fe150     1.0  0.65062  0.08354  0.91780  1.0000
  H   H2378     1.0  0.70934  0.12206  0.97409  1.0000
  Fe  Fe151     1.0  0.49160  0.96555  0.99712  1.0000
  C   C1351     1.0  0.88168  0.08675  0.92916  1.0000
  H   H2379     1.0  0.78494  0.02873  0.98258  1.0000
  Fe  Fe152     1.0  0.66333  0.12626  0.94229  1.0000
  H   H2380     1.0  0.74604  0.94889  0.64728  1.0000
  H   H2381     1.0  0.75331  0.15562  0.93291  1.0000
  C   C1352     1.0  0.72523  0.95428  0.80770  1.0000
  H   H2382     1.0  0.57826  0.02975  0.92561  1.0000
  H   H2383     1.0  0.67348  0.96697  0.97446  1.0000
  S   S308      1.0  0.84093  0.15091  0.98090  1.0000
  H   H2384     1.0  0.62728  0.99160  0.94166  1.0000
  S   S309      1.0  0.80459  0.94813  0.89999  1.0000
  H   H2385     1.0  0.73449  0.94484  0.81334  1.0000
  C   C1353     1.0  0.58434  0.94372  0.75832  1.0000
  H   H2386     1.0  0.70423  0.98751  0.91803  1.0000
  H   H2387     1.0  0.91017  0.13813  0.92985  1.0000
  Fe  Fe153     1.0  0.82598  0.93173  0.89693  1.0000
  H   H2388     1.0  0.91398  0.06130  0.91984  1.0000
  H   H2389     1.0  0.71585  0.06161  0.99575  1.0000
  H   H2390     1.0  0.84748  0.15931  0.53689  1.0000
  C   C1354     1.0  0.71614  0.04642  0.99050  1.0000
  H   H2391     1.0  0.43930  0.94496  0.89696  1.0000
  C   C1355     1.0  0.90613  0.13376  0.97239  1.0000
  H   H2392     1.0  0.80819  0.01126  0.99980  1.0000
  H   H2393     1.0  0.68720  0.94224  0.83699  1.0000
  H   H2394     1.0  0.93401  0.99650  0.96378  1.0000
  H   H2395     1.0  0.77710  0.07191  0.53600  1.0000
  H   H2396     1.0  0.51778  0.06113  0.54129  1.0000
  H   H2397     1.0  0.63886  0.10114  0.53499  1.0000
  H   H2398     1.0  0.58539  0.93523  0.60238  1.0000
  H   H2399     1.0  0.76781  0.92803  0.86390  1.0000
  H   H2400     1.0  0.61408  0.92731  0.73969  1.0000
  H   H2401     1.0  0.69318  0.92973  0.89091  1.0000
  H   H2402     1.0  0.93318  0.02716  0.61465  1.0000
  H   H2403     1.0  0.43730  0.99871  0.94841  1.0000
  H   H2404     1.0  0.74719  0.97688  0.02175  1.0000
  H   H2405     1.0  0.70820  0.95509  0.02241  1.0000
  H   H2406     1.0  0.51754  0.95002  0.07740  1.0000
  H   H2407     1.0  0.68905  0.01115  0.48390  1.0000
  H   H2408     1.0  0.89522  0.95334  0.33681  1.0000
  H   H2409     1.0  0.82644  0.04483  0.11122  1.0000
  C   C1356     1.0  0.63386  0.99081  0.22615  1.0000
  S   S310      1.0  0.86885  0.96271  0.22262  1.0000
  H   H2410     1.0  0.72501  0.13649  0.18150  1.0000
  H   H2411     1.0  0.58439  0.02582  0.37418  1.0000
  H   H2412     1.0  0.71525  0.06955  0.08589  1.0000
  C   C1357     1.0  0.56084  0.97405  0.35363  1.0000
  C   C1358     1.0  0.50031  0.99794  0.23669  1.0000
  H   H2413     1.0  0.62065  0.97022  0.31297  1.0000
  C   C1359     1.0  0.49476  0.96024  0.45589  1.0000
  H   H2414     1.0  0.57270  0.93305  0.18238  1.0000
  C   C1360     1.0  0.59286  0.94129  0.25171  1.0000
  H   H2415     1.0  0.66985  0.00103  0.21572  1.0000
  H   H2416     1.0  0.66174  0.13789  0.28048  1.0000
  C   C1361     1.0  0.63824  0.14736  0.37959  1.0000
  H   H2417     1.0  0.87330  0.03116  0.03893  1.0000
  C   C1362     1.0  0.69812  0.06437  0.48112  1.0000
  C   C1363     1.0  0.64714  0.05855  0.19977  1.0000
  H   H2418     1.0  0.90000  0.95671  0.15274  1.0000
  C   C1364     1.0  0.76496  0.93321  0.05031  1.0000
  H   H2419     1.0  0.49020  0.00748  0.42388  1.0000
  C   C1365     1.0  0.82728  0.93147  0.03682  1.0000
  H   H2420     1.0  0.86975  0.05995  0.27885  1.0000
  H   H2421     1.0  0.60212  0.01183  0.16857  1.0000
  H   H2422     1.0  0.59199  0.93802  0.39884  1.0000
  H   H2423     1.0  0.50161  0.03904  0.37577  1.0000
  C   C1366     1.0  0.62505  0.98772  0.09193  1.0000
  H   H2424     1.0  0.91107  0.00536  0.03174  1.0000
  H   H2425     1.0  0.51599  0.97008  0.26564  1.0000
  H   H2426     1.0  0.86070  0.93862  0.41453  1.0000
  C   C1367     1.0  0.68909  0.14334  0.17923  1.0000
  H   H2427     1.0  0.73357  0.09325  0.29995  1.0000
  H   H2428     1.0  0.86839  0.11776  0.19639  1.0000
  H   H2429     1.0  0.52388  0.02586  0.08064  1.0000
  H   H2430     1.0  0.54675  0.98075  0.04108  1.0000
  H   H2431     1.0  0.63617  0.15645  0.06952  1.0000
  H   H2432     1.0  0.59436  0.97841  0.34103  1.0000
  H   H2433     1.0  0.76993  0.05488  0.16635  1.0000
  C   C1368     1.0  0.66529  0.09127  0.35546  1.0000
  H   H2434     1.0  0.65015  0.10076  0.19305  1.0000
  H   H2435     1.0  0.52842  0.98048  0.12428  1.0000
  H   H2436     1.0  0.50024  0.96995  0.51565  1.0000
  H   H2437     1.0  0.60787  0.97691  0.09062  1.0000
  H   H2438     1.0  0.76453  0.93839  0.34562  1.0000
  Fe  Fe154     1.0  0.70167  0.00618  0.38220  1.0000
  H   H2439     1.0  0.78511  0.16238  0.49449  1.0000
  H   H2440     1.0  0.76190  0.02597  0.34932  1.0000
  H   H2441     1.0  0.46731  0.98940  0.38188  1.0000
  C   C1369     1.0  0.57735  0.95553  0.30758  1.0000
  H   H2442     1.0  0.70471  0.10031  0.27978  1.0000
  H   H2443     1.0  0.75217  0.12524  0.15675  1.0000
  H   H2444     1.0  0.81645  0.99020  0.32960  1.0000
  C   C1370     1.0  0.65163  0.94228  0.20003  1.0000
  C   C1371     1.0  0.83454  0.01395  0.07055  1.0000
  H   H2445     1.0  0.91123  0.10893  0.26311  1.0000
  H   H2446     1.0  0.89544  0.07737  0.32013  1.0000
  S   S311      1.0  0.66404  0.97784  0.45530  1.0000
  C   C1372     1.0  0.56424  0.99967  0.20584  1.0000
  H   H2447     1.0  0.45427  0.95009  0.19716  1.0000
  H   H2448     1.0  0.90820  0.95319  0.25182  1.0000
  S   S312      1.0  0.89104  0.06732  0.16190  1.0000
  H   H2449     1.0  0.45991  0.04988  0.46348  1.0000
  H   H2450     1.0  0.55521  0.00883  0.21411  1.0000
  C   C1373     1.0  0.45733  0.98410  0.15318  1.0000
  H   H2451     1.0  0.88993  0.11094  0.12471  1.0000
  H   H2452     1.0  0.61671  0.06021  0.37896  1.0000
  H   H2453     1.0  0.68432  0.08918  0.13816  1.0000
  C   C1374     1.0  0.50309  0.96851  0.40016  1.0000
  C   C1375     1.0  0.71739  0.03075  0.03983  1.0000
  C   C1376     1.0  0.58040  0.97271  0.48098  1.0000
  H   H2454     1.0  0.57908  0.98337  0.44735  1.0000
  H   H2455     1.0  0.88693  0.16976  0.47340  1.0000
  H   H2456     1.0  0.54223  0.96018  0.36149  1.0000
  H   H2457     1.0  0.92831  0.98302  0.05209  1.0000
  C   C1377     1.0  0.53814  0.95498  0.12199  1.0000
  C   C1378     1.0  0.50711  0.97655  0.47258  1.0000
  C   C1379     1.0  0.44856  0.02961  0.49727  1.0000
  C   C1380     1.0  0.75646  0.04798  0.20811  1.0000
  S   S313      1.0  0.70609  0.97690  0.37403  1.0000
  H   H2458     1.0  0.71284  0.01245  0.04364  1.0000
  H   H2459     1.0  0.72990  0.10269  0.41973  1.0000
  H   H2460     1.0  0.70394  0.14996  0.34057  1.0000
  H   H2461     1.0  0.74962  0.08926  0.36624  1.0000
  H   H2462     1.0  0.74383  0.94086  0.32265  1.0000
  C   C1381     1.0  0.71996  0.04930  0.42045  1.0000
  C   C1382     1.0  0.72355  0.08835  0.05244  1.0000
  H   H2463     1.0  0.91364  0.92680  0.49193  1.0000
  H   H2464     1.0  0.78497  0.00836  0.18250  1.0000
  H   H2465     1.0  0.68508  0.97994  0.16001  1.0000
  C   C1383     1.0  0.68509  0.14488  0.09829  1.0000
  H   H2466     1.0  0.67319  0.13509  0.35188  1.0000
  C   C1384     1.0  0.65947  0.00940  0.21615  1.0000
  H   H2467     1.0  0.45200  0.97893  0.12451  1.0000
  C   C1385     1.0  0.91471  0.96224  0.07123  1.0000
  Fe  Fe155     1.0  0.65035  0.97953  0.39487  1.0000
  C   C1386     1.0  0.55669  0.98851  0.17049  1.0000
  H   H2468     1.0  0.58369  0.97198  0.26847  1.0000
  H   H2469     1.0  0.69748  0.14407  0.28980  1.0000
  H   H2470     1.0  0.74828  0.02976  0.29132  1.0000
  H   H2471     1.0  0.67129  0.00305  0.06955  1.0000
  H   H2472     1.0  0.48154  0.98067  0.26870  1.0000
  C   C1387     1.0  0.67245  0.96128  0.19687  1.0000
  H   H2473     1.0  0.71253  0.94096  0.22015  1.0000
  C   C1388     1.0  0.86523  0.93974  0.44717  1.0000
  H   H2474     1.0  0.49354  0.95237  0.25102  1.0000
  H   H2475     1.0  0.45911  0.97315  0.50077  1.0000
  H   H2476     1.0  0.59785  0.03583  0.13659  1.0000
  C   C1389     1.0  0.70931  0.09341  0.03216  1.0000
  N   N73       1.0  0.59286  0.94599  0.29828  1.0000
  H   H2477     1.0  0.74007  0.99571  0.04307  1.0000
  H   H2478     1.0  0.74998  0.01232  0.44788  1.0000
  H   H2479     1.0  0.76250  0.94875  0.12678  1.0000
  C   C1390     1.0  0.52430  0.96244  0.15471  1.0000
  C   C1391     1.0  0.72111  0.12591  0.15981  1.0000
  H   H2480     1.0  0.83189  0.00796  0.11281  1.0000
  H   H2481     1.0  0.47502  0.02009  0.33585  1.0000
  H   H2482     1.0  0.66852  0.15899  0.16463  1.0000
  C   C1392     1.0  0.69788  0.03104  0.46962  1.0000
  H   H2483     1.0  0.46238  0.03116  0.40852  1.0000
  H   H2484     1.0  0.77662  0.93171  0.06825  1.0000
  H   H2485     1.0  0.78020  0.05816  0.33167  1.0000
  H   H2486     1.0  0.78700  0.07301  0.24105  1.0000
  H   H2487     1.0  0.92823  0.08501  0.33040  1.0000
  S   S314      1.0  0.83952  0.14581  0.09657  1.0000
  H   H2488     1.0  0.70647  0.10550  0.19036  1.0000
  H   H2489     1.0  0.81832  0.02762  0.32256  1.0000
  C   C1393     1.0  0.53566  0.02645  0.04719  1.0000
  H   H2490     1.0  0.77003  0.04532  0.42719  1.0000
  H   H2491     1.0  0.68951  0.07084  0.28047  1.0000
  S   S315      1.0  0.67797  0.06928  0.06113  1.0000
  C   C1394     1.0  0.69891  0.08046  0.29949  1.0000
  S   S316      1.0  0.64279  0.09909  0.03360  1.0000
  H   H2492     1.0  0.88312  0.96344  0.08680  1.0000
  C   C1395     1.0  0.64717  0.00061  0.03650  1.0000
  C   C1396     1.0  0.71473  0.97265  0.02391  1.0000
  H   H2493     1.0  0.66686  0.17225  0.41713  1.0000
  C   C1397     1.0  0.68505  0.11035  0.36314  1.0000
  H   H2494     1.0  0.73954  0.11369  0.11790  1.0000
  H   H2495     1.0  0.65221  0.02268  0.46672  1.0000
  H   H2496     1.0  0.71511  0.12931  0.09102  1.0000
  H   H2497     1.0  0.86516  0.05269  0.03247  1.0000
  H   H2498     1.0  0.62971  0.05275  0.45571  1.0000
  C   C1398     1.0  0.44678  0.96031  0.20687  1.0000
  Fe  Fe156     1.0  0.90453  0.00032  0.18349  1.0000
  H   H2499     1.0  0.64231  0.13599  0.40643  1.0000
  H   H2500     1.0  0.87766  0.93509  0.09156  1.0000
  C   C1399     1.0  0.59861  0.95282  0.51495  1.0000
  S   S317      1.0  0.82167  0.08490  0.08238  1.0000
  H   H2501     1.0  0.72828  0.15771  0.09278  1.0000
  S   S318      1.0  0.70392  0.14629  0.43838  1.0000
  S   S319      1.0  0.84037  0.96699  0.12717  1.0000
  C   C1400     1.0  0.61669  0.04362  0.38307  1.0000
  H   H2502     1.0  0.74466  0.94484  0.38010  1.0000
  C   C1401     1.0  0.79373  0.93352  0.15185  1.0000
  H   H2503     1.0  0.92579  0.09735  0.19727  1.0000
  H   H2504     1.0  0.50425  0.94808  0.17236  1.0000
  H   H2505     1.0  0.52984  0.93445  0.14713  1.0000
  C   C1402     1.0  0.74794  0.97988  0.13154  1.0000
  H   H2506     1.0  0.78615  0.98213  0.36186  1.0000
  H   H2507     1.0  0.86248  0.11825  0.09454  1.0000
  H   H2508     1.0  0.67135  0.09989  0.31080  1.0000
  C   C1403     1.0  0.86054  0.10067  0.10467  1.0000
  C   C1404     1.0  0.90837  0.03588  0.40088  1.0000
  S   S320      1.0  0.89675  0.02070  0.12289  1.0000
  C   C1405     1.0  0.84012  0.05922  0.11446  1.0000
  H   H2509     1.0  0.80060  0.02854  0.23793  1.0000
  H   H2510     1.0  0.62478  0.01223  0.46181  1.0000
  H   H2511     1.0  0.89356  0.01520  0.42363  1.0000
  S   S321      1.0  0.78984  0.14586  0.19240  1.0000
  H   H2512     1.0  0.63637  0.14157  0.34923  1.0000
  S   S322      1.0  0.61871  0.98140  0.40236  1.0000
  C   C1406     1.0  0.75305  0.95209  0.10351  1.0000
  S   S323      1.0  0.57314  0.05276  0.06588  1.0000
  H   H2513     1.0  0.92356  0.95520  0.05132  1.0000
  H   H2514     1.0  0.70623  0.16297  0.15716  1.0000
  C   C1407     1.0  0.78687  0.03326  0.38027  1.0000
  C   C1408     1.0  0.72219  0.08168  0.28642  1.0000
  H   H2515     1.0  0.62896  0.05482  0.21895  1.0000
  H   H2516     1.0  0.67879  0.10393  0.40727  1.0000
  N   N74       1.0  0.53032  0.96565  0.19835  1.0000
  H   H2517     1.0  0.81540  0.09601  0.27387  1.0000
  H   H2518     1.0  0.55782  0.96587  0.11034  1.0000
  H   H2519     1.0  0.77411  0.02242  0.46569  1.0000
  H   H2520     1.0  0.70413  0.02661  0.07858  1.0000
  C   C1409     1.0  0.56069  0.03899  0.03090  1.0000
  C   C1410     1.0  0.66719  0.14492  0.19948  1.0000
  C   C1411     1.0  0.66671  0.08669  0.15567  1.0000
  C   C1412     1.0  0.91987  0.08505  0.24092  1.0000
  C   C1413     1.0  0.86137  0.03614  0.02833  1.0000
  H   H2521     1.0  0.71754  0.06231  0.30668  1.0000
  C   C1414     1.0  0.80893  0.94287  0.17326  1.0000
  H   H2522     1.0  0.70715  0.93737  0.11080  1.0000
  H   H2523     1.0  0.82708  0.94828  0.02896  1.0000
  C   C1415     1.0  0.77412  0.00713  0.16068  1.0000
  H   H2524     1.0  0.88818  0.16491  0.02981  1.0000
  Fe  Fe157     1.0  0.82263  0.11962  0.06771  1.0000
  C   C1416     1.0  0.84858  0.93446  0.04677  1.0000
  H   H2525     1.0  0.82902  0.99742  0.06486  1.0000
  H   H2526     1.0  0.60533  0.02860  0.42728  1.0000
  C   C1417     1.0  0.75273  0.17173  0.24449  1.0000
  H   H2527     1.0  0.54595  0.95362  0.04721  1.0000
  H   H2528     1.0  0.64868  0.09051  0.37370  1.0000
  H   H2529     1.0  0.67055  0.02982  0.04863  1.0000
  H   H2530     1.0  0.47767  0.99630  0.13303  1.0000
  H   H2531     1.0  0.73330  0.09055  0.24163  1.0000
  H   H2532     1.0  0.43861  0.92789  0.29681  1.0000
  Fe  Fe158     1.0  0.73879  0.16970  0.43983  1.0000
  S   S324      1.0  0.78841  0.11794  0.09384  1.0000
  H   H2533     1.0  0.87630  0.92697  0.29816  1.0000
  H   H2534     1.0  0.56948  0.98384  0.15575  1.0000
  H   H2535     1.0  0.92407  0.00014  0.26042  1.0000
  H   H2536     1.0  0.51083  0.00468  0.25718  1.0000
  H   H2537     1.0  0.92465  0.03857  0.40477  1.0000
  C   C1418     1.0  0.71826  0.93382  0.19425  1.0000
  Fe  Fe159     1.0  0.68895  0.97876  0.31991  1.0000
  H   H2538     1.0  0.82236  0.01972  0.06599  1.0000
  S   S325      1.0  0.73675  0.13564  0.49027  1.0000
  Fe  Fe160     1.0  0.43916  0.94332  0.07273  1.0000
  S   S326      1.0  0.82854  0.94414  0.37103  1.0000
  H   H2539     1.0  0.73479  0.98380  0.14885  1.0000
  C   C1419     1.0  0.64563  0.05195  0.44151  1.0000
  H   H2540     1.0  0.62523  0.00208  0.10164  1.0000
  H   H2541     1.0  0.69208  0.12676  0.05164  1.0000
  H   H2542     1.0  0.75966  0.10334  0.04387  1.0000
  H   H2543     1.0  0.45394  0.96682  0.23198  1.0000
  C   C1420     1.0  0.59195  0.02000  0.17636  1.0000
  H   H2544     1.0  0.86683  0.08186  0.29518  1.0000
  H   H2545     1.0  0.64569  0.04688  0.18058  1.0000
  Fe  Fe161     1.0  0.85404  0.97308  0.28031  1.0000
  H   H2546     1.0  0.74861  0.06396  0.02934  1.0000
  C   C1421     1.0  0.79888  0.93244  0.23017  1.0000
  C   C1422     1.0  0.67150  0.01668  0.03589  1.0000
  C   C1423     1.0  0.48736  0.03503  0.47712  1.0000
  H   H2547     1.0  0.78625  0.02361  0.11778  1.0000
  C   C1424     1.0  0.79620  0.02652  0.27915  1.0000
  H   H2548     1.0  0.69414  0.16528  0.08536  1.0000
  C   C1425     1.0  0.74295  0.04523  0.03407  1.0000
  C   C1426     1.0  0.74420  0.12829  0.12965  1.0000
  C   C1427     1.0  0.69013  0.13639  0.33460  1.0000
  H   H2549     1.0  0.85610  0.11182  0.26545  1.0000
  H   H2550     1.0  0.75221  0.96652  0.20508  1.0000
  H   H2551     1.0  0.56123  0.00428  0.13258  1.0000
  H   H2552     1.0  0.89782  0.15136  0.10401  1.0000
  C   C1428     1.0  0.90826  0.94963  0.13147  1.0000
  C   C1429     1.0  0.76339  0.98211  0.16143  1.0000
  H   H2553     1.0  0.49859  0.01518  0.33008  1.0000
  H   H2554     1.0  0.89761  0.04271  0.33918  1.0000
  H   H2555     1.0  0.63642  0.98769  0.19107  1.0000
  H   H2556     1.0  0.53228  0.00966  0.16929  1.0000
  C   C1430     1.0  0.66699  0.15336  0.24121  1.0000
  H   H2557     1.0  0.69849  0.97056  0.05035  1.0000
  H   H2558     1.0  0.62430  0.00001  0.22615  1.0000
  C   C1431     1.0  0.73225  0.07509  0.40392  1.0000
  C   C1432     1.0  0.89526  0.93471  0.29128  1.0000
  H   H2559     1.0  0.45075  0.99526  0.16104  1.0000
  H   H2560     1.0  0.75315  0.06364  0.51745  1.0000
  C   C1433     1.0  0.53689  0.96008  0.06882  1.0000
  H   H2561     1.0  0.93131  0.96543  0.50366  1.0000
  H   H2562     1.0  0.76385  0.14848  0.27802  1.0000
  H   H2563     1.0  0.50387  0.98814  0.17430  1.0000
  N   N75       1.0  0.68895  0.13177  0.14356  1.0000
  C   C1434     1.0  0.81386  0.02144  0.29440  1.0000
  N   N76       1.0  0.79746  0.04922  0.27786  1.0000
  H   H2564     1.0  0.68943  0.13265  0.21620  1.0000
  Fe  Fe162     1.0  0.85958  0.98361  0.16814  1.0000
  H   H2565     1.0  0.64925  0.12641  0.21912  1.0000
  C   C1435     1.0  0.67657  0.95626  0.24186  1.0000
  H   H2566     1.0  0.87669  0.96733  0.47315  1.0000
  C   C1436     1.0  0.76416  0.15958  0.24162  1.0000
  H   H2567     1.0  0.78444  0.01510  0.38927  1.0000
  H   H2568     1.0  0.66849  0.09547  0.21885  1.0000
  H   H2569     1.0  0.88759  0.93572  0.48150  1.0000
  C   C1437     1.0  0.76913  0.02804  0.43350  1.0000
  C   C1438     1.0  0.74867  0.10752  0.02895  1.0000
  C   C1439     1.0  0.73228  0.97678  0.04721  1.0000
  C   C1440     1.0  0.51286  0.96911  0.23120  1.0000
  H   H2570     1.0  0.55183  0.02937  0.34724  1.0000
  H   H2571     1.0  0.59738  0.95808  0.21625  1.0000
  H   H2572     1.0  0.74430  0.17051  0.28266  1.0000
  C   C1441     1.0  0.89144  0.95618  0.06592  1.0000
  H   H2573     1.0  0.65817  0.01425  0.24873  1.0000
  H   H2574     1.0  0.49819  0.02751  0.46928  1.0000
  S   S327      1.0  0.54267  0.02256  0.45410  1.0000
  C   C1442     1.0  0.93456  0.07684  0.30852  1.0000
  H   H2575     1.0  0.73540  0.96091  0.49780  1.0000
  H   H2576     1.0  0.67667  0.04591  0.37765  1.0000
  H   H2577     1.0  0.62956  0.95685  0.27777  1.0000
  C   C1443     1.0  0.48118  0.01035  0.35947  1.0000
  H   H2578     1.0  0.85843  0.13601  0.21109  1.0000
  S   S328      1.0  0.47139  0.95199  0.08612  1.0000
  H   H2579     1.0  0.49903  0.01311  0.21265  1.0000
  C   C1444     1.0  0.66815  0.10371  0.18002  1.0000
  C   C1445     1.0  0.57588  0.96339  0.35106  1.0000
  C   C1446     1.0  0.46263  0.01597  0.43684  1.0000
  C   C1447     1.0  0.87603  0.09652  0.12178  1.0000
  H   H2580     1.0  0.73274  0.93172  0.06919  1.0000
  C   C1448     1.0  0.91481  0.04762  0.34051  1.0000
  C   C1449     1.0  0.77619  0.16195  0.19192  1.0000
  C   C1450     1.0  0.85448  0.11683  0.22759  1.0000
  H   H2581     1.0  0.89514  0.92864  0.15256  1.0000
  H   H2582     1.0  0.83076  0.06707  0.28356  1.0000
  H   H2583     1.0  0.65211  0.05263  0.23190  1.0000
  H   H2584     1.0  0.52696  0.05094  0.49608  1.0000
  C   C1451     1.0  0.65391  0.16870  0.03286  1.0000
  H   H2585     1.0  0.62526  0.97414  0.12459  1.0000
  H   H2586     1.0  0.75837  0.14742  0.09203  1.0000
  C   C1452     1.0  0.60405  0.03358  0.35270  1.0000
  H   H2587     1.0  0.60518  0.01814  0.35160  1.0000
  C   C1453     1.0  0.90213  0.08863  0.27564  1.0000
  H   H2588     1.0  0.88497  0.09233  0.22476  1.0000
  H   H2589     1.0  0.68116  0.14423  0.02835  1.0000
  H   H2590     1.0  0.83160  0.03213  0.25644  1.0000
  H   H2591     1.0  0.61267  0.04919  0.31011  1.0000
  S   S329      1.0  0.68768  0.01043  0.32197  1.0000
  H   H2592     1.0  0.64831  0.94629  0.16541  1.0000
  Fe  Fe163     1.0  0.88076  0.02790  0.18655  1.0000
  H   H2593     1.0  0.77881  0.98160  0.14096  1.0000
  C   C1454     1.0  0.85529  0.05493  0.13222  1.0000
  C   C1455     1.0  0.76286  0.03703  0.25083  1.0000
  H   H2594     1.0  0.57028  0.99222  0.31478  1.0000
  H   H2595     1.0  0.88907  0.98115  0.39932  1.0000
  H   H2596     1.0  0.81051  0.93952  0.24716  1.0000
  H   H2597     1.0  0.72881  0.92770  0.20913  1.0000
  H   H2598     1.0  0.90373  0.95409  0.40877  1.0000
  C   C1456     1.0  0.82864  0.09737  0.24015  1.0000
  C   C1457     1.0  0.48539  0.01879  0.39991  1.0000
  H   H2599     1.0  0.47873  0.94132  0.48633  1.0000
  H   H2600     1.0  0.55892  0.98465  0.24582  1.0000
  H   H2601     1.0  0.79408  0.16845  0.37085  1.0000
  C   C1458     1.0  0.52385  0.99349  0.36097  1.0000
  C   C1459     1.0  0.51337  0.99225  0.19830  1.0000
  H   H2602     1.0  0.77699  0.00898  0.30732  1.0000
  H   H2603     1.0  0.76094  0.99594  0.08825  1.0000
  H   H2604     1.0  0.76219  0.02081  0.24970  1.0000
  C   C1460     1.0  0.52776  0.94268  0.23671  1.0000
  H   H2605     1.0  0.79840  0.98586  0.29494  1.0000
  H   H2606     1.0  0.82721  0.10503  0.20272  1.0000
  H   H2607     1.0  0.56649  0.94663  0.39252  1.0000
  H   H2608     1.0  0.84270  0.92876  0.09058  1.0000
  H   H2609     1.0  0.50673  0.00586  0.03148  1.0000
  C   C1461     1.0  0.82366  0.07110  0.25516  1.0000
  H   H2610     1.0  0.77426  0.05565  0.49857  1.0000
  C   C1462     1.0  0.52769  0.00150  0.43370  1.0000
  Fe  Fe164     1.0  0.70040  0.11236  0.49561  1.0000
  Fe  Fe165     1.0  0.66739  0.94878  0.44397  1.0000
  C   C1463     1.0  0.87955  0.08012  0.26800  1.0000
  C   C1464     1.0  0.78840  0.05769  0.23965  1.0000
  C   C1465     1.0  0.90413  0.17083  0.08149  1.0000
  H   H2611     1.0  0.70273  0.11298  0.34523  1.0000
  C   C1466     1.0  0.89784  0.93846  0.33802  1.0000
  C   C1467     1.0  0.72118  0.08270  0.43415  1.0000
  C   C1468     1.0  0.87309  0.07342  0.13648  1.0000
  H   H2612     1.0  0.85737  0.96712  0.44277  1.0000
  N   N77       1.0  0.46168  0.01775  0.48722  1.0000
  S   S330      1.0  0.65058  0.94812  0.38929  1.0000
  S   S331      1.0  0.48803  0.94814  0.37834  1.0000
  H   H2613     1.0  0.75616  0.06389  0.20874  1.0000
  H   H2614     1.0  0.90900  0.06528  0.24912  1.0000
  C   C1469     1.0  0.71853  0.95563  0.10819  1.0000
  N   N78       1.0  0.65895  0.06482  0.37985  1.0000
  H   H2615     1.0  0.76796  0.97025  0.06417  1.0000
  S   S332      1.0  0.70158  0.98039  0.23959  1.0000
  N   N79       1.0  0.73427  0.95483  0.13414  1.0000
  H   H2616     1.0  0.66986  0.02720  0.17575  1.0000
  H   H2617     1.0  0.70514  0.95787  0.13167  1.0000
  C   C1470     1.0  0.51649  0.05851  0.50674  1.0000
  C   C1471     1.0  0.78096  0.04209  0.33400  1.0000
  H   H2618     1.0  0.69249  0.07320  0.38160  1.0000
  H   H2619     1.0  0.54137  0.94043  0.21409  1.0000
  H   H2620     1.0  0.73800  0.03297  0.21747  1.0000
  H   H2621     1.0  0.60748  0.93886  0.23624  1.0000
  H   H2622     1.0  0.80570  0.04785  0.36981  1.0000
  H   H2623     1.0  0.49743  0.05383  0.43905  1.0000
  H   H2624     1.0  0.83563  0.07353  0.21737  1.0000
  H   H2625     1.0  0.92161  0.03849  0.32317  1.0000
  H   H2626     1.0  0.92132  0.93232  0.40052  1.0000
  C   C1472     1.0  0.64305  0.05065  0.35997  1.0000
  C   C1473     1.0  0.69914  0.94032  0.50711  1.0000
  H   H2627     1.0  0.66526  0.13684  0.11420  1.0000
  H   H2628     1.0  0.55865  0.97787  0.38776  1.0000
  S   S333      1.0  0.84277  0.99216  0.22732  1.0000
  H   H2629     1.0  0.44584  0.99772  0.44888  1.0000
  H   H2630     1.0  0.64143  0.03280  0.36914  1.0000
  H   H2631     1.0  0.92509  0.95436  0.13459  1.0000
  C   C1474     1.0  0.88598  0.93644  0.44454  1.0000
  H   H2632     1.0  0.65196  0.06193  0.31446  1.0000
  H   H2633     1.0  0.90169  0.04460  0.42008  1.0000
  C   C1475     1.0  0.80301  0.99316  0.32177  1.0000
  C   C1476     1.0  0.59737  0.96709  0.47094  1.0000
  H   H2634     1.0  0.59670  0.02790  0.20222  1.0000
  C   C1477     1.0  0.66032  0.93207  0.28920  1.0000
  C   C1478     1.0  0.74364  0.93079  0.08990  1.0000
  C   C1479     1.0  0.53598  0.01002  0.37769  1.0000
  H   H2635     1.0  0.93549  0.98483  0.43831  1.0000
  H   H2636     1.0  0.53050  0.00012  0.31770  1.0000
  H   H2637     1.0  0.74280  0.03404  0.07133  1.0000
  H   H2638     1.0  0.68524  0.17081  0.22575  1.0000
  H   H2639     1.0  0.80187  0.06605  0.19654  1.0000
  H   H2640     1.0  0.65776  0.06235  0.45526  1.0000
  H   H2641     1.0  0.85318  0.03727  0.14266  1.0000
  C   C1480     1.0  0.84246  0.08190  0.10125  1.0000
  H   H2642     1.0  0.62036  0.14291  0.40545  1.0000
  H   H2643     1.0  0.75916  0.00812  0.18181  1.0000
  H   H2644     1.0  0.52508  0.07737  0.47070  1.0000
  C   C1481     1.0  0.68170  0.06552  0.36234  1.0000
  C   C1482     1.0  0.68698  0.03854  0.50003  1.0000
  Fe  Fe166     1.0  0.80725  0.14734  0.11444  1.0000
  S   S334      1.0  0.89076  0.00972  0.24495  1.0000
  H   H2645     1.0  0.66387  0.92789  0.32336  1.0000
  H   H2646     1.0  0.66121  0.09085  0.12382  1.0000
  H   H2647     1.0  0.80121  0.94208  0.10802  1.0000
  C   C1483     1.0  0.69369  0.14426  0.04472  1.0000
  S   S335      1.0  0.73129  0.04004  0.37802  1.0000
  H   H2648     1.0  0.53213  0.94536  0.26872  1.0000
  C   C1484     1.0  0.71368  0.13678  0.11885  1.0000
  C   C1485     1.0  0.61925  0.96531  0.28123  1.0000
  C   C1486     1.0  0.63658  0.02400  0.47401  1.0000
  H   H2649     1.0  0.55805  0.94071  0.32088  1.0000
  C   C1487     1.0  0.74601  0.93424  0.35944  1.0000
  H   H2650     1.0  0.70225  0.95690  0.47667  1.0000
  C   C1488     1.0  0.87268  0.96549  0.44017  1.0000
  H   H2651     1.0  0.91691  0.94578  0.32929  1.0000
  H   H2652     1.0  0.65331  0.15763  0.24884  1.0000
  S   S336      1.0  0.68092  0.07228  0.51474  1.0000
  H   H2653     1.0  0.86799  0.97326  0.02511  1.0000
  H   H2654     1.0  0.64616  0.98520  0.03052  1.0000
  C   C1489     1.0  0.88517  0.17309  0.50820  1.0000
  H   H2655     1.0  0.60918  0.92706  0.37613  1.0000
  Fe  Fe167     1.0  0.68520  0.14570  0.51350  1.0000
  S   S337      1.0  0.72003  0.17106  0.51179  1.0000
  H   H2656     1.0  0.61128  0.94787  0.50752  1.0000
  H   H2657     1.0  0.84831  0.92481  0.48756  1.0000
  C   C1490     1.0  0.71776  0.94263  0.51958  1.0000
  H   H2658     1.0  0.91709  0.21553  0.60181  1.0000
  H   H2659     1.0  0.73679  0.25614  0.61809  1.0000
  H   H2660     1.0  0.86183  0.23944  0.67936  1.0000
  H   H2661     1.0  0.90256  0.24207  0.70466  1.0000
  C   C1491     1.0  0.80192  0.38569  0.00667  1.0000
  H   H2662     1.0  0.91228  0.18072  0.87857  1.0000
  C   C1492     1.0  0.86758  0.38475  0.95521  1.0000
  H   H2663     1.0  0.89223  0.26764  0.65011  1.0000
  C   C1493     1.0  0.90183  0.25566  0.79655  1.0000
  C   C1494     1.0  0.86504  0.17693  0.52403  1.0000
  C   C1495     1.0  0.72719  0.41310  0.72225  1.0000
  S   S338      1.0  0.89348  0.36740  0.87732  1.0000
  C   C1496     1.0  0.73744  0.40023  0.71497  1.0000
  Fe  Fe168     1.0  0.79574  0.24196  0.57811  1.0000
  H   H2664     1.0  0.87093  0.35762  0.81265  1.0000
  H   H2665     1.0  0.79759  0.35318  0.89558  1.0000
  H   H2666     1.0  0.80040  0.23024  0.96938  1.0000
  H   H2667     1.0  0.87267  0.31078  0.67107  1.0000
  H   H2668     1.0  0.67697  0.25097  0.82771  1.0000
  H   H2669     1.0  0.76013  0.31622  0.78137  1.0000
  S   S339      1.0  0.85715  0.40564  0.73880  1.0000
  H   H2670     1.0  0.89979  0.17945  0.73257  1.0000
  H   H2671     1.0  0.72316  0.18540  0.99521  1.0000
  H   H2672     1.0  0.91679  0.26849  0.94614  1.0000
  H   H2673     1.0  0.78230  0.23724  0.74952  1.0000
  H   H2674     1.0  0.85400  0.31950  0.98061  1.0000
  H   H2675     1.0  0.86340  0.21645  0.61699  1.0000
  H   H2676     1.0  0.77330  0.19805  0.00585  1.0000
  C   C1497     1.0  0.82724  0.27348  0.76717  1.0000
  H   H2677     1.0  0.93155  0.34353  0.80527  1.0000
  C   C1498     1.0  0.77922  0.24745  0.76947  1.0000
  C   C1499     1.0  0.76128  0.40995  0.70663  1.0000
  Fe  Fe169     1.0  0.76200  0.25529  0.00914  1.0000
  H   H2678     1.0  0.80622  0.19713  0.53850  1.0000
  C   C1500     1.0  0.73993  0.37560  0.93877  1.0000
  H   H2679     1.0  0.71158  0.22178  0.97672  1.0000
  H   H2680     1.0  0.69091  0.17471  0.67119  1.0000
  H   H2681     1.0  0.84054  0.21936  0.54029  1.0000
  H   H2682     1.0  0.75797  0.36047  0.90642  1.0000
  C   C1501     1.0  0.79388  0.33268  0.64876  1.0000
  H   H2683     1.0  0.79639  0.19505  0.86515  1.0000
  C   C1502     1.0  0.69942  0.39561  0.87873  1.0000
  H   H2684     1.0  0.80219  0.20608  0.96093  1.0000
  C   C1503     1.0  0.74788  0.35789  0.94649  1.0000
  H   H2685     1.0  0.93351  0.17870  0.96620  1.0000
  H   H2686     1.0  0.85327  0.19577  0.73352  1.0000
  C   C1504     1.0  0.74933  0.29054  0.86478  1.0000
  H   H2687     1.0  0.88827  0.25139  0.89349  1.0000
  C   C1505     1.0  0.90528  0.38201  0.57223  1.0000
  Fe  Fe170     1.0  0.90912  0.36108  0.93323  1.0000
  H   H2688     1.0  0.86614  0.36742  0.97875  1.0000
  C   C1506     1.0  0.81119  0.22970  0.79089  1.0000
  H   H2689     1.0  0.89501  0.23270  0.65842  1.0000
  H   H2690     1.0  0.87153  0.25035  0.72260  1.0000
  C   C1507     1.0  0.87749  0.24833  0.68679  1.0000
  H   H2691     1.0  0.71549  0.33006  0.89281  1.0000
  H   H2692     1.0  0.92495  0.32683  0.76939  1.0000
  H   H2693     1.0  0.75165  0.24584  0.74693  1.0000
  H   H2694     1.0  0.73975  0.21846  0.81107  1.0000
  C   C1508     1.0  0.73281  0.41549  0.90317  1.0000
  H   H2695     1.0  0.75998  0.36189  0.96520  1.0000
  H   H2696     1.0  0.89406  0.40474  0.97795  1.0000
  C   C1509     1.0  0.89379  0.19157  0.71759  1.0000
  H   H2697     1.0  0.88254  0.24415  0.80524  1.0000
  N   N80       1.0  0.72099  0.28721  0.82174  1.0000
  H   H2698     1.0  0.90431  0.28978  0.77639  1.0000
  C   C1510     1.0  0.84577  0.38430  0.98689  1.0000
  C   C1511     1.0  0.72602  0.29114  0.68311  1.0000
  C   C1512     1.0  0.75313  0.23951  0.78482  1.0000
  C   C1513     1.0  0.72699  0.41136  0.85858  1.0000
  H   H2699     1.0  0.86827  0.38635  0.91605  1.0000
  H   H2700     1.0  0.86077  0.40993  0.83099  1.0000
  H   H2701     1.0  0.85451  0.28538  0.79544  1.0000
  H   H2702     1.0  0.77045  0.40566  0.85863  1.0000
  C   C1514     1.0  0.89441  0.30801  0.85246  1.0000
  H   H2703     1.0  0.85924  0.27209  0.75424  1.0000
  H   H2704     1.0  0.81187  0.23462  0.75039  1.0000
  H   H2705     1.0  0.84799  0.40079  0.95609  1.0000
  C   C1515     1.0  0.73619  0.24265  0.65282  1.0000
  C   C1516     1.0  0.79071  0.33463  0.92999  1.0000
  C   C1517     1.0  0.85897  0.34104  0.85379  1.0000
  H   H2706     1.0  0.88984  0.31563  0.87842  1.0000
  H   H2707     1.0  0.64492  0.20816  0.53657  1.0000
  H   H2708     1.0  0.72686  0.38270  0.71582  1.0000
  Fe  Fe171     1.0  0.84407  0.28461  0.55779  1.0000
  H   H2709     1.0  0.87159  0.26063  0.86868  1.0000
  H   H2710     1.0  0.82959  0.35222  0.94683  1.0000
  H   H2711     1.0  0.91819  0.36966  0.62697  1.0000
  H   H2712     1.0  0.90508  0.24332  0.82361  1.0000
  H   H2713     1.0  0.72032  0.40483  0.61868  1.0000
  S   S340      1.0  0.77332  0.39351  0.69456  1.0000
  H   H2714     1.0  0.74055  0.20268  0.68777  1.0000
  H   H2715     1.0  0.87641  0.19937  0.82668  1.0000
  H   H2716     1.0  0.44770  0.38932  0.78696  1.0000
  H   H2717     1.0  0.84921  0.27492  0.93489  1.0000
  H   H2718     1.0  0.78417  0.31795  0.01293  1.0000
  C   C1518     1.0  0.90623  0.20355  0.01117  1.0000
  H   H2719     1.0  0.92641  0.26839  0.88344  1.0000
  C   C1519     1.0  0.90501  0.19439  0.62484  1.0000
  H   H2720     1.0  0.82862  0.27684  0.72646  1.0000
  H   H2721     1.0  0.89604  0.37503  0.65524  1.0000
  C   C1520     1.0  0.79547  0.18610  0.80300  1.0000
  H   H2722     1.0  0.87867  0.29979  0.84470  1.0000
  H   H2723     1.0  0.87675  0.38728  0.59443  1.0000
  H   H2724     1.0  0.66937  0.20963  0.88340  1.0000
  H   H2725     1.0  0.77154  0.32035  0.94149  1.0000
  H   H2726     1.0  0.78892  0.18848  0.77266  1.0000
  H   H2727     1.0  0.80218  0.32851  0.91608  1.0000
  H   H2728     1.0  0.81483  0.19283  0.78258  1.0000
  H   H2729     1.0  0.74446  0.35426  0.60938  1.0000
  H   H2730     1.0  0.70743  0.28600  0.69156  1.0000
  H   H2731     1.0  0.70692  0.22833  0.52770  1.0000
  H   H2732     1.0  0.73045  0.28207  0.66134  1.0000
  H   H2733     1.0  0.75527  0.24913  0.64236  1.0000
  H   H2734     1.0  0.79192  0.26821  0.73903  1.0000
  H   H2735     1.0  0.86277  0.36657  0.54492  1.0000
  H   H2736     1.0  0.82407  0.37548  0.92990  1.0000
  C   C1521     1.0  0.89500  0.18139  0.82738  1.0000
  S   S341      1.0  0.87305  0.29220  0.58311  1.0000
  C   C1522     1.0  0.88735  0.23247  0.69682  1.0000
  H   H2737     1.0  0.82945  0.23390  0.78271  1.0000
  H   H2738     1.0  0.73394  0.33803  0.77685  1.0000
  H   H2739     1.0  0.89334  0.19155  0.89023  1.0000
  C   C1523     1.0  0.90667  0.19221  0.85823  1.0000
  H   H2740     1.0  0.90540  0.21732  0.76768  1.0000
  S   S342      1.0  0.88932  0.32861  0.01943  1.0000
  H   H2741     1.0  0.92620  0.31188  0.89315  1.0000
  H   H2742     1.0  0.72944  0.37178  0.97981  1.0000
  C   C1524     1.0  0.80425  0.34057  0.67960  1.0000
  C   C1525     1.0  0.89554  0.39828  0.55916  1.0000
  H   H2743     1.0  0.69617  0.39397  0.84486  1.0000
  C   C1526     1.0  0.91714  0.33193  0.79718  1.0000
  H   H2744     1.0  0.70762  0.29053  0.89216  1.0000
  H   H2745     1.0  0.75222  0.28598  0.79539  1.0000
  H   H2746     1.0  0.66784  0.25295  0.88810  1.0000
  H   H2747     1.0  0.70864  0.40532  0.72921  1.0000
  C   C1527     1.0  0.90731  0.27788  0.80523  1.0000
  C   C1528     1.0  0.79130  0.33681  0.97952  1.0000
  H   H2748     1.0  0.71857  0.39776  0.94357  1.0000
  C   C1529     1.0  0.78373  0.18827  0.64254  1.0000
  H   H2749     1.0  0.92312  0.21224  0.82972  1.0000
  C   C1530     1.0  0.72998  0.32848  0.81994  1.0000
  H   H2750     1.0  0.73852  0.26980  0.89409  1.0000
  C   C1531     1.0  0.91109  0.34904  0.76658  1.0000
  C   C1532     1.0  0.92868  0.28078  0.90098  1.0000
  C   C1533     1.0  0.86529  0.34087  0.89505  1.0000
  H   H2751     1.0  0.72727  0.37026  0.92182  1.0000
  H   H2752     1.0  0.71793  0.21171  0.90320  1.0000
  C   C1534     1.0  0.86703  0.20479  0.74561  1.0000
  H   H2753     1.0  0.71316  0.26118  0.76204  1.0000
  H   H2754     1.0  0.81884  0.40413  0.99284  1.0000
  C   C1535     1.0  0.87250  0.23454  0.57830  1.0000
  H   H2755     1.0  0.88757  0.22305  0.52895  1.0000
  C   C1536     1.0  0.82882  0.32531  0.66124  1.0000
  C   C1537     1.0  0.90011  0.32316  0.53737  1.0000
  N   N81       1.0  0.89702  0.28755  0.88269  1.0000
  C   C1538     1.0  0.87244  0.31091  0.70879  1.0000
  Fe  Fe172     1.0  0.92081  0.32634  0.99187  1.0000
  H   H2756     1.0  0.84091  0.19348  0.57479  1.0000
  S   S343      1.0  0.73292  0.26128  0.01001  1.0000
  S   S344      1.0  0.89525  0.21133  0.96638  1.0000
  H   H2757     1.0  0.66005  0.21160  0.94426  1.0000
  C   C1539     1.0  0.81236  0.19414  0.67712  1.0000
  H   H2758     1.0  0.78050  0.33567  0.64381  1.0000
  H   H2759     1.0  0.92598  0.24056  0.00164  1.0000
  H   H2760     1.0  0.86815  0.32413  0.71317  1.0000
  H   H2761     1.0  0.70495  0.29352  0.76982  1.0000
  H   H2762     1.0  0.72026  0.21274  0.55151  1.0000
  H   H2763     1.0  0.86119  0.40193  0.53778  1.0000
  C   C1540     1.0  0.76467  0.36790  0.59024  1.0000
  H   H2764     1.0  0.90719  0.41070  0.90887  1.0000
  H   H2765     1.0  0.82529  0.31013  0.60876  1.0000
  S   S345      1.0  0.81804  0.40960  0.85624  1.0000
  C   C1541     1.0  0.83745  0.31965  0.86514  1.0000
  H   H2766     1.0  0.69155  0.40503  0.89141  1.0000
  H   H2767     1.0  0.64253  0.20900  0.90873  1.0000
  H   H2768     1.0  0.86359  0.17923  0.55997  1.0000
  H   H2769     1.0  0.70143  0.25303  0.90105  1.0000
  C   C1542     1.0  0.71914  0.33852  0.84966  1.0000
  H   H2770     1.0  0.84449  0.24487  0.95352  1.0000
  C   C1543     1.0  0.79073  0.21311  0.96655  1.0000
  H   H2771     1.0  0.92743  0.40171  0.60341  1.0000
  H   H2772     1.0  0.85703  0.20587  0.77989  1.0000
  H   H2773     1.0  0.77345  0.19421  0.84633  1.0000
  C   C1544     1.0  0.80179  0.20356  0.65172  1.0000
  H   H2774     1.0  0.91087  0.21139  0.69210  1.0000
  C   C1545     1.0  0.72091  0.21585  0.66283  1.0000
  H   H2775     1.0  0.74539  0.28633  0.72623  1.0000
  H   H2776     1.0  0.74179  0.18277  0.76201  1.0000
  S   S346      1.0  0.78712  0.30951  0.58853  1.0000
  C   C1546     1.0  0.87634  0.23041  0.52989  1.0000
  H   H2777     1.0  0.81495  0.28228  0.00165  1.0000
  C   C1547     1.0  0.83639  0.25130  0.01992  1.0000
  H   H2778     1.0  0.90660  0.41541  0.56093  1.0000
  H   H2779     1.0  0.92693  0.28900  0.79412  1.0000
  H   H2780     1.0  0.72037  0.20141  0.74125  1.0000
  C   C1548     1.0  0.72698  0.28211  0.73664  1.0000
  H   H2781     1.0  0.82335  0.23743  0.86153  1.0000
  C   C1549     1.0  0.78522  0.21922  0.91901  1.0000
  S   S347      1.0  0.93067  0.39077  0.95081  1.0000
  H   H2782     1.0  0.77794  0.29938  0.88701  1.0000
  C   C1550     1.0  0.77610  0.30200  0.84976  1.0000
  H   H2783     1.0  0.74146  0.39177  0.58205  1.0000
  H   H2784     1.0  0.72801  0.24298  0.69008  1.0000
  H   H2785     1.0  0.89052  0.24879  0.57223  1.0000
  C   C1551     1.0  0.89185  0.40779  0.94089  1.0000
  H   H2786     1.0  0.79879  0.34959  0.69845  1.0000
  H   H2787     1.0  0.88018  0.25825  0.96774  1.0000
  C   C1552     1.0  0.85146  0.21172  0.53501  1.0000
  C   C1553     1.0  0.77380  0.39398  0.54593  1.0000
  Fe  Fe173     1.0  0.80401  0.29156  0.56144  1.0000
  H   H2788     1.0  0.90846  0.18113  0.79824  1.0000
  C   C1554     1.0  0.76249  0.40386  0.89917  1.0000
  H   H2789     1.0  0.74752  0.33431  0.82003  1.0000
  C   C1555     1.0  0.85191  0.26132  0.95950  1.0000
  H   H2790     1.0  0.89087  0.36192  0.58698  1.0000
  H   H2791     1.0  0.80742  0.22255  0.63996  1.0000
  H   H2792     1.0  0.91429  0.26319  0.75324  1.0000
  C   C1556     1.0  0.69643  0.20564  0.98040  1.0000
  C   C1557     1.0  0.87942  0.27383  0.94329  1.0000
  H   H2793     1.0  0.70213  0.21030  0.67326  1.0000
  H   H2794     1.0  0.88493  0.28717  0.95873  1.0000
  S   S348      1.0  0.77069  0.20070  0.61144  1.0000
  H   H2795     1.0  0.89728  0.18794  0.60000  1.0000
  H   H2796     1.0  0.81570  0.25823  0.86635  1.0000
  H   H2797     1.0  0.71097  0.24924  0.84500  1.0000
  C   C1558     1.0  0.91212  0.38215  0.61729  1.0000
  Fe  Fe174     1.0  0.83089  0.37619  0.72795  1.0000
  C   C1559     1.0  0.78292  0.24127  0.82067  1.0000
  H   H2798     1.0  0.68999  0.37618  0.91379  1.0000
  H   H2799     1.0  0.86118  0.24183  0.58177  1.0000
  S   S349      1.0  0.83766  0.40426  0.64958  1.0000
  H   H2800     1.0  0.73700  0.31633  0.73767  1.0000
  H   H2801     1.0  0.77479  0.20138  0.91950  1.0000
  Fe  Fe175     1.0  0.80694  0.40290  0.70280  1.0000
  H   H2802     1.0  0.78794  0.32270  0.81964  1.0000
  H   H2803     1.0  0.73448  0.40190  0.84470  1.0000
  C   C1560     1.0  0.69997  0.20005  0.93871  1.0000
  H   H2804     1.0  0.78047  0.25294  0.83716  1.0000
  S   S350      1.0  0.79473  0.27218  0.93073  1.0000
  H   H2805     1.0  0.82598  0.20592  0.68508  1.0000
  H   H2806     1.0  0.73245  0.35953  0.82846  1.0000
  H   H2807     1.0  0.74684  0.39731  0.00725  1.0000
  H   H2808     1.0  0.72599  0.40589  0.00509  1.0000
  H   H2809     1.0  0.76122  0.40195  0.60879  1.0000
  H   H2810     1.0  0.70185  0.33411  0.84920  1.0000
  H   H2811     1.0  0.73972  0.31204  0.65547  1.0000
  C   C1561     1.0  0.82719  0.29867  0.96044  1.0000
  C   C1562     1.0  0.85353  0.28413  0.75947  1.0000
  C   C1563     1.0  0.82143  0.29852  0.91851  1.0000
  S   S351      1.0  0.79852  0.37279  0.78067  1.0000
  H   H2812     1.0  0.74343  0.29905  0.88604  1.0000
  H   H2813     1.0  0.89104  0.31804  0.70391  1.0000
  H   H2814     1.0  0.77665  0.40684  0.91222  1.0000
  H   H2815     1.0  0.77872  0.34180  0.99291  1.0000
  H   H2816     1.0  0.78272  0.40272  0.01539  1.0000
  N   N82       1.0  0.80727  0.24579  0.81121  1.0000
  H   H2817     1.0  0.83294  0.31975  0.83271  1.0000
  C   C1564     1.0  0.82141  0.33646  0.68656  1.0000
  H   H2818     1.0  0.80082  0.38552  0.97017  1.0000
  C   C1565     1.0  0.88806  0.19777  0.79626  1.0000
  C   C1566     1.0  0.91792  0.33306  0.55276  1.0000
  S   S352      1.0  0.83425  0.34570  0.72554  1.0000
  H   H2819     1.0  0.84266  0.32288  0.66506  1.0000
  H   H2820     1.0  0.76957  0.36938  0.62246  1.0000
  C   C1567     1.0  0.72155  0.19700  0.70789  1.0000
  S   S353      1.0  0.80495  0.26272  0.62231  1.0000
  C   C1568     1.0  0.66138  0.21739  0.90310  1.0000
  C   C1569     1.0  0.71218  0.29912  0.84825  1.0000
  C   C1570     1.0  0.80086  0.32092  0.62451  1.0000
  C   C1571     1.0  0.92263  0.29938  0.87554  1.0000
  C   C1572     1.0  0.74527  0.41331  0.99450  1.0000
  C   C1573     1.0  0.79272  0.20061  0.83055  1.0000
  H   H2821     1.0  0.91534  0.32133  0.59197  1.0000
  H   H2822     1.0  0.78266  0.29272  0.83242  1.0000
  C   C1574     1.0  0.67702  0.24635  0.86732  1.0000
  N   N83       1.0  0.82065  0.36049  0.01094  1.0000
  H   H2823     1.0  0.69465  0.29484  0.84929  1.0000
  S   S354      1.0  0.91537  0.28922  0.01809  1.0000
  H   H2824     1.0  0.79398  0.40663  0.52806  1.0000
  C   C1575     1.0  0.74633  0.29561  0.81287  1.0000
  H   H2825     1.0  0.66677  0.20085  0.52885  1.0000
  N   N84       1.0  0.87567  0.18876  0.76521  1.0000
  H   H2826     1.0  0.92164  0.38903  0.53532  1.0000
  C   C1576     1.0  0.88412  0.18394  0.68001  1.0000
  C   C1577     1.0  0.84937  0.31964  0.94847  1.0000
  H   H2827     1.0  0.92693  0.36421  0.72471  1.0000
  C   C1578     1.0  0.81761  0.35724  0.96459  1.0000
  C   C1579     1.0  0.89010  0.26829  0.86499  1.0000
  H   H2828     1.0  0.89478  0.33806  0.76275  1.0000
  H   H2829     1.0  0.90759  0.35844  0.78843  1.0000
  H   H2830     1.0  0.74848  0.24832  0.80702  1.0000
  C   C1580     1.0  0.72210  0.29562  0.76644  1.0000
  C   C1581     1.0  0.80917  0.24095  0.86321  1.0000
  C   C1582     1.0  0.81881  0.31789  0.62968  1.0000
  Fe  Fe176     1.0  0.82564  0.40540  0.78313  1.0000
  H   H2831     1.0  0.91603  0.18724  0.63112  1.0000
  H   H2832     1.0  0.77351  0.36049  0.57149  1.0000
  C   C1583     1.0  0.70345  0.25866  0.85920  1.0000
  C   C1584     1.0  0.76115  0.40459  0.56967  1.0000
  S   S355      1.0  0.79112  0.26853  0.52354  1.0000
  H   H2833     1.0  0.82256  0.28591  0.77566  1.0000
  H   H2834     1.0  0.76726  0.22132  0.85279  1.0000
  H   H2835     1.0  0.67511  0.18844  0.76112  1.0000
  H   H2836     1.0  0.72889  0.21669  0.62368  1.0000
  H   H2837     1.0  0.77287  0.22506  0.92774  1.0000
  H   H2838     1.0  0.87327  0.19090  0.67123  1.0000
  C   C1585     1.0  0.68074  0.17822  0.94523  1.0000
  Fe  Fe177     1.0  0.85605  0.17722  0.01081  1.0000
  H   H2839     1.0  0.73154  0.33775  0.97430  1.0000
  H   H2840     1.0  0.72552  0.42164  0.55046  1.0000
  C   C1586     1.0  0.92048  0.22128  0.02266  1.0000
  H   H2841     1.0  0.84812  0.38863  0.01903  1.0000
  H   H2842     1.0  0.84740  0.40506  0.32487  1.0000
  H   H2843     1.0  0.70472  0.18774  0.34848  1.0000
  H   H2844     1.0  0.81888  0.17585  0.38624  1.0000
  H   H2845     1.0  0.72642  0.27448  0.48517  1.0000
  H   H2846     1.0  0.69402  0.38253  0.38011  1.0000
  C   C1587     1.0  0.74348  0.32206  0.18592  1.0000
  H   H2847     1.0  0.90870  0.29058  0.12368  1.0000
  C   C1588     1.0  0.78996  0.22699  0.42203  1.0000
  C   C1589     1.0  0.79822  0.29703  0.27848  1.0000
  H   H2848     1.0  0.70826  0.35357  0.26604  1.0000
  H   H2849     1.0  0.70309  0.20256  0.51807  1.0000
  C   C1590     1.0  0.77700  0.17688  0.14475  1.0000
  C   C1591     1.0  0.82810  0.18554  0.50356  1.0000
  S   S356      1.0  0.76239  0.41104  0.14897  1.0000
  H   H2850     1.0  0.77485  0.20910  0.45928  1.0000
  C   C1592     1.0  0.89860  0.17850  0.03969  1.0000
  C   C1593     1.0  0.74168  0.28450  0.16546  1.0000
  C   C1594     1.0  0.75753  0.26354  0.45777  1.0000
  C   C1595     1.0  0.66204  0.18360  0.39266  1.0000
  H   H2851     1.0  0.68390  0.40355  0.32414  1.0000
  H   H2852     1.0  0.82828  0.31778  0.16043  1.0000
  H   H2853     1.0  0.76749  0.42054  0.40014  1.0000
  C   C1596     1.0  0.69394  0.37108  0.29950  1.0000
  H   H2854     1.0  0.90971  0.36561  0.20567  1.0000
  C   C1597     1.0  0.88805  0.37273  0.11942  1.0000
  N   N85       1.0  0.72071  0.41317  0.29596  1.0000
  C   C1598     1.0  0.70321  0.42002  0.29279  1.0000
  Fe  Fe178     1.0  0.78409  0.38283  0.29561  1.0000
  H   H2855     1.0  0.81422  0.20652  0.46845  1.0000
  C   C1599     1.0  0.78840  0.28720  0.33995  1.0000
  C   C1600     1.0  0.71604  0.21941  0.51841  1.0000
  H   H2856     1.0  0.79128  0.23675  0.14888  1.0000
  H   H2857     1.0  0.65158  0.21619  0.36856  1.0000
  H   H2858     1.0  0.80106  0.29946  0.15676  1.0000
  H   H2859     1.0  0.88003  0.42247  0.46498  1.0000
  H   H2860     1.0  0.79770  0.32062  0.07397  1.0000
  S   S357      1.0  0.82492  0.18060  0.03085  1.0000
  C   C1601     1.0  0.80336  0.31976  0.40074  1.0000
  H   H2861     1.0  0.74730  0.20737  0.30548  1.0000
  Fe  Fe179     1.0  0.70607  0.21999  0.07426  1.0000
  H   H2862     1.0  0.86606  0.23500  0.10085  1.0000
  H   H2863     1.0  0.83583  0.34633  0.39971  1.0000
  C   C1602     1.0  0.73589  0.29970  0.13694  1.0000
  C   C1603     1.0  0.86715  0.36330  0.16616  1.0000
  H   H2864     1.0  0.86577  0.26276  0.13978  1.0000
  C   C1604     1.0  0.66209  0.21288  0.50638  1.0000
  H   H2865     1.0  0.83075  0.30972  0.10813  1.0000
  H   H2866     1.0  0.76292  0.36872  0.04667  1.0000
  C   C1605     1.0  0.86351  0.22976  0.38606  1.0000
  H   H2867     1.0  0.87953  0.20705  0.12063  1.0000
  H   H2868     1.0  0.68864  0.35815  0.34205  1.0000
  H   H2869     1.0  0.80596  0.30473  0.41592  1.0000
  C   C1606     1.0  0.87551  0.38384  0.45637  1.0000
  S   S358      1.0  0.80795  0.41907  0.21351  1.0000
  H   H2870     1.0  0.65313  0.18609  0.32541  1.0000
  N   N86       1.0  0.68019  0.21154  0.37029  1.0000
  H   H2871     1.0  0.75322  0.27654  0.22560  1.0000
  H   H2872     1.0  0.67614  0.33925  0.28793  1.0000
  C   C1607     1.0  0.88293  0.24924  0.17703  1.0000
  H   H2873     1.0  0.78917  0.37310  0.46114  1.0000
  C   C1608     1.0  0.73963  0.23798  0.46285  1.0000
  H   H2874     1.0  0.64338  0.18657  0.48410  1.0000
  H   H2875     1.0  0.86562  0.39356  0.33452  1.0000
  H   H2876     1.0  0.76516  0.19962  0.11181  1.0000
  H   H2877     1.0  0.84515  0.21507  0.39468  1.0000
  H   H2878     1.0  0.82580  0.25817  0.19352  1.0000
  H   H2879     1.0  0.80213  0.19268  0.27807  1.0000
  H   H2880     1.0  0.84358  0.38396  0.49080  1.0000
  H   H2881     1.0  0.80426  0.29654  0.34605  1.0000
  H   H2882     1.0  0.92486  0.25502  0.07439  1.0000
  H   H2883     1.0  0.74515  0.31336  0.36541  1.0000
  C   C1609     1.0  0.82944  0.27327  0.32602  1.0000
  H   H2884     1.0  0.80464  0.36591  0.07502  1.0000
  H   H2885     1.0  0.77984  0.26650  0.36116  1.0000
  C   C1610     1.0  0.82192  0.22782  0.17706  1.0000
  H   H2886     1.0  0.93543  0.33643  0.14049  1.0000
  C   C1611     1.0  0.65863  0.17586  0.35007  1.0000
  H   H2887     1.0  0.65869  0.25914  0.31055  1.0000
  H   H2888     1.0  0.83678  0.20881  0.11722  1.0000
  H   H2889     1.0  0.70609  0.42161  0.38462  1.0000
  C   C1612     1.0  0.82523  0.27105  0.37705  1.0000
  H   H2890     1.0  0.81279  0.33011  0.35512  1.0000
  H   H2891     1.0  0.70537  0.26437  0.30541  1.0000
  H   H2892     1.0  0.83328  0.23927  0.13151  1.0000
  C   C1613     1.0  0.93645  0.34787  0.22328  1.0000
  H   H2893     1.0  0.89156  0.27033  0.32622  1.0000
  H   H2894     1.0  0.77558  0.26671  0.44430  1.0000
  H   H2895     1.0  0.78672  0.17924  0.10599  1.0000
  S   S359      1.0  0.89664  0.35258  0.11825  1.0000
  C   C1614     1.0  0.65798  0.20727  0.46253  1.0000
  H   H2896     1.0  0.83710  0.23620  0.04630  1.0000
  C   C1615     1.0  0.90203  0.39800  0.07645  1.0000
  H   H2897     1.0  0.68725  0.20327  0.43881  1.0000
  H   H2898     1.0  0.92049  0.27561  0.15695  1.0000
  C   C1616     1.0  0.71944  0.39655  0.27229  1.0000
  H   H2899     1.0  0.90306  0.18992  0.49670  1.0000
  C   C1617     1.0  0.71082  0.39867  0.44342  1.0000
  S   S360      1.0  0.84362  0.31464  0.49873  1.0000
  H   H2900     1.0  0.84414  0.37167  0.20636  1.0000
  H   H2901     1.0  0.76945  0.39165  0.51369  1.0000
  S   S361      1.0  0.77346  0.20517  0.36379  1.0000
  Fe  Fe180     1.0  0.73641  0.22223  0.13236  1.0000
  H   H2902     1.0  0.85663  0.25663  0.20756  1.0000
  H   H2903     1.0  0.69722  0.41480  0.22662  1.0000
  C   C1618     1.0  0.86301  0.20072  0.11535  1.0000
  N   N87       1.0  0.83650  0.22304  0.20309  1.0000
  C   C1619     1.0  0.71768  0.41467  0.38400  1.0000
  H   H2904     1.0  0.81262  0.29442  0.26304  1.0000
  H   H2905     1.0  0.78314  0.34532  0.06294  1.0000
  S   S362      1.0  0.83480  0.26101  0.51939  1.0000
  C   C1620     1.0  0.85991  0.24849  0.18188  1.0000
  C   C1621     1.0  0.73623  0.31809  0.14799  1.0000
  H   H2906     1.0  0.84693  0.37867  0.43453  1.0000
  C   C1622     1.0  0.92009  0.42321  0.45547  1.0000
  H   H2907     1.0  0.89878  0.33241  0.31019  1.0000
  C   C1623     1.0  0.91838  0.40236  0.18740  1.0000
  C   C1624     1.0  0.85180  0.21414  0.12775  1.0000
  C   C1625     1.0  0.68529  0.25417  0.32736  1.0000
  S   S363      1.0  0.84382  0.29821  0.37891  1.0000
  C   C1626     1.0  0.91690  0.32123  0.35063  1.0000
  H   H2908     1.0  0.79339  0.25860  0.17128  1.0000
  C   C1627     1.0  0.86156  0.40306  0.30411  1.0000
  S   S364      1.0  0.66958  0.19480  0.08243  1.0000
  Fe  Fe181     1.0  0.77650  0.35011  0.24437  1.0000
  H   H2909     1.0  0.74097  0.26998  0.15775  1.0000
  H   H2910     1.0  0.92150  0.31191  0.32989  1.0000
  S   S365      1.0  0.80364  0.36664  0.27172  1.0000
  H   H2911     1.0  0.89876  0.27904  0.19594  1.0000
  H   H2912     1.0  0.88557  0.30932  0.42251  1.0000
  C   C1628     1.0  0.70533  0.22186  0.32818  1.0000
  H   H2913     1.0  0.78325  0.28635  0.27069  1.0000
  S   S366      1.0  0.73497  0.21314  0.06661  1.0000
  C   C1629     1.0  0.74215  0.22071  0.30043  1.0000
  Fe  Fe182     1.0  0.73395  0.26693  0.07979  1.0000
  C   C1630     1.0  0.82076  0.20931  0.26458  1.0000
  H   H2914     1.0  0.67354  0.22610  0.30390  1.0000
  S   S367      1.0  0.76527  0.26416  0.07433  1.0000
  H   H2915     1.0  0.81775  0.22186  0.27628  1.0000
  S   S368      1.0  0.75514  0.36340  0.27508  1.0000
  H   H2916     1.0  0.70568  0.22375  0.28891  1.0000
  C   C1631     1.0  0.86273  0.23140  0.43768  1.0000
  H   H2917     1.0  0.74888  0.22858  0.45901  1.0000
  C   C1632     1.0  0.67350  0.18971  0.02775  1.0000
  C   C1633     1.0  0.76939  0.29226  0.36156  1.0000
  H   H2918     1.0  0.74398  0.33642  0.19428  1.0000
  H   H2919     1.0  0.70090  0.28070  0.40436  1.0000
  C   C1634     1.0  0.80360  0.25189  0.15433  1.0000
  H   H2920     1.0  0.81638  0.25499  0.28323  1.0000
  H   H2921     1.0  0.91736  0.33590  0.23079  1.0000
  H   H2922     1.0  0.70666  0.30951  0.40114  1.0000
  C   C1635     1.0  0.92474  0.36352  0.45137  1.0000
  C   C1636     1.0  0.89239  0.30069  0.40335  1.0000
  C   C1637     1.0  0.71563  0.20650  0.34449  1.0000
  C   C1638     1.0  0.73320  0.30275  0.41046  1.0000
  H   H2923     1.0  0.91834  0.40537  0.04049  1.0000
  C   C1639     1.0  0.79351  0.22964  0.37086  1.0000
  C   C1640     1.0  0.80875  0.19118  0.50821  1.0000
  Fe  Fe183     1.0  0.83083  0.28883  0.46603  1.0000
  H   H2924     1.0  0.76824  0.30404  0.46733  1.0000
  H   H2925     1.0  0.91388  0.41821  0.29678  1.0000
  C   C1641     1.0  0.87440  0.40450  0.12795  1.0000
  C   C1642     1.0  0.91844  0.18854  0.09294  1.0000
  C   C1643     1.0  0.71378  0.39892  0.35547  1.0000
  C   C1644     1.0  0.80581  0.24765  0.42514  1.0000
  C   C1645     1.0  0.80187  0.36319  0.04161  1.0000
  H   H2926     1.0  0.81461  0.35468  0.40187  1.0000
  H   H2927     1.0  0.73907  0.31636  0.42492  1.0000
  C   C1646     1.0  0.81212  0.18421  0.36171  1.0000
  H   H2928     1.0  0.69104  0.38244  0.46773  1.0000
  H   H2929     1.0  0.79553  0.22839  0.23558  1.0000
  C   C1647     1.0  0.80254  0.39223  0.42585  1.0000
  H   H2930     1.0  0.73116  0.32939  0.12683  1.0000
  H   H2931     1.0  0.72200  0.39126  0.44510  1.0000
  H   H2932     1.0  0.88714  0.24929  0.49218  1.0000
  H   H2933     1.0  0.73492  0.24066  0.42933  1.0000
  C   C1648     1.0  0.91592  0.34217  0.31263  1.0000
  C   C1649     1.0  0.86011  0.37903  0.16997  1.0000
  H   H2934     1.0  0.72377  0.39020  0.36036  1.0000
  H   H2935     1.0  0.84447  0.29122  0.28866  1.0000
  C   C1650     1.0  0.90392  0.27521  0.16264  1.0000
  C   C1651     1.0  0.83070  0.19955  0.30052  1.0000
  H   H2936     1.0  0.93160  0.41099  0.14386  1.0000
  C   C1652     1.0  0.84102  0.20570  0.18928  1.0000
  C   C1653     1.0  0.90387  0.33826  0.48608  1.0000
  H   H2937     1.0  0.83627  0.35376  0.50124  1.0000
  H   H2938     1.0  0.77891  0.38257  0.07925  1.0000
  H   H2939     1.0  0.75393  0.28074  0.35591  1.0000
  H   H2940     1.0  0.67575  0.17994  0.32145  1.0000
  H   H2941     1.0  0.91287  0.35191  0.33426  1.0000
  H   H2942     1.0  0.69911  0.36953  0.22484  1.0000
  C   C1654     1.0  0.81177  0.24179  0.19369  1.0000
  H   H2943     1.0  0.80278  0.24549  0.46482  1.0000
  S   S369      1.0  0.72970  0.29651  0.08546  1.0000
  H   H2944     1.0  0.89846  0.36760  0.26489  1.0000
  H   H2945     1.0  0.86849  0.20546  0.07227  1.0000
  H   H2946     1.0  0.71910  0.24144  0.31757  1.0000
  H   H2947     1.0  0.87916  0.23457  0.21526  1.0000
  H   H2948     1.0  0.86038  0.26077  0.35199  1.0000
  H   H2949     1.0  0.81549  0.34413  0.11953  1.0000
  C   C1655     1.0  0.81357  0.25269  0.32294  1.0000
  H   H2950     1.0  0.83456  0.18685  0.29174  1.0000
  C   C1656     1.0  0.91447  0.37774  0.22377  1.0000
  H   H2951     1.0  0.80598  0.20957  0.18673  1.0000
  S   S370      1.0  0.77380  0.37761  0.37940  1.0000
  H   H2952     1.0  0.92722  0.37525  0.41237  1.0000
  H   H2953     1.0  0.80647  0.31765  0.25493  1.0000
  H   H2954     1.0  0.87208  0.25337  0.30323  1.0000
  H   H2955     1.0  0.73216  0.39138  0.27546  1.0000
  H   H2956     1.0  0.84947  0.17977  0.14294  1.0000
  H   H2957     1.0  0.84309  0.26693  0.02865  1.0000
  H   H2958     1.0  0.82467  0.40448  0.46316  1.0000
  H   H2959     1.0  0.82728  0.33162  0.02829  1.0000
  H   H2960     1.0  0.82925  0.17872  0.47422  1.0000
  C   C1657     1.0  0.78023  0.38473  0.03934  1.0000
  H   H2961     1.0  0.81978  0.26797  0.11356  1.0000
  S   S371      1.0  0.70543  0.22589  0.14441  1.0000
  H   H2962     1.0  0.77770  0.31249  0.33314  1.0000
  S   S372      1.0  0.73605  0.19864  0.20649  1.0000
  C   C1658     1.0  0.87068  0.20010  0.47512  1.0000
  C   C1659     1.0  0.84902  0.37456  0.47178  1.0000
  H   H2963     1.0  0.81695  0.24300  0.03017  1.0000
  C   C1660     1.0  0.82270  0.40990  0.42686  1.0000
  H   H2964     1.0  0.88994  0.21666  0.45733  1.0000
  H   H2965     1.0  0.72203  0.26436  0.43828  1.0000
  H   H2966     1.0  0.73864  0.41084  0.07298  1.0000
  H   H2967     1.0  0.72603  0.40727  0.22754  1.0000
  C   C1661     1.0  0.79967  0.39933  0.37935  1.0000
  N   N88       1.0  0.89483  0.40536  0.50576  1.0000
  C   C1662     1.0  0.74952  0.30699  0.21383  1.0000
  C   C1663     1.0  0.89541  0.41402  0.08109  1.0000
  N   N89       1.0  0.85324  0.20718  0.48780  1.0000
  H   H2968     1.0  0.75208  0.26089  0.49957  1.0000
  H   H2969     1.0  0.88808  0.40353  0.42077  1.0000
  C   C1664     1.0  0.87247  0.25515  0.33909  1.0000
  H   H2970     1.0  0.90071  0.39823  0.19016  1.0000
  C   C1665     1.0  0.77593  0.30891  0.42375  1.0000
  Fe  Fe184     1.0  0.91307  0.35777  0.03531  1.0000
  Fe  Fe185     1.0  0.82557  0.40142  0.18794  1.0000
  H   H2971     1.0  0.87858  0.28884  0.39447  1.0000
  H   H2972     1.0  0.71548  0.20322  0.38399  1.0000
  C   C1666     1.0  0.74847  0.28812  0.20400  1.0000
  C   C1667     1.0  0.69444  0.35757  0.26757  1.0000
  C   C1668     1.0  0.73460  0.28061  0.44083  1.0000
  C   C1669     1.0  0.82562  0.33972  0.09378  1.0000
  H   H2973     1.0  0.84755  0.21581  0.29387  1.0000
  Fe  Fe186     1.0  0.78038  0.39815  0.19079  1.0000
  H   H2974     1.0  0.89462  0.28826  0.43311  1.0000
  S   S373      1.0  0.79994  0.38343  0.15851  1.0000
  S   S374      1.0  0.75702  0.31010  0.26379  1.0000
  H   H2975     1.0  0.88957  0.24595  0.14378  1.0000
  H   H2976     1.0  0.92601  0.41232  0.44311  1.0000
  H   H2977     1.0  0.87895  0.37224  0.44144  1.0000
  H   H2978     1.0  0.89072  0.33047  0.47312  1.0000
  H   H2979     1.0  0.85186  0.23876  0.44754  1.0000
  C   C1670     1.0  0.92686  0.21381  0.06297  1.0000
  H   H2980     1.0  0.92553  0.41623  0.20061  1.0000
  H   H2981     1.0  0.69696  0.23493  0.40194  1.0000
  C   C1671     1.0  0.81736  0.33729  0.05070  1.0000
  H   H2982     1.0  0.89046  0.37222  0.50521  1.0000
  H   H2983     1.0  0.65085  0.21754  0.44518  1.0000
  C   C1672     1.0  0.75241  0.18560  0.19824  1.0000
  C   C1673     1.0  0.67876  0.26837  0.29014  1.0000
  H   H2984     1.0  0.88182  0.24669  0.42459  1.0000
  H   H2985     1.0  0.68857  0.28832  0.28070  1.0000
  C   C1674     1.0  0.88064  0.41664  0.50415  1.0000
  H   H2986     1.0  0.67949  0.37401  0.30104  1.0000
  H   H2987     1.0  0.85412  0.39089  0.28729  1.0000
  H   H2988     1.0  0.87057  0.19517  0.44282  1.0000
  H   H2989     1.0  0.68458  0.26885  0.25066  1.0000
  H   H2990     1.0  0.69428  0.28229  0.46631  1.0000
  C   C1675     1.0  0.81613  0.33867  0.41733  1.0000
  H   H2991     1.0  0.71439  0.41065  0.46216  1.0000
  N   N90       1.0  0.75987  0.28641  0.41996  1.0000
  H   H2992     1.0  0.87630  0.22518  0.37111  1.0000
  H   H2993     1.0  0.77614  0.32545  0.40045  1.0000
  C   C1676     1.0  0.70707  0.29307  0.42150  1.0000
  H   H2994     1.0  0.82348  0.18623  0.21183  1.0000
  C   C1677     1.0  0.88052  0.38109  0.50575  1.0000
  H   H2995     1.0  0.64349  0.17660  0.42202  1.0000
  S   S375      1.0  0.92673  0.17941  0.14287  1.0000
  H   H2996     1.0  0.80956  0.19666  0.37473  1.0000
  H   H2997     1.0  0.75062  0.41647  0.49390  1.0000
  C   C1678     1.0  0.76485  0.18847  0.14803  1.0000
  H   H2998     1.0  0.84558  0.35485  0.07365  1.0000
  H   H2999     1.0  0.80783  0.32914  0.46275  1.0000
  H   H3000     1.0  0.67690  0.23327  0.48777  1.0000
  H   H3001     1.0  0.85645  0.34383  0.19963  1.0000
  C   C1679     1.0  0.68195  0.21492  0.41741  1.0000
  H   H3002     1.0  0.74440  0.22871  0.25849  1.0000
  H   H3003     1.0  0.75489  0.23645  0.30402  1.0000
  H   H3004     1.0  0.85324  0.20296  0.20362  1.0000
  H   H3005     1.0  0.93096  0.32956  0.36270  1.0000
  H   H3006     1.0  0.68052  0.25553  0.36458  1.0000
  C   C1680     1.0  0.67156  0.22596  0.34274  1.0000
  C   C1681     1.0  0.82105  0.31504  0.13208  1.0000
  H   H3007     1.0  0.56879  0.52459  0.76295  1.0000
  H   H3008     1.0  0.61817  0.56978  0.55546  1.0000
  C   C1682     1.0  0.58661  0.66994  0.98514  1.0000
  H   H3009     1.0  0.93019  0.49370  0.97341  1.0000
  C   C1683     1.0  0.80521  0.65695  0.55837  1.0000
  C   C1684     1.0  0.59852  0.55376  0.76332  1.0000
  H   H3010     1.0  0.69087  0.57328  0.84515  1.0000
  C   C1685     1.0  0.87554  0.46682  0.97523  1.0000
  C   C1686     1.0  0.44966  0.49542  0.88443  1.0000
  C   C1687     1.0  0.61070  0.59912  0.59084  1.0000
  S   S376      1.0  0.52797  0.50642  0.65791  1.0000
  C   C1688     1.0  0.49442  0.55914  0.63316  1.0000
  C   C1689     1.0  0.74082  0.43601  0.72035  1.0000
  H   H3011     1.0  0.51100  0.59763  0.57148  1.0000
  C   C1690     1.0  0.84638  0.42980  0.85006  1.0000
  C   C1691     1.0  0.73011  0.59763  0.64239  1.0000
  C   C1692     1.0  0.65839  0.49768  0.76019  1.0000
  C   C1693     1.0  0.44005  0.50744  0.91139  1.0000
  H   H3012     1.0  0.45321  0.53756  0.01278  1.0000
  H   H3013     1.0  0.75985  0.43759  0.59915  1.0000
  H   H3014     1.0  0.76636  0.46004  0.53543  1.0000
  H   H3015     1.0  0.74869  0.58145  0.81120  1.0000
  H   H3016     1.0  0.54206  0.50035  0.99816  1.0000
  H   H3017     1.0  0.82744  0.57972  0.91501  1.0000
  N   N91       1.0  0.77159  0.43184  0.53159  1.0000
  H   H3018     1.0  0.48293  0.57687  0.79677  1.0000
  H   H3019     1.0  0.60907  0.65267  0.93517  1.0000
  H   H3020     1.0  0.80325  0.59105  0.94568  1.0000
  H   H3021     1.0  0.64104  0.55962  0.63655  1.0000
  H   H3022     1.0  0.79337  0.44035  0.69868  1.0000
  H   H3023     1.0  0.83569  0.54897  0.91605  1.0000
  S   S377      1.0  0.68714  0.66891  0.66298  1.0000
  H   H3024     1.0  0.69159  0.54302  0.66327  1.0000
  C   C1694     1.0  0.63700  0.51749  0.76794  1.0000
  H   H3025     1.0  0.90483  0.62161  0.79075  1.0000
  H   H3026     1.0  0.76651  0.58116  0.75531  1.0000
  C   C1695     1.0  0.76380  0.55476  0.95274  1.0000
  H   H3027     1.0  0.90252  0.50205  0.67447  1.0000
  H   H3028     1.0  0.74644  0.49530  0.61322  1.0000
  H   H3029     1.0  0.85463  0.52970  0.61227  1.0000
  C   C1696     1.0  0.75801  0.43947  0.56203  1.0000
  H   H3030     1.0  0.70828  0.56496  0.89534  1.0000
  H   H3031     1.0  0.62200  0.67240  0.63901  1.0000
  H   H3032     1.0  0.60551  0.58062  0.62196  1.0000
  C   C1697     1.0  0.90504  0.62478  0.66492  1.0000
  H   H3033     1.0  0.68962  0.47107  0.73493  1.0000
  Fe  Fe187     1.0  0.44673  0.63492  0.55832  1.0000
  C   C1698     1.0  0.76313  0.43297  0.93243  1.0000
  H   H3034     1.0  0.77643  0.50650  0.60719  1.0000
  H   H3035     1.0  0.62106  0.46873  0.74162  1.0000
  S   S378      1.0  0.83251  0.43562  0.70779  1.0000
  H   H3036     1.0  0.49739  0.55096  0.74223  1.0000
  H   H3037     1.0  0.70694  0.57586  0.56973  1.0000
  S   S379      1.0  0.84046  0.64460  0.73049  1.0000
  C   C1699     1.0  0.80381  0.46062  0.81981  1.0000
  H   H3038     1.0  0.56742  0.43844  0.82728  1.0000
  H   H3039     1.0  0.85431  0.43375  0.53095  1.0000
  C   C1700     1.0  0.72955  0.60488  0.91295  1.0000
  H   H3040     1.0  0.89561  0.50507  0.53876  1.0000
  C   C1701     1.0  0.85788  0.55331  0.70909  1.0000
  C   C1702     1.0  0.77765  0.57821  0.81819  1.0000
  Fe  Fe188     1.0  0.51853  0.51165  0.78787  1.0000
  H   H3041     1.0  0.51621  0.64674  0.64382  1.0000
  C   C1703     1.0  0.88961  0.65442  0.84194  1.0000
  H   H3042     1.0  0.90090  0.43825  0.82259  1.0000
  H   H3043     1.0  0.76316  0.45008  0.92279  1.0000
  H   H3044     1.0  0.67574  0.55766  0.66237  1.0000
  H   H3045     1.0  0.93438  0.42996  0.68693  1.0000
  C   C1704     1.0  0.89991  0.58052  0.95765  1.0000
  H   H3046     1.0  0.59998  0.51539  0.84409  1.0000
  Fe  Fe189     1.0  0.72050  0.64251  0.60742  1.0000
  H   H3047     1.0  0.76169  0.59972  0.59869  1.0000
  H   H3048     1.0  0.88941  0.43532  0.55038  1.0000
  H   H3049     1.0  0.60659  0.62463  0.67506  1.0000
  Fe  Fe190     1.0  0.67304  0.62831  0.69028  1.0000
  C   C1705     1.0  0.59626  0.47842  0.76445  1.0000
  C   C1706     1.0  0.61833  0.67352  0.91539  1.0000
  H   H3050     1.0  0.63819  0.50461  0.84489  1.0000
  H   H3051     1.0  0.58998  0.59160  0.69570  1.0000
  C   C1707     1.0  0.53141  0.56230  0.81144  1.0000
  C   C1708     1.0  0.85553  0.53176  0.57275  1.0000
  H   H3052     1.0  0.69640  0.58935  0.69642  1.0000
  H   H3053     1.0  0.89572  0.53963  0.90953  1.0000
  C   C1709     1.0  0.85294  0.62792  0.52810  1.0000
  H   H3054     1.0  0.89284  0.42536  0.92412  1.0000
  C   C1710     1.0  0.44771  0.47362  0.92657  1.0000
  C   C1711     1.0  0.58179  0.66569  0.90760  1.0000
  H   H3055     1.0  0.75327  0.56467  0.67990  1.0000
  C   C1712     1.0  0.67523  0.48654  0.96299  1.0000
  H   H3056     1.0  0.72983  0.42987  0.90535  1.0000
  N   N92       1.0  0.64162  0.50275  0.74406  1.0000
  H   H3057     1.0  0.77533  0.46342  0.71052  1.0000
  H   H3058     1.0  0.47354  0.59558  0.60978  1.0000
  H   H3059     1.0  0.72436  0.64815  0.75656  1.0000
  Fe  Fe191     1.0  0.93479  0.52137  0.78115  1.0000
  H   H3060     1.0  0.45808  0.48042  0.94720  1.0000
  C   C1713     1.0  0.57099  0.56451  0.90417  1.0000
  S   S380      1.0  0.78667  0.50888  0.71050  1.0000
  H   H3061     1.0  0.65900  0.56673  0.93619  1.0000
  C   C1714     1.0  0.88089  0.47336  0.01760  1.0000
  H   H3062     1.0  0.63343  0.61683  0.62399  1.0000
  H   H3063     1.0  0.45571  0.46622  0.90557  1.0000
  H   H3064     1.0  0.78149  0.64657  0.64014  1.0000
  S   S381      1.0  0.72659  0.45099  0.72968  1.0000
  C   C1715     1.0  0.85104  0.45001  0.85837  1.0000
  H   H3065     1.0  0.50003  0.66931  0.61253  1.0000
  C   C1716     1.0  0.71982  0.55677  0.73425  1.0000
  H   H3066     1.0  0.85453  0.53055  0.95835  1.0000
  H   H3067     1.0  0.70172  0.59774  0.88959  1.0000
  H   H3068     1.0  0.74135  0.53153  0.92655  1.0000
  H   H3069     1.0  0.93390  0.48839  0.65814  1.0000
  H   H3070     1.0  0.54180  0.53662  0.99050  1.0000
  H   H3071     1.0  0.67424  0.51525  0.75299  1.0000
  C   C1717     1.0  0.68114  0.47745  0.75830  1.0000
  H   H3072     1.0  0.62592  0.52283  0.75405  1.0000
  C   C1718     1.0  0.83214  0.46679  0.53932  1.0000
  H   H3073     1.0  0.61790  0.62208  0.87668  1.0000
  C   C1719     1.0  0.87401  0.46647  0.85213  1.0000
  H   H3074     1.0  0.58804  0.62581  0.85430  1.0000
  H   H3075     1.0  0.81896  0.64314  0.91184  1.0000
  S   S382      1.0  0.48265  0.67206  0.52332  1.0000
  C   C1720     1.0  0.74072  0.56985  0.68365  1.0000
  H   H3076     1.0  0.92803  0.61409  0.87551  1.0000
  H   H3077     1.0  0.46930  0.50992  0.85280  1.0000
  H   H3078     1.0  0.85852  0.64167  0.99095  1.0000
  H   H3079     1.0  0.48273  0.64402  0.79726  1.0000
  H   H3080     1.0  0.45389  0.63892  0.68752  1.0000
  S   S383      1.0  0.49054  0.50350  0.75991  1.0000
  C   C1721     1.0  0.65878  0.55193  0.92814  1.0000
  H   H3081     1.0  0.66982  0.58355  0.79439  1.0000
  H   H3082     1.0  0.86572  0.66541  0.86215  1.0000
  H   H3083     1.0  0.87032  0.47905  0.72290  1.0000
  H   H3084     1.0  0.79776  0.67331  0.87225  1.0000
  S   S384      1.0  0.68646  0.63550  0.60474  1.0000
  C   C1722     1.0  0.45188  0.55675  0.67601  1.0000
  Fe  Fe192     1.0  0.86692  0.66116  0.75900  1.0000
  H   H3085     1.0  0.89095  0.63632  0.55859  1.0000
  H   H3086     1.0  0.74995  0.55839  0.96625  1.0000
  C   C1723     1.0  0.91788  0.51838  0.95101  1.0000
  H   H3087     1.0  0.78170  0.43910  0.92692  1.0000
  H   H3088     1.0  0.83879  0.58765  0.01373  1.0000
  H   H3089     1.0  0.63480  0.64075  0.77389  1.0000
  C   C1724     1.0  0.49436  0.58013  0.60704  1.0000
  C   C1725     1.0  0.50439  0.62594  0.66165  1.0000
  C   C1726     1.0  0.44430  0.61562  0.82068  1.0000
  H   H3090     1.0  0.55875  0.45351  0.78292  1.0000
  H   H3091     1.0  0.88483  0.51194  0.70326  1.0000
  H   H3092     1.0  0.81895  0.52236  0.59874  1.0000
  C   C1727     1.0  0.47313  0.57896  0.62858  1.0000
  C   C1728     1.0  0.70317  0.58791  0.92537  1.0000
  C   C1729     1.0  0.87898  0.51966  0.93694  1.0000
  C   C1730     1.0  0.88447  0.59064  0.97068  1.0000
  H   H3093     1.0  0.46670  0.59425  0.71127  1.0000
  H   H3094     1.0  0.79877  0.61805  0.98367  1.0000
  S   S385      1.0  0.79056  0.50576  0.84254  1.0000
  H   H3095     1.0  0.69312  0.54503  0.57651  1.0000
  C   C1731     1.0  0.90156  0.60708  0.77946  1.0000
  H   H3096     1.0  0.80848  0.44696  0.82982  1.0000
  H   H3097     1.0  0.77242  0.46134  0.82875  1.0000
  S   S386      1.0  0.51341  0.51156  0.86628  1.0000
  C   C1732     1.0  0.43893  0.54429  0.89469  1.0000
  H   H3098     1.0  0.64508  0.62145  0.91868  1.0000
  H   H3099     1.0  0.90240  0.60744  0.66586  1.0000
  S   S387      1.0  0.73707  0.62341  0.58452  1.0000
  H   H3100     1.0  0.49215  0.57417  0.71140  1.0000
  H   H3101     1.0  0.47406  0.47942  0.62670  1.0000
  C   C1733     1.0  0.87240  0.54891  0.72931  1.0000
  H   H3102     1.0  0.45810  0.61965  0.89945  1.0000
  C   C1734     1.0  0.61796  0.47754  0.76566  1.0000
  S   S388      1.0  0.54930  0.54412  0.70376  1.0000
  H   H3103     1.0  0.64057  0.52193  0.67121  1.0000
  H   H3104     1.0  0.65886  0.58489  0.67657  1.0000
  H   H3105     1.0  0.76087  0.48055  0.59736  1.0000
  Fe  Fe193     1.0  0.77409  0.51000  0.78733  1.0000
  C   C1735     1.0  0.59341  0.57370  0.52856  1.0000
  C   C1736     1.0  0.79954  0.62831  0.94466  1.0000
  H   H3106     1.0  0.81790  0.61464  0.87549  1.0000
  H   H3107     1.0  0.88406  0.59941  0.77850  1.0000
  H   H3108     1.0  0.59039  0.48493  0.79148  1.0000
  C   C1737     1.0  0.61888  0.58535  0.52541  1.0000
  H   H3109     1.0  0.84200  0.56783  0.84760  1.0000
  C   C1738     1.0  0.45163  0.53544  0.70046  1.0000
  H   H3110     1.0  0.88021  0.52402  0.00434  1.0000
  C   C1739     1.0  0.66877  0.48678  0.73107  1.0000
  H   H3111     1.0  0.92485  0.65352  0.57565  1.0000
  H   H3112     1.0  0.57104  0.54335  0.97936  1.0000
  C   C1740     1.0  0.92286  0.46147  0.59516  1.0000
  C   C1741     1.0  0.62394  0.57159  0.73761  1.0000
  C   C1742     1.0  0.67812  0.54446  0.65223  1.0000
  H   H3113     1.0  0.50746  0.62218  0.62760  1.0000
  H   H3114     1.0  0.59879  0.59915  0.79570  1.0000
  H   H3115     1.0  0.82016  0.65545  0.53989  1.0000
  S   S389      1.0  0.44901  0.60429  0.55266  1.0000
  C   C1743     1.0  0.50507  0.53753  0.90996  1.0000
  H   H3116     1.0  0.83973  0.49970  0.96473  1.0000
  H   H3117     1.0  0.80830  0.47085  0.84186  1.0000
  H   H3118     1.0  0.86572  0.56602  0.66568  1.0000
  H   H3119     1.0  0.48536  0.55152  0.82788  1.0000
  N   N93       1.0  0.44809  0.61603  0.76745  1.0000
  H   H3120     1.0  0.46505  0.65652  0.79244  1.0000
  H   H3121     1.0  0.44300  0.59919  0.84921  1.0000
  H   H3122     1.0  0.93540  0.59248  0.90213  1.0000
  S   S390      1.0  0.52199  0.56207  0.60968  1.0000
  H   H3123     1.0  0.88988  0.63190  0.98380  1.0000
  C   C1744     1.0  0.51835  0.58086  0.85797  1.0000
  H   H3124     1.0  0.74203  0.62805  0.79605  1.0000
  N   N94       1.0  0.92642  0.63810  0.67387  1.0000
  H   H3125     1.0  0.82908  0.51652  0.54529  1.0000
  N   N95       1.0  0.89673  0.53685  0.53996  1.0000
  H   H3126     1.0  0.79180  0.54874  0.54232  1.0000
  C   C1745     1.0  0.63924  0.57266  0.69376  1.0000
  C   C1746     1.0  0.70915  0.58445  0.69300  1.0000
  C   C1747     1.0  0.92667  0.60150  0.91314  1.0000
  H   H3127     1.0  0.68273  0.50170  0.68741  1.0000
  H   H3128     1.0  0.65513  0.50704  0.66375  1.0000
  C   C1748     1.0  0.62467  0.50422  0.83140  1.0000
  H   H3129     1.0  0.47777  0.50521  0.63581  1.0000
  H   H3130     1.0  0.57912  0.56839  0.56721  1.0000
  H   H3131     1.0  0.88108  0.43704  0.99531  1.0000
  H   H3132     1.0  0.86326  0.61465  0.94811  1.0000
  H   H3133     1.0  0.61146  0.46360  0.80856  1.0000
  C   C1749     1.0  0.60916  0.60228  0.88511  1.0000
  C   C1750     1.0  0.61557  0.51793  0.85118  1.0000
  H   H3134     1.0  0.58253  0.53482  0.56155  1.0000
  H   H3135     1.0  0.88755  0.61760  0.69915  1.0000
  H   H3136     1.0  0.76573  0.55723  0.83996  1.0000
  N   N96       1.0  0.78648  0.57795  0.89965  1.0000
  C   C1751     1.0  0.77633  0.44690  0.83578  1.0000
  H   H3137     1.0  0.83967  0.49111  0.74942  1.0000
  H   H3138     1.0  0.77435  0.44123  0.80514  1.0000
  H   H3139     1.0  0.69095  0.58619  0.96149  1.0000
  H   H3140     1.0  0.57556  0.63059  0.01380  1.0000
  C   C1752     1.0  0.85442  0.60790  0.99244  1.0000
  Fe  Fe194     1.0  0.74690  0.48597  0.73427  1.0000
  C   C1753     1.0  0.76425  0.49890  0.59042  1.0000
  C   C1754     1.0  0.81410  0.56363  0.91317  1.0000
  H   H3141     1.0  0.79435  0.44771  0.59277  1.0000
  H   H3142     1.0  0.57417  0.64516  0.92788  1.0000
  C   C1755     1.0  0.82247  0.52380  0.80043  1.0000
  H   H3143     1.0  0.44855  0.56680  0.95424  1.0000
  H   H3144     1.0  0.90878  0.65122  0.71403  1.0000
  H   H3145     1.0  0.64612  0.65869  0.87393  1.0000
  C   C1756     1.0  0.88887  0.62418  0.59772  1.0000
  H   H3146     1.0  0.47224  0.51991  0.69763  1.0000
  H   H3147     1.0  0.45389  0.51763  0.92254  1.0000
  H   H3148     1.0  0.76519  0.54121  0.53717  1.0000
  H   H3149     1.0  0.89125  0.54274  0.60903  1.0000
  H   H3150     1.0  0.46944  0.60927  0.99224  1.0000
  C   C1757     1.0  0.53775  0.64540  0.92549  1.0000
  C   C1758     1.0  0.46189  0.67232  0.97050  1.0000
  H   H3151     1.0  0.83142  0.63446  0.65363  1.0000
  C   C1759     1.0  0.58844  0.53826  0.74292  1.0000
  S   S391      1.0  0.90095  0.46730  0.59300  1.0000
  C   C1760     1.0  0.59641  0.61395  0.79572  1.0000
  H   H3152     1.0  0.68842  0.49666  0.91862  1.0000
  C   C1761     1.0  0.83714  0.51999  0.82119  1.0000
  H   H3153     1.0  0.80784  0.59339  0.66003  1.0000
  C   C1762     1.0  0.60366  0.54098  0.69594  1.0000
  H   H3154     1.0  0.49502  0.55654  0.94532  1.0000
  H   H3155     1.0  0.89966  0.56847  0.99356  1.0000
  C   C1763     1.0  0.47744  0.61509  0.69366  1.0000
  H   H3156     1.0  0.87981  0.49100  0.62656  1.0000
  C   C1764     1.0  0.87870  0.50355  0.64103  1.0000
  C   C1765     1.0  0.62140  0.64015  0.76006  1.0000
  H   H3157     1.0  0.81411  0.53579  0.89348  1.0000
  H   H3158     1.0  0.73470  0.62413  0.90308  1.0000
  Fe  Fe195     1.0  0.73872  0.52095  0.76490  1.0000
  S   S392      1.0  0.81742  0.57640  0.58436  1.0000
  H   H3159     1.0  0.91638  0.51751  0.91518  1.0000
  S   S393      1.0  0.91977  0.48115  0.83655  1.0000
  C   C1766     1.0  0.82732  0.55349  0.89095  1.0000
  H   H3160     1.0  0.80228  0.42784  0.57943  1.0000
  S   S394      1.0  0.87439  0.63781  0.81438  1.0000
  C   C1767     1.0  0.53218  0.58329  0.80977  1.0000
  C   C1768     1.0  0.75303  0.64851  0.77033  1.0000
  H   H3161     1.0  0.59146  0.67309  0.86284  1.0000
  S   S395      1.0  0.63612  0.59299  0.75932  1.0000
  H   H3162     1.0  0.55647  0.56057  0.89195  1.0000
  H   H3163     1.0  0.86058  0.46812  0.97244  1.0000
  H   H3164     1.0  0.60385  0.58319  0.96889  1.0000
  C   C1769     1.0  0.68932  0.55682  0.58991  1.0000
  H   H3165     1.0  0.54254  0.60092  0.77095  1.0000
  C   C1770     1.0  0.90386  0.60520  0.02303  1.0000
  H   H3166     1.0  0.48787  0.64161  0.72211  1.0000
  H   H3167     1.0  0.76716  0.59439  0.96413  1.0000
  Fe  Fe196     1.0  0.78755  0.54335  0.66982  1.0000
  C   C1771     1.0  0.87336  0.61187  0.01325  1.0000
  H   H3168     1.0  0.58550  0.61247  0.65071  1.0000
  H   H3169     1.0  0.91587  0.64574  0.82900  1.0000
  H   H3170     1.0  0.49926  0.51175  0.57299  1.0000
  C   C1772     1.0  0.48016  0.55940  0.79838  1.0000
  C   C1773     1.0  0.58471  0.54955  0.52592  1.0000
  C   C1774     1.0  0.76747  0.58814  0.78418  1.0000
  H   H3171     1.0  0.89344  0.61139  0.59175  1.0000
  H   H3172     1.0  0.64873  0.50662  0.95693  1.0000
  H   H3173     1.0  0.61158  0.57130  0.92608  1.0000
  N   N97       1.0  0.62854  0.60748  0.53448  1.0000
  H   H3174     1.0  0.68761  0.55371  0.77718  1.0000
  H   H3175     1.0  0.67943  0.52840  0.90315  1.0000
  H   H3176     1.0  0.44174  0.54076  0.60714  1.0000
  C   C1775     1.0  0.85674  0.51951  0.93983  1.0000
  H   H3177     1.0  0.60931  0.63903  0.52729  1.0000
  H   H3178     1.0  0.78931  0.64439  0.55562  1.0000
  H   H3179     1.0  0.89169  0.56813  0.94193  1.0000
  C   C1776     1.0  0.92337  0.61871  0.72364  1.0000
  H   H3180     1.0  0.81574  0.49389  0.74591  1.0000
  H   H3181     1.0  0.46326  0.65591  0.71974  1.0000
  H   H3182     1.0  0.70045  0.63829  0.88359  1.0000
  H   H3183     1.0  0.72778  0.45613  0.56471  1.0000
  H   H3184     1.0  0.76823  0.55071  0.98675  1.0000
  S   S396      1.0  0.65476  0.67005  0.00506  1.0000
  C   C1777     1.0  0.88152  0.66649  0.86265  1.0000
  C   C1778     1.0  0.86446  0.42577  0.83656  1.0000
  N   N98       1.0  0.88038  0.59366  0.02016  1.0000
  H   H3185     1.0  0.65448  0.53589  0.75219  1.0000
  S   S397      1.0  0.77764  0.54585  0.74533  1.0000
  S   S398      1.0  0.54043  0.65648  0.70670  1.0000
  H   H3186     1.0  0.77629  0.57912  0.52754  1.0000
  C   C1779     1.0  0.57387  0.45215  0.78431  1.0000
  C   C1780     1.0  0.80522  0.44645  0.56060  1.0000
  H   H3187     1.0  0.86329  0.55183  0.54428  1.0000
  N   N99       1.0  0.66969  0.54136  0.95691  1.0000
  H   H3188     1.0  0.47336  0.65334  0.86990  1.0000
  C   C1781     1.0  0.61489  0.58859  0.92655  1.0000
  C   C1782     1.0  0.77965  0.58830  0.85792  1.0000
  H   H3189     1.0  0.53898  0.51375  0.93909  1.0000
  C   C1783     1.0  0.46429  0.63974  0.81656  1.0000
  H   H3190     1.0  0.82061  0.59029  0.83662  1.0000
  H   H3191     1.0  0.68068  0.47592  0.98695  1.0000
  C   C1784     1.0  0.89626  0.53190  0.59411  1.0000
  C   C1785     1.0  0.90633  0.64110  0.61185  1.0000
  H   H3192     1.0  0.72257  0.43944  0.63338  1.0000
  C   C1786     1.0  0.54294  0.58057  0.96818  1.0000
  C   C1787     1.0  0.89843  0.58527  0.82486  1.0000
  S   S399      1.0  0.92016  0.54238  0.79974  1.0000
  H   H3193     1.0  0.91883  0.62331  0.98329  1.0000
  H   H3194     1.0  0.51663  0.58277  0.72788  1.0000
  H   H3195     1.0  0.54276  0.64172  0.89191  1.0000
  C   C1788     1.0  0.78582  0.60954  0.92873  1.0000
  H   H3196     1.0  0.45781  0.55532  0.88896  1.0000
  H   H3197     1.0  0.54130  0.56383  0.77398  1.0000
  H   H3198     1.0  0.52948  0.62810  0.96517  1.0000
  C   C1789     1.0  0.88709  0.44168  0.83218  1.0000
  C   C1790     1.0  0.67564  0.50550  0.97959  1.0000
  C   C1791     1.0  0.47968  0.49921  0.60526  1.0000
  C   C1792     1.0  0.65613  0.53172  0.01721  1.0000
  H   H3199     1.0  0.79070  0.63786  0.95094  1.0000
  Fe  Fe197     1.0  0.52184  0.53323  0.67437  1.0000
  H   H3200     1.0  0.81978  0.49518  0.61524  1.0000
  C   C1793     1.0  0.83775  0.63270  0.61884  1.0000
  H   H3201     1.0  0.87319  0.52885  0.80129  1.0000
  H   H3202     1.0  0.69576  0.49298  0.75897  1.0000
  H   H3203     1.0  0.43718  0.55843  0.86802  1.0000
  H   H3204     1.0  0.50997  0.61714  0.68892  1.0000
  Fe  Fe198     1.0  0.92715  0.55861  0.71308  1.0000
  H   H3205     1.0  0.44725  0.55007  0.79289  1.0000
  C   C1794     1.0  0.90954  0.65504  0.84472  1.0000
  H   H3206     1.0  0.81825  0.47068  0.73441  1.0000
  Fe  Fe199     1.0  0.82762  0.66706  0.74828  1.0000
  H   H3207     1.0  0.61955  0.65535  0.76011  1.0000
  H   H3208     1.0  0.47485  0.53722  0.57102  1.0000
  C   C1795     1.0  0.77486  0.43263  0.70566  1.0000
  H   H3209     1.0  0.62944  0.63763  0.57849  1.0000
  H   H3210     1.0  0.70490  0.65717  0.81740  1.0000
  H   H3211     1.0  0.77960  0.60928  0.75953  1.0000
  C   C1796     1.0  0.45298  0.53967  0.81661  1.0000
  C   C1797     1.0  0.65241  0.61415  0.53405  1.0000
  C   C1798     1.0  0.70421  0.65655  0.85584  1.0000
  H   H3212     1.0  0.46637  0.66133  0.95521  1.0000
  H   H3213     1.0  0.69460  0.51856  0.97104  1.0000
  H   H3214     1.0  0.79162  0.62682  0.63955  1.0000
  H   H3215     1.0  0.89204  0.47933  0.93421  1.0000
  H   H3216     1.0  0.68899  0.65755  0.87518  1.0000
  N   N100      1.0  0.45558  0.53106  0.52472  1.0000
  C   C1799     1.0  0.69647  0.56163  0.93490  1.0000
  H   H3217     1.0  0.49495  0.52004  0.94876  1.0000
  S   S400      1.0  0.78756  0.64807  0.79351  1.0000
  S   S401      1.0  0.66593  0.62003  0.00176  1.0000
  H   H3218     1.0  0.58654  0.55243  0.79795  1.0000
  H   H3219     1.0  0.57831  0.44501  0.75734  1.0000
  C   C1800     1.0  0.85904  0.65376  0.57008  1.0000
  H   H3220     1.0  0.74982  0.44132  0.01841  1.0000
  H   H3221     1.0  0.64868  0.48414  0.80524  1.0000
  H   H3222     1.0  0.44420  0.48783  0.61426  1.0000
  H   H3223     1.0  0.59314  0.59525  0.59336  1.0000
  Fe  Fe200     1.0  0.86268  0.43397  0.66254  1.0000
  H   H3224     1.0  0.85913  0.52808  0.89793  1.0000
  H   H3225     1.0  0.86951  0.61265  0.63051  1.0000
  H   H3226     1.0  0.76222  0.58581  0.87869  1.0000
  H   H3227     1.0  0.66109  0.63144  0.53709  1.0000
  C   C1801     1.0  0.74563  0.58994  0.63768  1.0000
  C   C1802     1.0  0.56937  0.58838  0.95252  1.0000
  H   H3228     1.0  0.54354  0.59706  0.94269  1.0000
  H   H3229     1.0  0.83655  0.46265  0.57325  1.0000
  C   C1803     1.0  0.79737  0.64670  0.61939  1.0000
  H   H3230     1.0  0.77049  0.43253  0.02107  1.0000
  C   C1804     1.0  0.86211  0.53246  0.78554  1.0000
  H   H3231     1.0  0.43961  0.48786  0.86412  1.0000
  H   H3232     1.0  0.76257  0.52485  0.93740  1.0000
  C   C1805     1.0  0.74318  0.65982  0.74689  1.0000
  H   H3233     1.0  0.64889  0.59865  0.57071  1.0000
  H   H3234     1.0  0.86640  0.57765  0.97465  1.0000
  H   H3235     1.0  0.66754  0.46121  0.80111  1.0000
  C   C1806     1.0  0.77709  0.66354  0.76001  1.0000
  C   C1807     1.0  0.50513  0.55813  0.90802  1.0000
  C   C1808     1.0  0.87116  0.52397  0.54709  1.0000
  S   S402      1.0  0.72170  0.62708  0.01629  1.0000
  H   H3236     1.0  0.63046  0.53861  0.82877  1.0000
  C   C1809     1.0  0.84417  0.62273  0.00004  1.0000
  H   H3237     1.0  0.79614  0.58501  0.78887  1.0000
  H   H3238     1.0  0.56835  0.57491  0.98807  1.0000
  H   H3239     1.0  0.89338  0.60909  0.93289  1.0000
  Fe  Fe201     1.0  0.54471  0.64292  0.78059  1.0000
  H   H3240     1.0  0.79910  0.54815  0.95557  1.0000
  H   H3241     1.0  0.90099  0.65343  0.61775  1.0000
  H   H3242     1.0  0.70292  0.55512  0.96329  1.0000
  C   C1810     1.0  0.72995  0.42403  0.58250  1.0000
  H   H3243     1.0  0.60141  0.49136  0.72223  1.0000
  H   H3244     1.0  0.73550  0.43017  0.82257  1.0000
  C   C1811     1.0  0.46336  0.50029  0.58025  1.0000
  H   H3245     1.0  0.85951  0.49744  0.65732  1.0000
  C   C1812     1.0  0.44861  0.63717  0.72832  1.0000
  H   H3246     1.0  0.63901  0.53700  0.94515  1.0000
  C   C1813     1.0  0.82923  0.51535  0.58362  1.0000
  H   H3247     1.0  0.72028  0.48976  0.00876  1.0000
  H   H3248     1.0  0.61931  0.60383  0.84655  1.0000
  H   H3249     1.0  0.91568  0.59172  0.82706  1.0000
  C   C1814     1.0  0.55880  0.54077  0.96114  1.0000
  H   H3250     1.0  0.89340  0.56943  0.81690  1.0000
  S   S403      1.0  0.46601  0.43988  0.76264  1.0000
  H   H3251     1.0  0.62919  0.64457  0.71706  1.0000
  H   H3252     1.0  0.58482  0.56482  0.87399  1.0000
  C   C1815     1.0  0.44294  0.44303  0.75781  1.0000
  C   C1816     1.0  0.65301  0.51811  0.68239  1.0000
  H   H3253     1.0  0.64667  0.59487  0.93570  1.0000
  H   H3254     1.0  0.46440  0.49216  0.55358  1.0000
  H   H3255     1.0  0.45246  0.52681  0.80142  1.0000
  H   H3256     1.0  0.83711  0.45320  0.86864  1.0000
  S   S404      1.0  0.71239  0.53043  0.79154  1.0000
  C   C1817     1.0  0.75017  0.52984  0.95230  1.0000
  N   N101      1.0  0.89305  0.50076  0.00215  1.0000
  H   H3257     1.0  0.72329  0.66305  0.92552  1.0000
  H   H3258     1.0  0.44432  0.46132  0.80479  1.0000
  C   C1818     1.0  0.77622  0.51742  0.52902  1.0000
  S   S405      1.0  0.73400  0.48481  0.81402  1.0000
  H   H3259     1.0  0.92572  0.53854  0.93926  1.0000
  H   H3260     1.0  0.47581  0.61012  0.77109  1.0000
  S   S406      1.0  0.51614  0.60513  0.85806  1.0000
  Fe  Fe202     1.0  0.55283  0.51465  0.69479  1.0000
  S   S407      1.0  0.74870  0.52028  0.68698  1.0000
  H   H3261     1.0  0.67680  0.55940  0.57638  1.0000
  C   C1819     1.0  0.88450  0.49902  0.68825  1.0000
  N   N102      1.0  0.75830  0.42411  0.89351  1.0000
  H   H3262     1.0  0.53276  0.56503  0.96128  1.0000
  H   H3263     1.0  0.60869  0.48415  0.85207  1.0000
  C   C1820     1.0  0.79953  0.59835  0.91197  1.0000
  H   H3264     1.0  0.82203  0.54444  0.72841  1.0000
  C   C1821     1.0  0.56029  0.66830  0.91736  1.0000
  C   C1822     1.0  0.70404  0.56410  0.73872  1.0000
  C   C1823     1.0  0.76471  0.44579  0.71199  1.0000
  H   H3265     1.0  0.92982  0.67323  0.64356  1.0000
  H   H3266     1.0  0.56814  0.51978  0.93007  1.0000
  C   C1824     1.0  0.83237  0.60647  0.57807  1.0000
  S   S408      1.0  0.90306  0.56435  0.68164  1.0000
  C   C1825     1.0  0.62011  0.61779  0.61131  1.0000
  C   C1826     1.0  0.47202  0.52808  0.54614  1.0000
  H   H3267     1.0  0.75887  0.66722  0.88607  1.0000
  S   S409      1.0  0.59092  0.52478  0.66488  1.0000
  H   H3268     1.0  0.52372  0.64899  0.92609  1.0000
  C   C1827     1.0  0.92693  0.65892  0.68137  1.0000
  H   H3269     1.0  0.73198  0.59681  0.94832  1.0000
  C   C1828     1.0  0.87664  0.50875  0.99484  1.0000
  H   H3270     1.0  0.60922  0.51000  0.89582  1.0000
  S   S410      1.0  0.70640  0.63368  0.69382  1.0000
  H   H3271     1.0  0.86286  0.43568  0.96167  1.0000
  H   H3272     1.0  0.56269  0.59922  0.86288  1.0000
  H   H3273     1.0  0.88352  0.57817  0.86485  1.0000
  H   H3274     1.0  0.86067  0.50293  0.57226  1.0000
  C   C1829     1.0  0.83306  0.54094  0.74457  1.0000
  C   C1830     1.0  0.82434  0.60926  0.62259  1.0000
  H   H3275     1.0  0.91506  0.53936  0.58867  1.0000
  C   C1831     1.0  0.62913  0.55776  0.67219  1.0000
  H   H3276     1.0  0.47213  0.62275  0.66404  1.0000
  H   H3277     1.0  0.69920  0.42541  0.61566  1.0000
  C   C1832     1.0  0.66450  0.57983  0.83684  1.0000
  H   H3278     1.0  0.58534  0.61394  0.77480  1.0000
  S   S411      1.0  0.58298  0.65599  0.73203  1.0000
  H   H3279     1.0  0.57994  0.60707  0.94950  1.0000
  H   H3280     1.0  0.79622  0.55846  0.86403  1.0000
  H   H3281     1.0  0.78406  0.61993  0.89441  1.0000
  H   H3282     1.0  0.92085  0.60243  0.71914  1.0000
  C   C1833     1.0  0.59916  0.61110  0.66125  1.0000
  S   S412      1.0  0.52288  0.48243  0.77999  1.0000
  C   C1834     1.0  0.45870  0.63607  0.87365  1.0000
  C   C1835     1.0  0.49758  0.56724  0.74152  1.0000
  H   H3283     1.0  0.65414  0.47048  0.73228  1.0000
  H   H3284     1.0  0.55431  0.66997  0.95369  1.0000
  H   H3285     1.0  0.56664  0.54183  0.52729  1.0000
  C   C1836     1.0  0.64186  0.60589  0.91066  1.0000
  H   H3286     1.0  0.79374  0.60917  0.83007  1.0000
  H   H3287     1.0  0.65407  0.61428  0.86656  1.0000
  C   C1837     1.0  0.66772  0.52042  0.94754  1.0000
  H   H3288     1.0  0.44088  0.63290  0.89425  1.0000
  C   C1838     1.0  0.58192  0.60768  0.85478  1.0000
  C   C1839     1.0  0.67061  0.56242  0.86555  1.0000
  Fe  Fe203     1.0  0.49742  0.47690  0.74467  1.0000
  C   C1840     1.0  0.86670  0.43959  0.99287  1.0000
  H   H3289     1.0  0.74202  0.60650  0.87751  1.0000
  C   C1841     1.0  0.92153  0.66796  0.86744  1.0000
  H   H3290     1.0  0.67499  0.59828  0.83446  1.0000
  C   C1842     1.0  0.82031  0.48024  0.75848  1.0000
  C   C1843     1.0  0.89183  0.46197  0.84009  1.0000
  H   H3291     1.0  0.82902  0.50672  0.86438  1.0000
  C   C1844     1.0  0.47286  0.62121  0.74016  1.0000
  H   H3292     1.0  0.88053  0.50893  0.91719  1.0000
  N   N103      1.0  0.58256  0.59003  0.90023  1.0000
  H   H3293     1.0  0.87774  0.48228  0.85787  1.0000
  H   H3294     1.0  0.64453  0.57091  0.85860  1.0000
  C   C1845     1.0  0.55157  0.51723  0.95670  1.0000
  H   H3295     1.0  0.65653  0.47268  0.97126  1.0000
  C   C1846     1.0  0.80429  0.57273  0.87583  1.0000
  C   C1847     1.0  0.51740  0.53926  0.86151  1.0000
  C   C1848     1.0  0.47277  0.53657  0.67893  1.0000
  H   H3296     1.0  0.66322  0.54616  0.85900  1.0000
  C   C1849     1.0  0.91994  0.44670  0.64553  1.0000
  H   H3297     1.0  0.83632  0.62533  0.97244  1.0000
  C   C1850     1.0  0.71932  0.43712  0.60008  1.0000
  H   H3298     1.0  0.90528  0.44038  0.68311  1.0000
  H   H3299     1.0  0.81281  0.65848  0.62478  1.0000
  C   C1851     1.0  0.72969  0.50739  0.01009  1.0000
  H   H3300     1.0  0.47277  0.45207  0.98842  1.0000
  H   H3301     1.0  0.53606  0.67313  0.55052  1.0000
  S   S413      1.0  0.59479  0.67197  0.58044  1.0000
  H   H3302     1.0  0.50022  0.46946  0.99230  1.0000
  Fe  Fe204     1.0  0.57986  0.67238  0.65746  1.0000
  H   H3303     1.0  0.45788  0.50402  0.01785  1.0000
  C   C1852     1.0  0.86610  0.65160  0.52398  1.0000
  C   C1853     1.0  0.48180  0.45108  0.01410  1.0000
  H   H3304     1.0  0.48421  0.43576  0.01917  1.0000
  H   H3305     1.0  0.87745  0.46250  0.52354  1.0000
  H   H3306     1.0  0.83581  0.48579  0.52392  1.0000
  H   H3307     1.0  0.55081  0.63367  0.02286  1.0000
  H   H3308     1.0  0.77141  0.45048  0.38098  1.0000
  H   H3309     1.0  0.45664  0.67047  0.28928  1.0000
  C   C1854     1.0  0.76680  0.43435  0.26705  1.0000
  N   N104      1.0  0.69956  0.56719  0.26574  1.0000
  C   C1855     1.0  0.66773  0.61483  0.31859  1.0000
  C   C1856     1.0  0.79138  0.46023  0.23807  1.0000
  H   H3310     1.0  0.86174  0.48203  0.18658  1.0000
  H   H3311     1.0  0.79028  0.47088  0.25865  1.0000
  H   H3312     1.0  0.83135  0.49830  0.07553  1.0000
  H   H3313     1.0  0.86283  0.46071  0.05558  1.0000
  H   H3314     1.0  0.80587  0.45772  0.23945  1.0000
  C   C1857     1.0  0.68823  0.43968  0.23596  1.0000
  H   H3315     1.0  0.85713  0.49240  0.02484  1.0000
  H   H3316     1.0  0.44849  0.44117  0.26052  1.0000
  C   C1858     1.0  0.55975  0.54898  0.36036  1.0000
  H   H3317     1.0  0.50796  0.61298  0.11729  1.0000
  C   C1859     1.0  0.62904  0.58284  0.33120  1.0000
  C   C1860     1.0  0.75225  0.48567  0.33816  1.0000
  S   S414      1.0  0.91468  0.57613  0.35396  1.0000
  H   H3318     1.0  0.86564  0.61091  0.05283  1.0000
  H   H3319     1.0  0.52406  0.54008  0.37260  1.0000
  H   H3320     1.0  0.92181  0.46978  0.16891  1.0000
  H   H3321     1.0  0.53144  0.54209  0.24533  1.0000
  H   H3322     1.0  0.92096  0.55803  0.05823  1.0000
  S   S415      1.0  0.48671  0.65668  0.23561  1.0000
  H   H3323     1.0  0.79530  0.61682  0.06853  1.0000
  H   H3324     1.0  0.50597  0.57817  0.45308  1.0000
  H   H3325     1.0  0.64585  0.51818  0.21502  1.0000
  H   H3326     1.0  0.76402  0.44907  0.46915  1.0000
  S   S416      1.0  0.86321  0.45735  0.38618  1.0000
  H   H3327     1.0  0.48661  0.50053  0.41168  1.0000
  H   H3328     1.0  0.46334  0.49730  0.10518  1.0000
  H   H3329     1.0  0.85015  0.46098  0.30011  1.0000
  S   S417      1.0  0.79388  0.53688  0.16872  1.0000
  C   C1861     1.0  0.50471  0.63003  0.26827  1.0000
  C   C1862     1.0  0.74250  0.47924  0.39300  1.0000
  H   H3330     1.0  0.52066  0.64789  0.25653  1.0000
  H   H3331     1.0  0.61775  0.51420  0.03452  1.0000
  C   C1863     1.0  0.56439  0.51413  0.09405  1.0000
  C   C1864     1.0  0.72012  0.59938  0.04238  1.0000
  C   C1865     1.0  0.72303  0.55258  0.30451  1.0000
  C   C1866     1.0  0.46368  0.58348  0.29844  1.0000
  C   C1867     1.0  0.55827  0.59229  0.19684  1.0000
  C   C1868     1.0  0.58062  0.53872  0.08236  1.0000
  H   H3332     1.0  0.62711  0.49274  0.12855  1.0000
  N   N105      1.0  0.44287  0.46047  0.11463  1.0000
  Fe  Fe205     1.0  0.47497  0.54387  0.25957  1.0000
  N   N106      1.0  0.88373  0.65350  0.15376  1.0000
  H   H3333     1.0  0.88301  0.47526  0.16162  1.0000
  H   H3334     1.0  0.75883  0.65783  0.44152  1.0000
  C   C1869     1.0  0.52842  0.57157  0.02840  1.0000
  C   C1870     1.0  0.83690  0.44184  0.33523  1.0000
  C   C1871     1.0  0.64742  0.65831  0.27825  1.0000
  C   C1872     1.0  0.49161  0.57656  0.44176  1.0000
  H   H3335     1.0  0.75058  0.48115  0.45767  1.0000
  C   C1873     1.0  0.75806  0.48580  0.41550  1.0000
  H   H3336     1.0  0.76552  0.55905  0.45741  1.0000
  H   H3337     1.0  0.70912  0.60490  0.24214  1.0000
  H   H3338     1.0  0.76279  0.50906  0.51564  1.0000
  C   C1874     1.0  0.76492  0.45409  0.10492  1.0000
  H   H3339     1.0  0.81077  0.61925  0.50886  1.0000
  H   H3340     1.0  0.88943  0.59412  0.11000  1.0000
  S   S418      1.0  0.90385  0.53261  0.28639  1.0000
  C   C1875     1.0  0.67236  0.61963  0.48287  1.0000
  C   C1876     1.0  0.53441  0.53193  0.36530  1.0000
  H   H3341     1.0  0.44928  0.50937  0.40706  1.0000
  C   C1877     1.0  0.55498  0.52576  0.29413  1.0000
  H   H3342     1.0  0.90979  0.52306  0.03581  1.0000
  C   C1878     1.0  0.87211  0.63972  0.25660  1.0000
  H   H3343     1.0  0.48152  0.48341  0.05584  1.0000
  H   H3344     1.0  0.85894  0.53950  0.05826  1.0000
  H   H3345     1.0  0.54174  0.59208  0.21132  1.0000
  H   H3346     1.0  0.90903  0.45971  0.35158  1.0000
  H   H3347     1.0  0.79662  0.47141  0.19454  1.0000
  H   H3348     1.0  0.89844  0.42610  0.23798  1.0000
  H   H3349     1.0  0.87910  0.55177  0.08442  1.0000
  H   H3350     1.0  0.79658  0.45015  0.34698  1.0000
  H   H3351     1.0  0.67104  0.56877  0.42879  1.0000
  H   H3352     1.0  0.93459  0.53013  0.39189  1.0000
  H   H3353     1.0  0.76918  0.42398  0.24686  1.0000
  C   C1879     1.0  0.75150  0.42532  0.02859  1.0000
  H   H3354     1.0  0.79389  0.65739  0.17909  1.0000
  C   C1880     1.0  0.78853  0.44252  0.42962  1.0000
  H   H3355     1.0  0.92587  0.64807  0.48016  1.0000
  H   H3356     1.0  0.43708  0.62633  0.35790  1.0000
  C   C1881     1.0  0.46338  0.60490  0.28360  1.0000
  C   C1882     1.0  0.79489  0.55997  0.34485  1.0000
  H   H3357     1.0  0.86639  0.57629  0.38043  1.0000
  H   H3358     1.0  0.81238  0.51391  0.30423  1.0000
  H   H3359     1.0  0.57531  0.56773  0.40100  1.0000
  C   C1883     1.0  0.77641  0.48029  0.08153  1.0000
  C   C1884     1.0  0.85942  0.56884  0.07249  1.0000
  H   H3360     1.0  0.82235  0.60683  0.41549  1.0000
  H   H3361     1.0  0.46813  0.60482  0.14040  1.0000
  C   C1885     1.0  0.45307  0.65779  0.13537  1.0000
  C   C1886     1.0  0.83954  0.43489  0.38209  1.0000
  N   N107      1.0  0.45896  0.64324  0.11278  1.0000
  S   S419      1.0  0.44637  0.54377  0.23847  1.0000
  S   S420      1.0  0.78495  0.56337  0.06988  1.0000
  C   C1887     1.0  0.78038  0.44076  0.38701  1.0000
  H   H3362     1.0  0.46271  0.46625  0.36895  1.0000
  C   C1888     1.0  0.92713  0.47781  0.31940  1.0000
  C   C1889     1.0  0.74652  0.43738  0.26290  1.0000
  Fe  Fe206     1.0  0.72521  0.65324  0.28986  1.0000
  H   H3363     1.0  0.72389  0.63987  0.15129  1.0000
  H   H3364     1.0  0.67333  0.66639  0.32569  1.0000
  H   H3365     1.0  0.44803  0.42697  0.09094  1.0000
  H   H3366     1.0  0.80405  0.46256  0.41134  1.0000
  C   C1890     1.0  0.93299  0.56299  0.07555  1.0000
  H   H3367     1.0  0.87613  0.61032  0.29852  1.0000
  C   C1891     1.0  0.92696  0.48288  0.18481  1.0000
  C   C1892     1.0  0.51043  0.50173  0.34201  1.0000
  H   H3368     1.0  0.69463  0.45537  0.24459  1.0000
  H   H3369     1.0  0.58397  0.57076  0.08594  1.0000
  H   H3370     1.0  0.52273  0.64644  0.09087  1.0000
  H   H3371     1.0  0.91608  0.49927  0.34422  1.0000
  S   S421      1.0  0.71460  0.52653  0.10960  1.0000
  H   H3372     1.0  0.51698  0.61585  0.37402  1.0000
  C   C1893     1.0  0.53903  0.50183  0.12237  1.0000
  C   C1894     1.0  0.48434  0.62496  0.11236  1.0000
  H   H3373     1.0  0.88035  0.43707  0.22632  1.0000
  S   S422      1.0  0.62131  0.57707  0.24976  1.0000
  S   S423      1.0  0.61208  0.55241  0.05179  1.0000
  C   C1895     1.0  0.64297  0.59432  0.35301  1.0000
  H   H3374     1.0  0.92086  0.43511  0.33170  1.0000
  H   H3375     1.0  0.71035  0.63271  0.44750  1.0000
  H   H3376     1.0  0.64309  0.64004  0.30781  1.0000
  H   H3377     1.0  0.73730  0.58074  0.22155  1.0000
  H   H3378     1.0  0.63517  0.67134  0.42522  1.0000
  H   H3379     1.0  0.80491  0.46982  0.49057  1.0000
  C   C1896     1.0  0.65976  0.52008  0.22823  1.0000
  H   H3380     1.0  0.90651  0.43371  0.04846  1.0000
  H   H3381     1.0  0.79238  0.58398  0.39459  1.0000
  H   H3382     1.0  0.67442  0.53598  0.35039  1.0000
  C   C1897     1.0  0.77749  0.44389  0.11744  1.0000
  H   H3383     1.0  0.78817  0.62295  0.49758  1.0000
  H   H3384     1.0  0.81138  0.45204  0.11531  1.0000
  H   H3385     1.0  0.68954  0.44714  0.19487  1.0000
  C   C1898     1.0  0.61743  0.65281  0.44321  1.0000
  Fe  Fe207     1.0  0.63222  0.58191  0.07100  1.0000
  H   H3386     1.0  0.48965  0.62967  0.06937  1.0000
  C   C1899     1.0  0.61782  0.49977  0.11058  1.0000
  H   H3387     1.0  0.68562  0.52951  0.27927  1.0000
  H   H3388     1.0  0.71666  0.53647  0.29738  1.0000
  H   H3389     1.0  0.55466  0.64119  0.48332  1.0000
  S   S424      1.0  0.80860  0.59902  0.15071  1.0000
  C   C1900     1.0  0.93027  0.61079  0.24925  1.0000
  Fe  Fe208     1.0  0.75313  0.50851  0.22048  1.0000
  Fe  Fe209     1.0  0.77186  0.65976  0.28565  1.0000
  H   H3390     1.0  0.79476  0.57624  0.32158  1.0000
  H   H3391     1.0  0.44731  0.60337  0.28377  1.0000
  H   H3392     1.0  0.84216  0.53019  0.17565  1.0000
  C   C1901     1.0  0.62862  0.50882  0.04936  1.0000
  H   H3393     1.0  0.90106  0.52951  0.44743  1.0000
  C   C1902     1.0  0.84118  0.58086  0.20561  1.0000
  Fe  Fe210     1.0  0.86826  0.49470  0.35007  1.0000
  H   H3394     1.0  0.90585  0.49349  0.06082  1.0000
  H   H3395     1.0  0.88457  0.45555  0.28061  1.0000
  H   H3396     1.0  0.84963  0.42589  0.03335  1.0000
  H   H3397     1.0  0.47085  0.63250  0.41950  1.0000
  C   C1903     1.0  0.50491  0.60865  0.28384  1.0000
  Fe  Fe211     1.0  0.48350  0.51784  0.19901  1.0000
  C   C1904     1.0  0.63358  0.63045  0.48892  1.0000
  C   C1905     1.0  0.91698  0.53519  0.45483  1.0000
  C   C1906     1.0  0.80049  0.49624  0.07041  1.0000
  H   H3398     1.0  0.46203  0.47426  0.02788  1.0000
  C   C1907     1.0  0.45330  0.52633  0.04933  1.0000
  C   C1908     1.0  0.81441  0.66536  0.31443  1.0000
  C   C1909     1.0  0.67852  0.62408  0.26220  1.0000
  C   C1910     1.0  0.89691  0.50272  0.04901  1.0000
  C   C1911     1.0  0.72179  0.60542  0.16761  1.0000
  H   H3399     1.0  0.47507  0.63833  0.16543  1.0000
  H   H3400     1.0  0.57515  0.57623  0.22839  1.0000
  H   H3401     1.0  0.86670  0.50285  0.09565  1.0000
  C   C1912     1.0  0.57914  0.52066  0.22375  1.0000
  H   H3402     1.0  0.53488  0.66377  0.48269  1.0000
  H   H3403     1.0  0.67627  0.63462  0.44475  1.0000
  H   H3404     1.0  0.81504  0.42953  0.29764  1.0000
  C   C1913     1.0  0.72161  0.62745  0.13378  1.0000
  S   S425      1.0  0.89519  0.55419  0.15805  1.0000
  C   C1914     1.0  0.81307  0.48606  0.08261  1.0000
  H   H3405     1.0  0.89789  0.64105  0.28614  1.0000
  H   H3406     1.0  0.44315  0.43160  0.17268  1.0000
  C   C1915     1.0  0.46400  0.47049  0.40170  1.0000
  S   S426      1.0  0.75045  0.67295  0.31802  1.0000
  S   S427      1.0  0.86635  0.42449  0.13504  1.0000
  H   H3407     1.0  0.72304  0.46970  0.41764  1.0000
  S   S428      1.0  0.59030  0.67230  0.19524  1.0000
  C   C1916     1.0  0.69629  0.62845  0.48511  1.0000
  H   H3408     1.0  0.43937  0.59936  0.21402  1.0000
  C   C1917     1.0  0.45417  0.57894  0.07400  1.0000
  C   C1918     1.0  0.55777  0.65492  0.44431  1.0000
  C   C1919     1.0  0.79292  0.50428  0.32904  1.0000
  H   H3409     1.0  0.84324  0.50852  0.15588  1.0000
  C   C1920     1.0  0.70415  0.43007  0.23627  1.0000
  H   H3410     1.0  0.43871  0.63940  0.42314  1.0000
  H   H3411     1.0  0.59793  0.48404  0.13255  1.0000
  H   H3412     1.0  0.61806  0.64634  0.41330  1.0000
  S   S429      1.0  0.45889  0.50302  0.28633  1.0000
  H   H3413     1.0  0.85924  0.62611  0.49308  1.0000
  H   H3414     1.0  0.77954  0.59526  0.46088  1.0000
  H   H3415     1.0  0.46467  0.46300  0.15577  1.0000
  C   C1921     1.0  0.61747  0.65762  0.15406  1.0000
  H   H3416     1.0  0.47215  0.52685  0.45842  1.0000
  H   H3417     1.0  0.85810  0.62845  0.13693  1.0000
  C   C1922     1.0  0.89533  0.44760  0.27789  1.0000
  H   H3418     1.0  0.69058  0.58955  0.32919  1.0000
  N   N108      1.0  0.44116  0.67023  0.36393  1.0000
  H   H3419     1.0  0.90957  0.64761  0.11375  1.0000
  H   H3420     1.0  0.81028  0.44776  0.48507  1.0000
  H   H3421     1.0  0.74755  0.45168  0.27382  1.0000
  C   C1923     1.0  0.60870  0.67225  0.14208  1.0000
  H   H3422     1.0  0.47152  0.64419  0.03631  1.0000
  S   S430      1.0  0.50212  0.55883  0.17382  1.0000
  H   H3423     1.0  0.74623  0.44172  0.11388  1.0000
  H   H3424     1.0  0.45450  0.66813  0.42251  1.0000
  H   H3425     1.0  0.89049  0.43641  0.32110  1.0000
  H   H3426     1.0  0.93564  0.57253  0.18021  1.0000
  Fe  Fe212     1.0  0.83930  0.51706  0.35816  1.0000
  Fe  Fe213     1.0  0.89194  0.54794  0.33513  1.0000
  C   C1924     1.0  0.46793  0.65557  0.05182  1.0000
  H   H3427     1.0  0.92681  0.62635  0.10217  1.0000
  H   H3428     1.0  0.47630  0.66003  0.33098  1.0000
  H   H3429     1.0  0.54490  0.53838  0.44646  1.0000
  H   H3430     1.0  0.45395  0.54591  0.41928  1.0000
  H   H3431     1.0  0.86144  0.60061  0.23772  1.0000
  C   C1925     1.0  0.45180  0.66037  0.39531  1.0000
  C   C1926     1.0  0.46360  0.46719  0.06521  1.0000
  H   H3432     1.0  0.93340  0.61030  0.07095  1.0000
  S   S431      1.0  0.48704  0.56026  0.30927  1.0000
  C   C1927     1.0  0.92863  0.48748  0.26237  1.0000
  H   H3433     1.0  0.93068  0.55611  0.42844  1.0000
  H   H3434     1.0  0.50165  0.62352  0.16392  1.0000
  H   H3435     1.0  0.63755  0.66387  0.30081  1.0000
  C   C1928     1.0  0.87843  0.48901  0.15031  1.0000
  C   C1929     1.0  0.86126  0.54634  0.08694  1.0000
  H   H3436     1.0  0.91949  0.43446  0.41967  1.0000
  H   H3437     1.0  0.87907  0.46063  0.46357  1.0000
  H   H3438     1.0  0.78459  0.66163  0.48695  1.0000
  H   H3439     1.0  0.45306  0.56144  0.48209  1.0000
  H   H3440     1.0  0.48373  0.51088  0.35132  1.0000
  H   H3441     1.0  0.76254  0.42393  0.31006  1.0000
  C   C1930     1.0  0.48447  0.65352  0.39687  1.0000
  C   C1931     1.0  0.85980  0.67128  0.18301  1.0000
  H   H3442     1.0  0.84981  0.58942  0.44113  1.0000
  C   C1932     1.0  0.63967  0.59222  0.27470  1.0000
  H   H3443     1.0  0.73224  0.59074  0.26853  1.0000
  H   H3444     1.0  0.84491  0.54348  0.43619  1.0000
  C   C1933     1.0  0.70284  0.59091  0.22892  1.0000
  H   H3445     1.0  0.63466  0.58708  0.39665  1.0000
  C   C1934     1.0  0.69130  0.54815  0.24755  1.0000
  C   C1935     1.0  0.78367  0.56459  0.42942  1.0000
  H   H3446     1.0  0.57879  0.63766  0.08816  1.0000
  H   H3447     1.0  0.49215  0.56953  0.41294  1.0000
  Fe  Fe214     1.0  0.74485  0.53256  0.12861  1.0000
  H   H3448     1.0  0.78481  0.50205  0.26493  1.0000
  H   H3449     1.0  0.93131  0.49017  0.37722  1.0000
  H   H3450     1.0  0.57479  0.61208  0.17659  1.0000
  H   H3451     1.0  0.76174  0.56921  0.25624  1.0000
  Fe  Fe215     1.0  0.78910  0.53197  0.10036  1.0000
  H   H3452     1.0  0.46504  0.45644  0.43093  1.0000
  S   S432      1.0  0.87204  0.55674  0.29305  1.0000
  H   H3453     1.0  0.57645  0.50430  0.25635  1.0000
  C   C1936     1.0  0.78996  0.64381  0.07971  1.0000
  C   C1937     1.0  0.44130  0.52597  0.45427  1.0000
  H   H3454     1.0  0.83105  0.58250  0.38411  1.0000
  H   H3455     1.0  0.76673  0.48819  0.07174  1.0000
  C   C1938     1.0  0.46603  0.55892  0.49396  1.0000
  S   S433      1.0  0.45584  0.51629  0.17362  1.0000
  H   H3456     1.0  0.89169  0.46663  0.02834  1.0000
  C   C1939     1.0  0.71697  0.55468  0.08495  1.0000
  H   H3457     1.0  0.89866  0.62532  0.06416  1.0000
  H   H3458     1.0  0.70337  0.57413  0.35542  1.0000
  C   C1940     1.0  0.66440  0.61293  0.24019  1.0000
  H   H3459     1.0  0.61272  0.64628  0.19605  1.0000
  H   H3460     1.0  0.74762  0.54621  0.32769  1.0000
  C   C1941     1.0  0.83825  0.56954  0.45070  1.0000
  H   H3461     1.0  0.66207  0.53840  0.43613  1.0000
  C   C1942     1.0  0.44575  0.48457  0.10707  1.0000
  S   S434      1.0  0.65049  0.57589  0.12063  1.0000
  H   H3462     1.0  0.75897  0.53773  0.41346  1.0000
  H   H3463     1.0  0.55349  0.51022  0.32638  1.0000
  H   H3464     1.0  0.61990  0.51550  0.11700  1.0000
  H   H3465     1.0  0.70672  0.43490  0.30349  1.0000
  S   S435      1.0  0.85857  0.50937  0.40301  1.0000
  H   H3466     1.0  0.87967  0.60843  0.17090  1.0000
  S   S436      1.0  0.68466  0.62817  0.34764  1.0000
  H   H3467     1.0  0.56818  0.53860  0.36558  1.0000
  C   C1943     1.0  0.55704  0.55583  0.40492  1.0000
  H   H3468     1.0  0.64899  0.55368  0.40883  1.0000
  C   C1944     1.0  0.90315  0.61153  0.06893  1.0000
  C   C1945     1.0  0.87340  0.49088  0.10232  1.0000
  H   H3469     1.0  0.69336  0.61336  0.52146  1.0000
  H   H3470     1.0  0.78819  0.54641  0.33060  1.0000
  H   H3471     1.0  0.70343  0.64594  0.48736  1.0000
  H   H3472     1.0  0.59440  0.61494  0.51286  1.0000
  H   H3473     1.0  0.44938  0.65009  0.17855  1.0000
  C   C1946     1.0  0.82025  0.56651  0.42730  1.0000
  C   C1947     1.0  0.86145  0.62784  0.17213  1.0000
  H   H3474     1.0  0.70417  0.62005  0.13232  1.0000
  S   S437      1.0  0.61771  0.59763  0.11406  1.0000
  H   H3475     1.0  0.85830  0.47149  0.11537  1.0000
  H   H3476     1.0  0.89786  0.65834  0.07274  1.0000
  H   H3477     1.0  0.78576  0.64841  0.04670  1.0000
  C   C1948     1.0  0.72379  0.57418  0.26315  1.0000
  C   C1949     1.0  0.78911  0.65492  0.11162  1.0000
  H   H3478     1.0  0.54929  0.56691  0.40043  1.0000
  H   H3479     1.0  0.67273  0.62011  0.19674  1.0000
  H   H3480     1.0  0.84199  0.56212  0.07147  1.0000
  S   S438      1.0  0.49802  0.49715  0.17706  1.0000
  H   H3481     1.0  0.85875  0.67202  0.41727  1.0000
  H   H3482     1.0  0.84415  0.46688  0.50590  1.0000
  C   C1950     1.0  0.48432  0.62847  0.26622  1.0000
  Fe  Fe216     1.0  0.63887  0.59476  0.15819  1.0000
  H   H3483     1.0  0.44703  0.46835  0.42435  1.0000
  C   C1951     1.0  0.69933  0.57642  0.05693  1.0000
  C   C1952     1.0  0.92858  0.43515  0.29389  1.0000
  H   H3484     1.0  0.68497  0.58660  0.23229  1.0000
  H   H3485     1.0  0.89370  0.50790  0.13965  1.0000
  C   C1953     1.0  0.66977  0.54308  0.23528  1.0000
  C   C1954     1.0  0.45373  0.52018  0.48790  1.0000
  C   C1955     1.0  0.68008  0.55540  0.32335  1.0000
  H   H3486     1.0  0.48510  0.60297  0.39669  1.0000
  H   H3487     1.0  0.71799  0.59286  0.15056  1.0000
  S   S439      1.0  0.74599  0.53793  0.19876  1.0000
  C   C1956     1.0  0.53477  0.54727  0.27588  1.0000
  H   H3488     1.0  0.54435  0.64413  0.43317  1.0000
  H   H3489     1.0  0.59796  0.55365  0.48730  1.0000
  C   C1957     1.0  0.56229  0.63341  0.08368  1.0000
  S   S440      1.0  0.81454  0.52868  0.04436  1.0000
  C   C1958     1.0  0.93115  0.49702  0.33776  1.0000
  H   H3490     1.0  0.50260  0.65846  0.37096  1.0000
  Fe  Fe217     1.0  0.47256  0.55622  0.15378  1.0000
  H   H3491     1.0  0.49675  0.66239  0.09623  1.0000
  H   H3492     1.0  0.81625  0.63563  0.43962  1.0000
  H   H3493     1.0  0.93123  0.62325  0.35143  1.0000
  C   C1959     1.0  0.78326  0.49830  0.38345  1.0000
  H   H3494     1.0  0.70682  0.55402  0.21001  1.0000
  H   H3495     1.0  0.74048  0.61351  0.16243  1.0000
  S   S441      1.0  0.48165  0.58462  0.07118  1.0000
  H   H3496     1.0  0.44310  0.49909  0.51280  1.0000
  H   H3497     1.0  0.68150  0.53628  0.09047  1.0000
  C   C1960     1.0  0.43842  0.66080  0.32490  1.0000
  H   H3498     1.0  0.84193  0.58383  0.16575  1.0000
  H   H3499     1.0  0.44540  0.66993  0.04658  1.0000
  H   H3500     1.0  0.67474  0.52237  0.19655  1.0000
  H   H3501     1.0  0.56095  0.53813  0.20974  1.0000
  H   H3502     1.0  0.81940  0.59183  0.48096  1.0000
  H   H3503     1.0  0.69770  0.63987  0.23553  1.0000
  C   C1961     1.0  0.74851  0.56207  0.29851  1.0000
  C   C1962     1.0  0.92506  0.56323  0.12405  1.0000
  C   C1963     1.0  0.80076  0.63195  0.16528  1.0000
  Fe  Fe218     1.0  0.78657  0.56591  0.14293  1.0000
  H   H3504     1.0  0.57280  0.56694  0.32012  1.0000
  H   H3505     1.0  0.47213  0.53722  0.04347  1.0000
  C   C1964     1.0  0.48643  0.49758  0.37701  1.0000
  H   H3506     1.0  0.68364  0.67283  0.22176  1.0000
  H   H3507     1.0  0.93658  0.45132  0.47990  1.0000
  C   C1965     1.0  0.68689  0.57082  0.35204  1.0000
  C   C1966     1.0  0.85549  0.56357  0.42576  1.0000
  H   H3508     1.0  0.77849  0.53032  0.42818  1.0000
  H   H3509     1.0  0.64057  0.65517  0.24953  1.0000
  N   N109      1.0  0.53415  0.52726  0.31863  1.0000
  H   H3510     1.0  0.72310  0.44594  0.20271  1.0000
  H   H3511     1.0  0.82281  0.51685  0.14816  1.0000
  N   N110      1.0  0.79866  0.56561  0.45859  1.0000
  C   C1967     1.0  0.52985  0.51417  0.13867  1.0000
  C   C1968     1.0  0.63783  0.67152  0.05764  1.0000
  H   H3512     1.0  0.63796  0.64517  0.12163  1.0000
  H   H3513     1.0  0.87123  0.65404  0.26419  1.0000
  H   H3514     1.0  0.59651  0.53852  0.21075  1.0000
  H   H3515     1.0  0.53904  0.54883  0.13707  1.0000
  H   H3516     1.0  0.48596  0.65981  0.42679  1.0000
  H   H3517     1.0  0.66533  0.52617  0.03848  1.0000
  H   H3518     1.0  0.62600  0.49244  0.04548  1.0000
  H   H3519     1.0  0.65689  0.54718  0.02308  1.0000
  H   H3520     1.0  0.75522  0.61765  0.03893  1.0000
  C   C1969     1.0  0.79443  0.64886  0.15446  1.0000
  C   C1970     1.0  0.57148  0.55146  0.09665  1.0000
  C   C1971     1.0  0.73933  0.59998  0.04935  1.0000
  H   H3521     1.0  0.68479  0.57602  0.05025  1.0000
  H   H3522     1.0  0.91667  0.49410  0.26292  1.0000
  H   H3523     1.0  0.60265  0.65556  0.45124  1.0000
  H   H3524     1.0  0.57139  0.50428  0.08272  1.0000
  C   C1972     1.0  0.50548  0.62719  0.12185  1.0000
  H   H3525     1.0  0.90179  0.64391  0.19628  1.0000
  H   H3526     1.0  0.73710  0.63920  0.09121  1.0000
  C   C1973     1.0  0.87860  0.62757  0.29757  1.0000
  C   C1974     1.0  0.80208  0.61965  0.48234  1.0000
  H   H3527     1.0  0.84430  0.62301  0.20239  1.0000
  H   H3528     1.0  0.73733  0.50454  0.03825  1.0000
  Fe  Fe219     1.0  0.88200  0.53921  0.24791  1.0000
  H   H3529     1.0  0.58079  0.51828  0.18777  1.0000
  C   C1975     1.0  0.47692  0.66657  0.36043  1.0000
  C   C1976     1.0  0.44543  0.50041  0.05648  1.0000
  C   C1977     1.0  0.73758  0.57750  0.07159  1.0000
  H   H3530     1.0  0.66310  0.55261  0.32342  1.0000
  C   C1978     1.0  0.80160  0.45987  0.10604  1.0000
  H   H3531     1.0  0.51077  0.48609  0.36812  1.0000
  H   H3532     1.0  0.79257  0.51825  0.50860  1.0000
  C   C1979     1.0  0.77739  0.49792  0.30649  1.0000
  S   S442      1.0  0.78487  0.64081  0.33374  1.0000
  H   H3533     1.0  0.85622  0.57156  0.10802  1.0000
  C   C1980     1.0  0.76750  0.43446  0.48254  1.0000
  H   H3534     1.0  0.55884  0.58627  0.16616  1.0000
  C   C1981     1.0  0.92732  0.60657  0.30113  1.0000
  H   H3535     1.0  0.88255  0.66784  0.48596  1.0000
  C   C1982     1.0  0.79530  0.62597  0.09207  1.0000
  C   C1983     1.0  0.77805  0.54639  0.40668  1.0000
  C   C1984     1.0  0.55812  0.57486  0.24503  1.0000
  S   S443      1.0  0.80236  0.50582  0.41234  1.0000
  S   S444      1.0  0.73287  0.47852  0.30960  1.0000
  C   C1985     1.0  0.88492  0.42903  0.25753  1.0000
  C   C1986     1.0  0.93355  0.62647  0.31131  1.0000
  H   H3536     1.0  0.66651  0.60223  0.48062  1.0000
  C   C1987     1.0  0.92924  0.52364  0.43582  1.0000
  H   H3537     1.0  0.82589  0.64169  0.34254  1.0000
  H   H3538     1.0  0.55844  0.58242  0.27299  1.0000
  C   C1988     1.0  0.78285  0.54390  0.51776  1.0000
  H   H3539     1.0  0.67607  0.55973  0.19661  1.0000
  H   H3540     1.0  0.73708  0.43136  0.36271  1.0000
  H   H3541     1.0  0.64033  0.63121  0.44923  1.0000
  C   C1989     1.0  0.55748  0.52192  0.24444  1.0000
  H   H3542     1.0  0.79522  0.43064  0.43783  1.0000
  C   C1990     1.0  0.49849  0.60339  0.41076  1.0000
  H   H3543     1.0  0.50995  0.56690  0.03752  1.0000
  H   H3544     1.0  0.92590  0.59558  0.24093  1.0000
  C   C1991     1.0  0.84111  0.52416  0.14523  1.0000
  H   H3545     1.0  0.54740  0.61279  0.11162  1.0000
  S   S445      1.0  0.67320  0.63394  0.09519  1.0000
  H   H3546     1.0  0.61003  0.56664  0.35813  1.0000
  S   S446      1.0  0.74513  0.63778  0.26311  1.0000
  H   H3547     1.0  0.81426  0.54946  0.42383  1.0000
  H   H3548     1.0  0.81398  0.56680  0.33519  1.0000
  C   C1992     1.0  0.48472  0.58557  0.29722  1.0000
  H   H3549     1.0  0.84218  0.56468  0.22406  1.0000
  H   H3550     1.0  0.53777  0.58667  0.03727  1.0000
  H   H3551     1.0  0.90895  0.45618  0.47667  1.0000
  H   H3552     1.0  0.49882  0.61167  0.43739  1.0000
  H   H3553     1.0  0.71057  0.54523  0.34758  1.0000
  C   C1993     1.0  0.80889  0.59028  0.45831  1.0000
  C   C1994     1.0  0.89202  0.65301  0.19619  1.0000
  H   H3554     1.0  0.57658  0.66466  0.41108  1.0000
  C   C1995     1.0  0.80098  0.62033  0.13450  1.0000
  H   H3555     1.0  0.75534  0.57766  0.30739  1.0000
  C   C1996     1.0  0.92799  0.62335  0.06713  1.0000
  H   H3556     1.0  0.52116  0.61033  0.28319  1.0000
  S   S447      1.0  0.84705  0.50024  0.30866  1.0000
  H   H3557     1.0  0.86692  0.62252  0.33914  1.0000
  H   H3558     1.0  0.75213  0.44664  0.21845  1.0000
  C   C1997     1.0  0.91079  0.56508  0.50229  1.0000
  C   C1998     1.0  0.83142  0.66094  0.32114  1.0000
  S   S448      1.0  0.74886  0.50092  0.15440  1.0000
  C   C1999     1.0  0.63173  0.65696  0.11195  1.0000
  H   H3559     1.0  0.50822  0.49854  0.30854  1.0000
  H   H3560     1.0  0.84333  0.65161  0.21389  1.0000
  H   H3561     1.0  0.65097  0.50240  0.26762  1.0000
  H   H3562     1.0  0.85339  0.62495  0.26719  1.0000
  C   C2000     1.0  0.69776  0.55409  0.07823  1.0000
  H   H3563     1.0  0.52649  0.48254  0.13263  1.0000
  H   H3564     1.0  0.55615  0.64406  0.09598  1.0000
  C   C2001     1.0  0.90419  0.66062  0.10284  1.0000
  C   C2002     1.0  0.47905  0.64311  0.12273  1.0000
  H   H3565     1.0  0.49066  0.53834  0.51153  1.0000
  H   H3566     1.0  0.54082  0.50404  0.25526  1.0000
  H   H3567     1.0  0.65433  0.53937  0.26872  1.0000
  C   C2003     1.0  0.86251  0.60487  0.19720  1.0000
  H   H3568     1.0  0.82334  0.57585  0.23329  1.0000
  C   C2004     1.0  0.66589  0.55693  0.41004  1.0000
  H   H3569     1.0  0.86847  0.56653  0.44226  1.0000
  H   H3570     1.0  0.52460  0.51358  0.40437  1.0000
  N   N111      1.0  0.92243  0.46898  0.24244  1.0000
  H   H3571     1.0  0.90926  0.56916  0.46411  1.0000
  H   H3572     1.0  0.75223  0.57790  0.07792  1.0000
  H   H3573     1.0  0.52599  0.55412  0.05580  1.0000
  C   C2005     1.0  0.87417  0.44970  0.50693  1.0000
  H   H3574     1.0  0.90249  0.57283  0.52131  1.0000
  H   H3575     1.0  0.82833  0.55672  0.49589  1.0000
  H   H3576     1.0  0.57287  0.54327  0.27946  1.0000
  H   H3577     1.0  0.91506  0.48952  0.18499  1.0000
  H   H3578     1.0  0.80499  0.62748  0.19835  1.0000
  C   C2006     1.0  0.54607  0.53916  0.12503  1.0000
  C   C2007     1.0  0.78967  0.59449  0.48394  1.0000
  H   H3579     1.0  0.51941  0.54801  0.29507  1.0000
  Fe  Fe220     1.0  0.65307  0.63550  0.04809  1.0000
  Fe  Fe221     1.0  0.68332  0.61538  0.05388  1.0000
  C   C2008     1.0  0.45022  0.65874  0.03310  1.0000
  H   H3580     1.0  0.44771  0.56542  0.31056  1.0000
  H   H3581     1.0  0.91655  0.50257  0.46018  1.0000
  H   H3582     1.0  0.44066  0.52419  0.08558  1.0000
  H   H3583     1.0  0.64888  0.64839  0.48213  1.0000
  C   C2009     1.0  0.61208  0.63297  0.49705  1.0000
  H   H3584     1.0  0.63153  0.59102  0.48392  1.0000
  C   C2010     1.0  0.79846  0.44974  0.51388  1.0000
  C   C2011     1.0  0.45282  0.59353  0.03052  1.0000
  H   H3585     1.0  0.66872  0.42402  0.26724  1.0000
  C   C2012     1.0  0.81719  0.42396  0.33356  1.0000
  C   C2013     1.0  0.90857  0.52613  0.51644  1.0000
  H   H3586     1.0  0.43893  0.60605  0.12190  1.0000
  H   H3587     1.0  0.87204  0.52800  0.50657  1.0000
  C   C2014     1.0  0.89006  0.44019  0.51014  1.0000
  H   H3588     1.0  0.82950  0.61204  0.04286  1.0000
  H   H3589     1.0  0.59462  0.58729  0.49284  1.0000
  H   H3590     1.0  0.87261  0.67257  0.10551  1.0000
  C   C2015     1.0  0.87861  0.67306  0.13688  1.0000
  H   H3591     1.0  0.90601  0.67271  0.18460  1.0000
  C   C2016     1.0  0.46620  0.44544  0.07040  1.0000
  H   H3592     1.0  0.47539  0.44340  0.09530  1.0000
  H   H3593     1.0  0.82243  0.67047  0.45071  1.0000
  C   C2017     1.0  0.44567  0.44982  0.16415  1.0000
  H   H3594     1.0  0.90992  0.59265  0.02884  1.0000
  H   H3595     1.0  0.71594  0.51069  0.02660  1.0000
  H   H3596     1.0  0.46800  0.56693  0.52096  1.0000
  H   H3597     1.0  0.66313  0.49465  0.02451  1.0000
  C   C2018     1.0  0.56823  0.64070  0.02453  1.0000
  H   H3598     1.0  0.92457  0.52984  0.52296  1.0000
  H   H3599     1.0  0.67421  0.73638  0.98521  1.0000
  H   H3600     1.0  0.46946  0.69205  0.81039  1.0000
  C   C2019     1.0  0.69061  0.89773  0.58876  1.0000
  H   H3601     1.0  0.84990  0.72748  0.72483  1.0000
  H   H3602     1.0  0.47165  0.86263  0.65591  1.0000
  H   H3603     1.0  0.74299  0.67640  0.82673  1.0000
  H   H3604     1.0  0.88048  0.78877  0.53132  1.0000
  H   H3605     1.0  0.74920  0.80586  0.61856  1.0000
  C   C2020     1.0  0.62674  0.83331  0.99130  1.0000
  C   C2021     1.0  0.72073  0.76263  0.58227  1.0000
  H   H3606     1.0  0.82737  0.82374  0.56382  1.0000
  H   H3607     1.0  0.50168  0.89280  0.72143  1.0000
  H   H3608     1.0  0.88652  0.68772  0.90375  1.0000
  S   S449      1.0  0.73579  0.81947  0.69291  1.0000
  H   H3609     1.0  0.50564  0.69964  0.57595  1.0000
  H   H3610     1.0  0.68216  0.73592  0.64763  1.0000
  H   H3611     1.0  0.48896  0.80358  0.76903  1.0000
  H   H3612     1.0  0.49782  0.91550  0.68616  1.0000
  H   H3613     1.0  0.80230  0.84431  0.01099  1.0000
  H   H3614     1.0  0.82014  0.87886  0.75591  1.0000
  S   S450      1.0  0.85357  0.70165  0.66437  1.0000
  H   H3615     1.0  0.59091  0.89686  0.75271  1.0000
  C   C2022     1.0  0.82716  0.84433  0.94948  1.0000
  C   C2023     1.0  0.46171  0.81804  0.61585  1.0000
  H   H3616     1.0  0.59355  0.72697  0.75188  1.0000
  H   H3617     1.0  0.54556  0.69671  0.59443  1.0000
  H   H3618     1.0  0.93283  0.75094  0.60071  1.0000
  H   H3619     1.0  0.47893  0.69172  0.95110  1.0000
  H   H3620     1.0  0.59759  0.71118  0.90013  1.0000
  C   C2024     1.0  0.65218  0.76031  0.72833  1.0000
  H   H3621     1.0  0.71785  0.79008  0.63705  1.0000
  H   H3622     1.0  0.81001  0.70170  0.71802  1.0000
  H   H3623     1.0  0.51673  0.84330  0.78914  1.0000
  N   N112      1.0  0.46958  0.87715  0.71095  1.0000
  C   C2025     1.0  0.67236  0.69341  0.52727  1.0000
  C   C2026     1.0  0.46522  0.75582  0.54792  1.0000
  C   C2027     1.0  0.54125  0.77210  0.01029  1.0000
  H   H3624     1.0  0.70214  0.73274  0.78099  1.0000
  C   C2028     1.0  0.89310  0.67883  0.88677  1.0000
  C   C2029     1.0  0.46827  0.84190  0.78295  1.0000
  C   C2030     1.0  0.89337  0.78702  0.69148  1.0000
  C   C2031     1.0  0.74679  0.84006  0.55139  1.0000
  C   C2032     1.0  0.52892  0.82679  0.93255  1.0000
  H   H3625     1.0  0.54927  0.86727  0.99825  1.0000
  S   S451      1.0  0.58893  0.86408  0.94600  1.0000
  C   C2033     1.0  0.79141  0.69002  0.72588  1.0000
  H   H3626     1.0  0.64922  0.84708  0.90503  1.0000
  C   C2034     1.0  0.72862  0.67900  0.84276  1.0000
  H   H3627     1.0  0.57286  0.77549  0.72248  1.0000
  H   H3628     1.0  0.58651  0.74680  0.61859  1.0000
  H   H3629     1.0  0.61975  0.71448  0.84725  1.0000
  H   H3630     1.0  0.56898  0.82627  0.61173  1.0000
  C   C2035     1.0  0.56444  0.73146  0.94922  1.0000
  H   H3631     1.0  0.91656  0.73798  0.77268  1.0000
  H   H3632     1.0  0.81982  0.82474  0.97569  1.0000
  C   C2036     1.0  0.53878  0.70202  0.56582  1.0000
  H   H3633     1.0  0.83489  0.84363  0.59283  1.0000
  H   H3634     1.0  0.77680  0.71192  0.81333  1.0000
  H   H3635     1.0  0.73793  0.85954  0.80391  1.0000
  H   H3636     1.0  0.69231  0.76620  0.53048  1.0000
  C   C2037     1.0  0.48301  0.81915  0.60052  1.0000
  C   C2038     1.0  0.62495  0.68119  0.55958  1.0000
  C   C2039     1.0  0.60144  0.81484  0.68730  1.0000
  H   H3637     1.0  0.66256  0.82882  0.61515  1.0000
  H   H3638     1.0  0.86744  0.76063  0.59481  1.0000
  S   S452      1.0  0.73954  0.87951  0.69512  1.0000
  C   C2040     1.0  0.45281  0.88434  0.70260  1.0000
  H   H3639     1.0  0.66682  0.68828  0.86804  1.0000
  S   S453      1.0  0.48407  0.75940  0.99652  1.0000
  H   H3640     1.0  0.84950  0.74669  0.84393  1.0000
  H   H3641     1.0  0.66571  0.78776  0.93394  1.0000
  C   C2041     1.0  0.88313  0.76271  0.69899  1.0000
  S   S454      1.0  0.89619  0.69510  0.67481  1.0000
  C   C2042     1.0  0.64436  0.80275  0.93154  1.0000
  H   H3642     1.0  0.77010  0.87345  0.62056  1.0000
  H   H3643     1.0  0.72897  0.80946  0.53777  1.0000
  C   C2043     1.0  0.45415  0.85025  0.75927  1.0000
  H   H3644     1.0  0.64286  0.82459  0.55710  1.0000
  C   C2044     1.0  0.78311  0.81103  0.91196  1.0000
  C   C2045     1.0  0.58910  0.77045  0.54499  1.0000
  H   H3645     1.0  0.79782  0.88276  0.87482  1.0000
  H   H3646     1.0  0.48618  0.91011  0.82479  1.0000
  C   C2046     1.0  0.76734  0.83995  0.66738  1.0000
  C   C2047     1.0  0.81483  0.87364  0.64594  1.0000
  C   C2048     1.0  0.49925  0.90354  0.60563  1.0000
  H   H3647     1.0  0.65630  0.81859  0.93578  1.0000
  S   S455      1.0  0.85172  0.68069  0.78367  1.0000
  H   H3648     1.0  0.71903  0.73518  0.67184  1.0000
  H   H3649     1.0  0.49966  0.70094  0.79845  1.0000
  H   H3650     1.0  0.83044  0.73724  0.58529  1.0000
  C   C2049     1.0  0.54584  0.90910  0.84754  1.0000
  H   H3651     1.0  0.43744  0.81246  0.86517  1.0000
  H   H3652     1.0  0.78504  0.80441  0.88251  1.0000
  S   S456      1.0  0.74420  0.69967  0.68477  1.0000
  H   H3653     1.0  0.47737  0.85370  0.79891  1.0000
  C   C2050     1.0  0.49800  0.73272  0.75994  1.0000
  C   C2051     1.0  0.80322  0.88304  0.62462  1.0000
  H   H3654     1.0  0.68716  0.88125  0.62050  1.0000
  H   H3655     1.0  0.73058  0.77654  0.53765  1.0000
  C   C2052     1.0  0.56669  0.78107  0.97080  1.0000
  H   H3656     1.0  0.83531  0.76476  0.58812  1.0000
  C   C2053     1.0  0.54394  0.85655  0.97875  1.0000
  H   H3657     1.0  0.75713  0.73114  0.80691  1.0000
  H   H3658     1.0  0.77307  0.79446  0.58948  1.0000
  H   H3659     1.0  0.52211  0.77348  0.65597  1.0000
  H   H3660     1.0  0.66668  0.89825  0.86900  1.0000
  H   H3661     1.0  0.68851  0.77534  0.99845  1.0000
  H   H3662     1.0  0.70569  0.68188  0.98795  1.0000
  H   H3663     1.0  0.93242  0.82925  0.80160  1.0000
  C   C2054     1.0  0.89289  0.80971  0.84719  1.0000
  H   H3664     1.0  0.53274  0.88814  0.87640  1.0000
  H   H3665     1.0  0.46164  0.80870  0.84592  1.0000
  C   C2055     1.0  0.61730  0.79365  0.95840  1.0000
  H   H3666     1.0  0.79087  0.84476  0.91287  1.0000
  C   C2056     1.0  0.62963  0.83732  0.93431  1.0000
  C   C2057     1.0  0.61057  0.89530  0.79646  1.0000
  H   H3667     1.0  0.76234  0.71655  0.93582  1.0000
  C   C2058     1.0  0.73572  0.79607  0.60643  1.0000
  H   H3668     1.0  0.71999  0.72146  0.76058  1.0000
  H   H3669     1.0  0.75136  0.84521  0.92987  1.0000
  H   H3670     1.0  0.51175  0.83634  0.71351  1.0000
  C   C2059     1.0  0.55949  0.85148  0.95285  1.0000
  Fe  Fe222     1.0  0.67244  0.83438  0.73093  1.0000
  C   C2060     1.0  0.61032  0.74186  0.74632  1.0000
  Fe  Fe223     1.0  0.44953  0.91995  0.00572  1.0000
  S   S457      1.0  0.70432  0.86838  0.84149  1.0000
  C   C2061     1.0  0.55502  0.90343  0.76869  1.0000
  Fe  Fe224     1.0  0.59467  0.69267  0.72881  1.0000
  H   H3671     1.0  0.44073  0.74114  0.76302  1.0000
  H   H3672     1.0  0.64723  0.70650  0.83139  1.0000
  H   H3673     1.0  0.45988  0.87705  0.80850  1.0000
  H   H3674     1.0  0.71989  0.74569  0.58522  1.0000
  H   H3675     1.0  0.47526  0.76919  0.56017  1.0000
  H   H3676     1.0  0.52458  0.89679  0.56485  1.0000
  H   H3677     1.0  0.87041  0.70556  0.84817  1.0000
  H   H3678     1.0  0.91284  0.79972  0.67629  1.0000
  Fe  Fe225     1.0  0.70513  0.86182  0.77145  1.0000
  H   H3679     1.0  0.78446  0.83829  0.81812  1.0000
  N   N113      1.0  0.74889  0.70401  0.88539  1.0000
  C   C2062     1.0  0.56330  0.81597  0.55399  1.0000
  H   H3680     1.0  0.63179  0.75725  0.86278  1.0000
  H   H3681     1.0  0.79330  0.75628  0.55939  1.0000
  H   H3682     1.0  0.44881  0.67406  0.95798  1.0000
  H   H3683     1.0  0.76247  0.75079  0.88619  1.0000
  C   C2063     1.0  0.67644  0.91661  0.53471  1.0000
  H   H3684     1.0  0.90888  0.78199  0.55856  1.0000
  H   H3685     1.0  0.58276  0.70499  0.53761  1.0000
  C   C2064     1.0  0.61423  0.83980  0.79447  1.0000
  C   C2065     1.0  0.77296  0.68420  0.88410  1.0000
  N   N114      1.0  0.56618  0.91537  0.79806  1.0000
  N   N115      1.0  0.85990  0.76105  0.89496  1.0000
  H   H3686     1.0  0.74232  0.68314  0.96751  1.0000
  H   H3687     1.0  0.78373  0.87409  0.74806  1.0000
  C   C2066     1.0  0.63125  0.72403  0.90368  1.0000
  H   H3688     1.0  0.81354  0.85010  0.85393  1.0000
  C   C2067     1.0  0.76447  0.76094  0.58543  1.0000
  C   C2068     1.0  0.75842  0.87585  0.94398  1.0000
  H   H3689     1.0  0.67049  0.79574  0.72604  1.0000
  H   H3690     1.0  0.72282  0.71579  0.95015  1.0000
  S   S458      1.0  0.59410  0.71002  0.65099  1.0000
  H   H3691     1.0  0.76879  0.79457  0.53308  1.0000
  C   C2069     1.0  0.78129  0.70142  0.70319  1.0000
  H   H3692     1.0  0.62581  0.85144  0.91831  1.0000
  H   H3693     1.0  0.62239  0.72022  0.94582  1.0000
  H   H3694     1.0  0.54646  0.86536  0.81683  1.0000
  H   H3695     1.0  0.55218  0.79246  0.75763  1.0000
  H   H3696     1.0  0.57668  0.67836  0.99301  1.0000
  N   N116      1.0  0.53386  0.78046  0.71341  1.0000
  C   C2070     1.0  0.74330  0.81676  0.54974  1.0000
  C   C2071     1.0  0.54203  0.74987  0.90102  1.0000
  H   H3697     1.0  0.64296  0.87260  0.96945  1.0000
  H   H3698     1.0  0.72054  0.79988  0.00958  1.0000
  C   C2072     1.0  0.77954  0.83049  0.68563  1.0000
  H   H3699     1.0  0.75225  0.77090  0.81815  1.0000
  S   S459      1.0  0.88449  0.84431  0.74149  1.0000
  C   C2073     1.0  0.81578  0.88790  0.77815  1.0000
  H   H3700     1.0  0.81263  0.70644  0.85100  1.0000
  C   C2074     1.0  0.45860  0.83213  0.57601  1.0000
  H   H3701     1.0  0.46875  0.90798  0.76386  1.0000
  C   C2075     1.0  0.64550  0.85755  0.98677  1.0000
  C   C2076     1.0  0.53825  0.74336  0.60682  1.0000
  H   H3702     1.0  0.52330  0.81538  0.91438  1.0000
  H   H3703     1.0  0.73042  0.74391  0.78293  1.0000
  H   H3704     1.0  0.84491  0.77836  0.92615  1.0000
  H   H3705     1.0  0.50123  0.77832  0.72066  1.0000
  H   H3706     1.0  0.82676  0.89011  0.79984  1.0000
  S   S460      1.0  0.55641  0.67831  0.78358  1.0000
  C   C2077     1.0  0.91308  0.67953  0.88922  1.0000
  Fe  Fe226     1.0  0.70325  0.67645  0.57728  1.0000
  H   H3707     1.0  0.58232  0.79632  0.65244  1.0000
  H   H3708     1.0  0.79646  0.75989  0.92296  1.0000
  H   H3709     1.0  0.56473  0.81720  0.69182  1.0000
  C   C2078     1.0  0.69371  0.75380  0.60690  1.0000
  H   H3710     1.0  0.72131  0.81596  0.82259  1.0000
  C   C2079     1.0  0.91285  0.77065  0.54351  1.0000
  C   C2080     1.0  0.52452  0.81264  0.71995  1.0000
  H   H3711     1.0  0.72737  0.88876  0.89818  1.0000
  C   C2081     1.0  0.84500  0.89458  0.88089  1.0000
  C   C2082     1.0  0.77494  0.87271  0.78766  1.0000
  H   H3712     1.0  0.78816  0.72379  0.85211  1.0000
  C   C2083     1.0  0.61326  0.83874  0.84759  1.0000
  H   H3713     1.0  0.50925  0.85133  0.99996  1.0000
  S   S461      1.0  0.53081  0.76507  0.86933  1.0000
  H   H3714     1.0  0.74738  0.84053  0.75582  1.0000
  C   C2084     1.0  0.75722  0.68621  0.71330  1.0000
  H   H3715     1.0  0.48529  0.80798  0.63125  1.0000
  H   H3716     1.0  0.51852  0.73260  0.63031  1.0000
  H   H3717     1.0  0.73745  0.84079  0.86205  1.0000
  H   H3718     1.0  0.70971  0.82719  0.99656  1.0000
  C   C2085     1.0  0.57683  0.74852  0.89269  1.0000
  C   C2086     1.0  0.87846  0.79511  0.70262  1.0000
  Fe  Fe227     1.0  0.63256  0.91683  0.01929  1.0000
  H   H3719     1.0  0.65158  0.80915  0.88738  1.0000
  H   H3720     1.0  0.59593  0.76254  0.75968  1.0000
  S   S462      1.0  0.90196  0.75302  0.68333  1.0000
  H   H3721     1.0  0.59548  0.75549  0.86767  1.0000
  C   C2087     1.0  0.77050  0.77444  0.80537  1.0000
  C   C2088     1.0  0.86800  0.85002  0.00974  1.0000
  H   H3722     1.0  0.69193  0.76818  0.61243  1.0000
  C   C2089     1.0  0.47560  0.89618  0.77304  1.0000
  Fe  Fe228     1.0  0.72057  0.84130  0.70236  1.0000
  C   C2090     1.0  0.64675  0.78147  0.95809  1.0000
  H   H3723     1.0  0.76464  0.86917  0.97233  1.0000
  H   H3724     1.0  0.68285  0.82299  0.57944  1.0000
  C   C2091     1.0  0.51145  0.68960  0.60000  1.0000
  H   H3725     1.0  0.49002  0.74424  0.59987  1.0000
  C   C2092     1.0  0.72312  0.69984  0.97413  1.0000
  C   C2093     1.0  0.80333  0.84740  0.67513  1.0000
  H   H3726     1.0  0.72928  0.83488  0.58126  1.0000
  C   C2094     1.0  0.61171  0.76210  0.75048  1.0000
  H   H3727     1.0  0.59654  0.87457  0.82581  1.0000
  C   C2095     1.0  0.72701  0.68068  0.89462  1.0000
  H   H3728     1.0  0.64527  0.72029  0.89994  1.0000
  H   H3729     1.0  0.92308  0.85005  0.79494  1.0000
  C   C2096     1.0  0.84380  0.72798  0.99539  1.0000
  C   C2097     1.0  0.63333  0.78149  0.74361  1.0000
  H   H3730     1.0  0.66776  0.75953  0.72048  1.0000
  H   H3731     1.0  0.88663  0.74793  0.83380  1.0000
  H   H3732     1.0  0.82532  0.75913  0.85567  1.0000
  H   H3733     1.0  0.61845  0.90411  0.81835  1.0000
  C   C2098     1.0  0.49427  0.90752  0.79138  1.0000
  H   H3734     1.0  0.54708  0.86862  0.73150  1.0000
  S   S463      1.0  0.62786  0.71414  0.73643  1.0000
  H   H3735     1.0  0.77013  0.81021  0.71054  1.0000
  C   C2099     1.0  0.75079  0.72705  0.84986  1.0000
  C   C2100     1.0  0.51375  0.83244  0.95695  1.0000
  H   H3736     1.0  0.51055  0.72515  0.98178  1.0000
  C   C2101     1.0  0.84001  0.76474  0.91140  1.0000
  H   H3737     1.0  0.68511  0.73467  0.56145  1.0000
  H   H3738     1.0  0.71017  0.67960  0.91280  1.0000
  H   H3739     1.0  0.79213  0.72189  0.67749  1.0000
  H   H3740     1.0  0.56328  0.83201  0.91108  1.0000
  C   C2102     1.0  0.73518  0.76035  0.70119  1.0000
  H   H3741     1.0  0.63808  0.82907  0.85050  1.0000
  H   H3742     1.0  0.76343  0.79942  0.94294  1.0000
  H   H3743     1.0  0.86944  0.89438  0.81888  1.0000
  H   H3744     1.0  0.59841  0.81333  0.72752  1.0000
  H   H3745     1.0  0.77668  0.89084  0.77507  1.0000
  H   H3746     1.0  0.66309  0.73992  0.59078  1.0000
  H   H3747     1.0  0.50799  0.69077  0.63759  1.0000
  H   H3748     1.0  0.65452  0.87704  0.59748  1.0000
  H   H3749     1.0  0.53581  0.74824  0.73643  1.0000
  H   H3750     1.0  0.53868  0.92310  0.95217  1.0000
  H   H3751     1.0  0.60839  0.82751  0.01839  1.0000
  H   H3752     1.0  0.76981  0.67926  0.92632  1.0000
  C   C2103     1.0  0.48177  0.73166  0.58449  1.0000
  H   H3753     1.0  0.87870  0.82326  0.95736  1.0000
  H   H3754     1.0  0.85523  0.71739  0.82123  1.0000
  C   C2104     1.0  0.79792  0.69017  0.85219  1.0000
  H   H3755     1.0  0.92228  0.84696  0.88056  1.0000
  H   H3756     1.0  0.60660  0.77730  0.95380  1.0000
  H   H3757     1.0  0.57589  0.77197  0.82534  1.0000
  H   H3758     1.0  0.66058  0.81915  0.01887  1.0000
  H   H3759     1.0  0.82360  0.74184  0.74417  1.0000
  C   C2105     1.0  0.65373  0.78084  0.73142  1.0000
  H   H3760     1.0  0.88137  0.78867  0.80729  1.0000
  H   H3761     1.0  0.51709  0.89575  0.95256  1.0000
  H   H3762     1.0  0.68868  0.80921  0.97805  1.0000
  S   S464      1.0  0.68793  0.82298  0.78263  1.0000
  H   H3763     1.0  0.86959  0.73701  0.55183  1.0000
  C   C2106     1.0  0.65706  0.68474  0.58140  1.0000
  H   H3764     1.0  0.44441  0.83641  0.74770  1.0000
  C   C2107     1.0  0.55085  0.76275  0.55182  1.0000
  C   C2108     1.0  0.57648  0.75089  0.59980  1.0000
  H   H3765     1.0  0.54838  0.72272  0.54505  1.0000
  H   H3766     1.0  0.65020  0.79857  0.61967  1.0000
  H   H3767     1.0  0.52082  0.74973  0.79271  1.0000
  Fe  Fe229     1.0  0.85454  0.87464  0.68699  1.0000
  C   C2109     1.0  0.84588  0.85833  0.89515  1.0000
  H   H3768     1.0  0.53977  0.82715  0.67755  1.0000
  C   C2110     1.0  0.54340  0.69332  0.52437  1.0000
  H   H3769     1.0  0.73944  0.86915  0.96909  1.0000
  C   C2111     1.0  0.63035  0.74065  0.73641  1.0000
  H   H3770     1.0  0.82073  0.91418  0.70152  1.0000
  H   H3771     1.0  0.60028  0.82065  0.80341  1.0000
  C   C2112     1.0  0.86502  0.75404  0.94215  1.0000
  C   C2113     1.0  0.85328  0.77879  0.72187  1.0000
  C   C2114     1.0  0.82633  0.91508  0.73309  1.0000
  C   C2115     1.0  0.68651  0.73693  0.00290  1.0000
  C   C2116     1.0  0.81379  0.68488  0.52869  1.0000
  Fe  Fe230     1.0  0.85439  0.82773  0.72170  1.0000
  H   H3772     1.0  0.60781  0.83408  0.65708  1.0000
  H   H3773     1.0  0.44065  0.67509  0.70998  1.0000
  H   H3774     1.0  0.70565  0.75367  0.97150  1.0000
  H   H3775     1.0  0.90568  0.86851  0.91242  1.0000
  H   H3776     1.0  0.69288  0.89923  0.86858  1.0000
  H   H3777     1.0  0.49926  0.89453  0.80721  1.0000
  C   C2117     1.0  0.82579  0.88032  0.93474  1.0000
  S   S465      1.0  0.58558  0.91513  0.97053  1.0000
  H   H3778     1.0  0.56851  0.78712  0.92924  1.0000
  N   N117      1.0  0.73484  0.77345  0.60880  1.0000
  H   H3779     1.0  0.79063  0.90050  0.83425  1.0000
  C   C2118     1.0  0.72216  0.75313  0.66818  1.0000
  H   H3780     1.0  0.53900  0.78761  0.99677  1.0000
  H   H3781     1.0  0.74024  0.91287  0.73282  1.0000
  C   C2119     1.0  0.55169  0.83632  0.93044  1.0000
  H   H3782     1.0  0.69806  0.88715  0.98356  1.0000
  C   C2120     1.0  0.67212  0.89536  0.57579  1.0000
  H   H3783     1.0  0.45985  0.79314  0.53712  1.0000
  H   H3784     1.0  0.68570  0.71944  0.01335  1.0000
  H   H3785     1.0  0.85981  0.89087  0.53167  1.0000
  C   C2121     1.0  0.50106  0.83414  0.54534  1.0000
  C   C2122     1.0  0.54028  0.72246  0.98129  1.0000
  H   H3786     1.0  0.63514  0.69866  0.00339  1.0000
  C   C2123     1.0  0.48685  0.70627  0.80661  1.0000
  H   H3787     1.0  0.88654  0.81413  0.69534  1.0000
  C   C2124     1.0  0.83132  0.84201  0.55926  1.0000
  C   C2125     1.0  0.91028  0.85748  0.93841  1.0000
  C   C2126     1.0  0.74139  0.83105  0.80005  1.0000
  H   H3788     1.0  0.48236  0.84337  0.75104  1.0000
  C   C2127     1.0  0.92980  0.85749  0.90013  1.0000
  H   H3789     1.0  0.56955  0.91024  0.72824  1.0000
  Fe  Fe231     1.0  0.47533  0.78528  0.95406  1.0000
  H   H3790     1.0  0.83819  0.80878  0.01275  1.0000
  H   H3791     1.0  0.60024  0.67698  0.99890  1.0000
  C   C2128     1.0  0.52894  0.73150  0.95700  1.0000
  S   S466      1.0  0.49029  0.78717  0.87475  1.0000
  Fe  Fe232     1.0  0.87925  0.71373  0.69793  1.0000
  H   H3792     1.0  0.44654  0.75424  0.64188  1.0000
  C   C2129     1.0  0.55405  0.92032  0.88226  1.0000
  S   S467      1.0  0.68662  0.87166  0.72663  1.0000
  C   C2130     1.0  0.45897  0.72941  0.58474  1.0000
  C   C2131     1.0  0.55680  0.79676  0.71499  1.0000
  C   C2132     1.0  0.55313  0.81258  0.61044  1.0000
  H   H3793     1.0  0.81220  0.90335  0.60164  1.0000
  C   C2133     1.0  0.68704  0.91009  0.84721  1.0000
  S   S468      1.0  0.53458  0.71041  0.69638  1.0000
  H   H3794     1.0  0.81492  0.84173  0.56329  1.0000
  C   C2134     1.0  0.59909  0.90713  0.77212  1.0000
  C   C2135     1.0  0.50416  0.81629  0.72594  1.0000
  C   C2136     1.0  0.83320  0.77368  0.86687  1.0000
  C   C2137     1.0  0.86867  0.76767  0.55369  1.0000
  H   H3795     1.0  0.81041  0.78589  0.85455  1.0000
  Fe  Fe233     1.0  0.90171  0.88106  0.66568  1.0000
  H   H3796     1.0  0.48432  0.73674  0.77077  1.0000
  Fe  Fe234     1.0  0.45229  0.75366  0.90710  1.0000
  H   H3797     1.0  0.86702  0.85468  0.97089  1.0000
  H   H3798     1.0  0.56774  0.76478  0.98439  1.0000
  H   H3799     1.0  0.49562  0.73940  0.54248  1.0000
  H   H3800     1.0  0.70347  0.74800  0.69045  1.0000
  H   H3801     1.0  0.83252  0.72323  0.91469  1.0000
  H   H3802     1.0  0.56064  0.91056  0.90406  1.0000
  H   H3803     1.0  0.77019  0.89690  0.92088  1.0000
  C   C2138     1.0  0.68299  0.74835  0.56995  1.0000
  Fe  Fe235     1.0  0.71988  0.88703  0.65074  1.0000
  H   H3804     1.0  0.73241  0.72335  0.86391  1.0000
  C   C2139     1.0  0.84280  0.75836  0.56298  1.0000
  H   H3805     1.0  0.80262  0.78359  0.56654  1.0000
  C   C2140     1.0  0.51499  0.78501  0.73462  1.0000
  H   H3806     1.0  0.82260  0.74660  0.94671  1.0000
  H   H3807     1.0  0.89846  0.78279  0.83713  1.0000
  H   H3808     1.0  0.56641  0.88529  0.85175  1.0000
  H   H3809     1.0  0.75855  0.74893  0.62890  1.0000
  C   C2141     1.0  0.85130  0.74034  0.88150  1.0000
  C   C2142     1.0  0.74535  0.70110  0.94050  1.0000
  H   H3810     1.0  0.90060  0.75097  0.58000  1.0000
  H   H3811     1.0  0.45121  0.71640  0.56988  1.0000
  C   C2143     1.0  0.61840  0.82002  0.87717  1.0000
  C   C2144     1.0  0.64485  0.75234  0.86377  1.0000
  H   H3812     1.0  0.58266  0.79516  0.01517  1.0000
  C   C2145     1.0  0.72098  0.73811  0.76007  1.0000
  H   H3813     1.0  0.46354  0.90491  0.67133  1.0000
  C   C2146     1.0  0.57787  0.79423  0.69340  1.0000
  S   S469      1.0  0.88326  0.89398  0.70861  1.0000
  H   H3814     1.0  0.52307  0.87315  0.74435  1.0000
  H   H3815     1.0  0.80013  0.68580  0.55589  1.0000
  S   S470      1.0  0.87751  0.68252  0.56669  1.0000
  H   H3816     1.0  0.76098  0.83053  0.87774  1.0000
  S   S471      1.0  0.83404  0.78809  0.73702  1.0000
  C   C2147     1.0  0.56572  0.75784  0.86872  1.0000
  S   S472      1.0  0.83249  0.83754  0.76669  1.0000
  H   H3817     1.0  0.49720  0.87406  0.66690  1.0000
  C   C2148     1.0  0.79147  0.77207  0.55260  1.0000
  C   C2149     1.0  0.74697  0.85085  0.81685  1.0000
  H   H3818     1.0  0.57764  0.81259  0.54725  1.0000
  C   C2150     1.0  0.77237  0.70723  0.85630  1.0000
  S   S473      1.0  0.73894  0.68448  0.57164  1.0000
  H   H3819     1.0  0.56628  0.68584  0.88113  1.0000
  H   H3820     1.0  0.59490  0.83286  0.87342  1.0000
  Fe  Fe236     1.0  0.55484  0.69298  0.70601  1.0000
  H   H3821     1.0  0.61022  0.85310  0.77438  1.0000
  Fe  Fe237     1.0  0.86351  0.85558  0.78355  1.0000
  H   H3822     1.0  0.53139  0.81680  0.74797  1.0000
  C   C2151     1.0  0.88333  0.78505  0.84491  1.0000
  C   C2152     1.0  0.78524  0.88088  0.85734  1.0000
  C   C2153     1.0  0.76091  0.78220  0.57799  1.0000
  H   H3823     1.0  0.75389  0.74866  0.57204  1.0000
  H   H3824     1.0  0.83963  0.69358  0.89345  1.0000
  H   H3825     1.0  0.76101  0.84811  0.56329  1.0000
  C   C2154     1.0  0.52310  0.75298  0.75149  1.0000
  H   H3826     1.0  0.50424  0.77335  0.78047  1.0000
  C   C2155     1.0  0.86833  0.73189  0.87007  1.0000
  C   C2156     1.0  0.71348  0.92131  0.56046  1.0000
  H   H3827     1.0  0.60817  0.80238  0.87601  1.0000
  H   H3828     1.0  0.44125  0.80141  0.81764  1.0000
  C   C2157     1.0  0.74630  0.91598  0.76144  1.0000
  H   H3829     1.0  0.77804  0.77762  0.76335  1.0000
  C   C2158     1.0  0.76861  0.75214  0.84592  1.0000
  H   H3830     1.0  0.62541  0.89810  0.76322  1.0000
  H   H3831     1.0  0.53465  0.91494  0.83536  1.0000
  C   C2159     1.0  0.66149  0.82912  0.54163  1.0000
  H   H3832     1.0  0.61609  0.81241  0.67239  1.0000
  H   H3833     1.0  0.44144  0.88224  0.74083  1.0000
  S   S474      1.0  0.63447  0.80617  0.75109  1.0000
  H   H3834     1.0  0.44754  0.80605  0.65851  1.0000
  C   C2160     1.0  0.61159  0.70732  0.89200  1.0000
  H   H3835     1.0  0.89261  0.81773  0.99782  1.0000
  H   H3836     1.0  0.78309  0.79205  0.80390  1.0000
  S   S475      1.0  0.81155  0.89264  0.96001  1.0000
  N   N118      1.0  0.59956  0.67917  0.92488  1.0000
  H   H3837     1.0  0.47675  0.71258  0.61139  1.0000
  H   H3838     1.0  0.54017  0.81782  0.61342  1.0000
  H   H3839     1.0  0.75787  0.82970  0.00839  1.0000
  H   H3840     1.0  0.87086  0.72452  0.90580  1.0000
  C   C2161     1.0  0.79363  0.83926  0.88174  1.0000
  Fe  Fe238     1.0  0.60020  0.89197  0.97414  1.0000
  H   H3841     1.0  0.73611  0.77648  0.70340  1.0000
  S   S476      1.0  0.84289  0.89503  0.63881  1.0000
  H   H3842     1.0  0.75070  0.82195  0.80813  1.0000
  H   H3843     1.0  0.82717  0.72727  0.01205  1.0000
  H   H3844     1.0  0.82049  0.79192  0.90144  1.0000
  C   C2162     1.0  0.66458  0.81940  0.59184  1.0000
  C   C2163     1.0  0.73903  0.90244  0.85458  1.0000
  H   H3845     1.0  0.44556  0.72047  0.62815  1.0000
  H   H3846     1.0  0.78721  0.75675  0.83161  1.0000
  Fe  Fe239     1.0  0.44619  0.72788  0.02102  1.0000
  C   C2164     1.0  0.81393  0.77804  0.88800  1.0000
  Fe  Fe240     1.0  0.86817  0.68022  0.64804  1.0000
  H   H3847     1.0  0.85893  0.88429  0.98068  1.0000
  C   C2165     1.0  0.85487  0.88348  0.86083  1.0000
  S   S477      1.0  0.48540  0.82013  0.95886  1.0000
  S   S478      1.0  0.70405  0.85051  0.65113  1.0000
  C   C2166     1.0  0.48398  0.87803  0.66111  1.0000
  H   H3848     1.0  0.67390  0.90503  0.98384  1.0000
  C   C2167     1.0  0.53267  0.91628  0.92584  1.0000
  S   S479      1.0  0.45902  0.72524  0.94650  1.0000
  H   H3849     1.0  0.91879  0.83335  0.75854  1.0000
  C   C2168     1.0  0.67785  0.89992  0.01693  1.0000
  H   H3850     1.0  0.52055  0.86663  0.83601  1.0000
  H   H3851     1.0  0.62706  0.85824  0.83718  1.0000
  H   H3852     1.0  0.74705  0.86728  0.88901  1.0000
  C   C2169     1.0  0.53936  0.78475  0.65669  1.0000
  N   N119      1.0  0.61307  0.81351  0.93517  1.0000
  H   H3853     1.0  0.88173  0.75441  0.92948  1.0000
  H   H3854     1.0  0.48268  0.70576  0.84617  1.0000
  H   H3855     1.0  0.58948  0.91587  0.83431  1.0000
  S   S480      1.0  0.52701  0.83448  0.52951  1.0000
  H   H3856     1.0  0.65692  0.76362  0.87661  1.0000
  H   H3857     1.0  0.66346  0.68285  0.61091  1.0000
  C   C2170     1.0  0.77941  0.86617  0.63546  1.0000
  H   H3858     1.0  0.54836  0.80288  0.54944  1.0000
  H   H3859     1.0  0.80205  0.69482  0.80962  1.0000
  C   C2171     1.0  0.63669  0.68548  0.85456  1.0000
  H   H3860     1.0  0.89459  0.80727  0.88456  1.0000
  C   C2172     1.0  0.58690  0.80290  0.97150  1.0000
  H   H3861     1.0  0.79326  0.80808  0.93347  1.0000
  S   S481      1.0  0.87394  0.86330  0.64111  1.0000
  H   H3862     1.0  0.48758  0.90913  0.59591  1.0000
  S   S482      1.0  0.92734  0.69455  0.92004  1.0000
  H   H3863     1.0  0.54979  0.77727  0.64505  1.0000
  C   C2173     1.0  0.53778  0.87391  0.80087  1.0000
  C   C2174     1.0  0.55101  0.73697  0.63036  1.0000
  H   H3864     1.0  0.88024  0.81524  0.84722  1.0000
  C   C2175     1.0  0.52118  0.84729  0.98021  1.0000
  C   C2176     1.0  0.73161  0.89760  0.81753  1.0000
  Fe  Fe241     1.0  0.49605  0.75876  0.91916  1.0000
  S   S483      1.0  0.58063  0.72376  0.97861  1.0000
  S   S484      1.0  0.85665  0.84346  0.87026  1.0000
  C   C2177     1.0  0.53076  0.86424  0.76402  1.0000
  H   H3865     1.0  0.49676  0.81215  0.69874  1.0000
  H   H3866     1.0  0.63371  0.76410  0.95927  1.0000
  H   H3867     1.0  0.81251  0.84015  0.69072  1.0000
  H   H3868     1.0  0.49820  0.88686  0.55404  1.0000
  H   H3869     1.0  0.54395  0.90978  0.75790  1.0000
  C   C2178     1.0  0.88680  0.82993  0.98177  1.0000
  H   H3870     1.0  0.86933  0.76849  0.95443  1.0000
  H   H3871     1.0  0.91868  0.86792  0.95724  1.0000
  H   H3872     1.0  0.54080  0.76664  0.53312  1.0000
  C   C2179     1.0  0.85792  0.74633  0.71855  1.0000
  H   H3873     1.0  0.75414  0.76585  0.68254  1.0000
  H   H3874     1.0  0.65663  0.75763  0.82204  1.0000
  C   C2180     1.0  0.51197  0.90159  0.55819  1.0000
  C   C2181     1.0  0.91829  0.83184  0.79755  1.0000
  C   C2182     1.0  0.69147  0.88981  0.01691  1.0000
  C   C2183     1.0  0.48731  0.89575  0.72096  1.0000
  C   C2184     1.0  0.85760  0.71076  0.85765  1.0000
  C   C2185     1.0  0.84302  0.75439  0.72989  1.0000
  H   H3875     1.0  0.63268  0.84649  0.76550  1.0000
  H   H3876     1.0  0.68294  0.86770  0.52496  1.0000
  H   H3877     1.0  0.50047  0.73194  0.72199  1.0000
  H   H3878     1.0  0.84938  0.79166  0.82918  1.0000
  C   C2186     1.0  0.75905  0.86552  0.90535  1.0000
  N   N120      1.0  0.78864  0.87109  0.81908  1.0000
  C   C2187     1.0  0.57961  0.90534  0.81699  1.0000
  C   C2188     1.0  0.78090  0.84417  0.84856  1.0000
  H   H3879     1.0  0.73300  0.69635  0.80962  1.0000
  H   H3880     1.0  0.58421  0.81820  0.96176  1.0000
  C   C2189     1.0  0.93464  0.74130  0.76232  1.0000
  H   H3881     1.0  0.43918  0.84693  0.79346  1.0000
  C   C2190     1.0  0.81703  0.85528  0.96916  1.0000
  H   H3882     1.0  0.83881  0.71195  0.98816  1.0000
  H   H3883     1.0  0.66441  0.86426  0.96081  1.0000
  H   H3884     1.0  0.83120  0.69693  0.52814  1.0000
  H   H3885     1.0  0.88547  0.86693  0.99940  1.0000
  C   C2191     1.0  0.45099  0.81441  0.83079  1.0000
  H   H3886     1.0  0.69037  0.84707  0.96343  1.0000
  H   H3887     1.0  0.44503  0.87207  0.64533  1.0000
  N   N121      1.0  0.44374  0.75581  0.54685  1.0000
  H   H3888     1.0  0.92829  0.68767  0.72956  1.0000
  S   S485      1.0  0.44200  0.89227  0.53560  1.0000
  H   H3889     1.0  0.85222  0.91410  0.85467  1.0000
  H   H3890     1.0  0.64319  0.77703  0.00034  1.0000
  H   H3891     1.0  0.61008  0.78522  0.00350  1.0000
  H   H3892     1.0  0.51384  0.91898  0.60654  1.0000
  S   S486      1.0  0.43684  0.75255  0.84959  1.0000
  H   H3893     1.0  0.93303  0.72795  0.79918  1.0000
  H   H3894     1.0  0.52676  0.75586  0.01114  1.0000
  H   H3895     1.0  0.62918  0.67937  0.93609  1.0000
  H   H3896     1.0  0.66770  0.68723  0.80718  1.0000
  H   H3897     1.0  0.62893  0.81851  0.01200  1.0000
  C   C2192     1.0  0.65545  0.67950  0.85084  1.0000
  H   H3898     1.0  0.69346  0.91399  0.80448  1.0000
  C   C2193     1.0  0.69013  0.81490  0.00870  1.0000
  H   H3899     1.0  0.73976  0.71890  0.01348  1.0000
  C   C2194     1.0  0.68037  0.83087  0.00603  1.0000
  H   H3900     1.0  0.62691  0.67785  0.83374  1.0000
  C   C2195     1.0  0.63359  0.67903  0.59726  1.0000
  H   H3901     1.0  0.90237  0.92214  0.93994  1.0000
  Fe  Fe242     1.0  0.72194  0.67485  0.65879  1.0000
  H   H3902     1.0  0.89329  0.89281  0.52430  1.0000
  H   H3903     1.0  0.84322  0.76639  0.52312  1.0000
  C   C2196     1.0  0.85598  0.68162  0.29722  1.0000
  H   H3904     1.0  0.71866  0.72363  0.16809  1.0000
  H   H3905     1.0  0.81328  0.74067  0.07979  1.0000
  H   H3906     1.0  0.69221  0.88351  0.28001  1.0000
  H   H3907     1.0  0.75581  0.77759  0.14020  1.0000
  C   C2197     1.0  0.77999  0.85896  0.27042  1.0000
  Fe  Fe243     1.0  0.45302  0.90975  0.44600  1.0000
  H   H3908     1.0  0.55713  0.74341  0.30942  1.0000
  C   C2198     1.0  0.60348  0.75184  0.26070  1.0000
  C   C2199     1.0  0.44322  0.76859  0.15767  1.0000
  H   H3909     1.0  0.73242  0.91189  0.12791  1.0000
  H   H3910     1.0  0.47610  0.82005  0.10867  1.0000
  C   C2200     1.0  0.54132  0.79373  0.13810  1.0000
  H   H3911     1.0  0.59351  0.73441  0.29973  1.0000
  H   H3912     1.0  0.45131  0.69335  0.15698  1.0000
  H   H3913     1.0  0.65807  0.69527  0.31891  1.0000
  H   H3914     1.0  0.49615  0.91276  0.23892  1.0000
  H   H3915     1.0  0.67589  0.70317  0.44693  1.0000
  H   H3916     1.0  0.77267  0.79093  0.24615  1.0000
  C   C2201     1.0  0.90976  0.80465  0.41567  1.0000
  H   H3917     1.0  0.46595  0.86901  0.08459  1.0000
  H   H3918     1.0  0.73258  0.86210  0.39862  1.0000
  H   H3919     1.0  0.63488  0.72514  0.14307  1.0000
  H   H3920     1.0  0.67545  0.74200  0.14506  1.0000
  C   C2202     1.0  0.70028  0.89892  0.42105  1.0000
  H   H3921     1.0  0.67274  0.76396  0.15950  1.0000
  S   S487      1.0  0.65582  0.91942  0.05960  1.0000
  Fe  Fe244     1.0  0.58264  0.90707  0.05317  1.0000
  H   H3922     1.0  0.87484  0.70244  0.35499  1.0000
  H   H3923     1.0  0.64393  0.72472  0.31806  1.0000
  C   C2203     1.0  0.47321  0.68691  0.10402  1.0000
  C   C2204     1.0  0.85121  0.68698  0.15941  1.0000
  S   S488      1.0  0.93113  0.68830  0.39663  1.0000
  C   C2205     1.0  0.59458  0.75263  0.22334  1.0000
  H   H3924     1.0  0.69854  0.90754  0.44666  1.0000
  H   H3925     1.0  0.63194  0.72857  0.24557  1.0000
  C   C2206     1.0  0.57030  0.91650  0.21348  1.0000
  H   H3926     1.0  0.75003  0.67402  0.47008  1.0000
  C   C2207     1.0  0.83221  0.69106  0.43578  1.0000
  C   C2208     1.0  0.76039  0.78322  0.40100  1.0000
  N   N122      1.0  0.69559  0.70753  0.28411  1.0000
  C   C2209     1.0  0.53827  0.73802  0.32141  1.0000
  S   S489      1.0  0.82761  0.82426  0.30742  1.0000
  H   H3927     1.0  0.93360  0.69442  0.09753  1.0000
  H   H3928     1.0  0.92905  0.69094  0.50048  1.0000
  N   N123      1.0  0.68276  0.77353  0.07558  1.0000
  C   C2210     1.0  0.63488  0.91825  0.24823  1.0000
  C   C2211     1.0  0.84606  0.71076  0.26205  1.0000
  H   H3929     1.0  0.71279  0.79207  0.12386  1.0000
  H   H3930     1.0  0.46787  0.74574  0.30626  1.0000
  C   C2212     1.0  0.76892  0.91300  0.18694  1.0000
  H   H3931     1.0  0.58097  0.90014  0.47575  1.0000
  H   H3932     1.0  0.80956  0.91422  0.07321  1.0000
  C   C2213     1.0  0.48419  0.88774  0.16004  1.0000
  N   N124      1.0  0.67931  0.87090  0.45284  1.0000
  H   H3933     1.0  0.81609  0.76408  0.47039  1.0000
  H   H3934     1.0  0.85179  0.92109  0.03986  1.0000
  H   H3935     1.0  0.79445  0.71903  0.49100  1.0000
  H   H3936     1.0  0.46278  0.83954  0.16615  1.0000
  H   H3937     1.0  0.46751  0.78362  0.07107  1.0000
  H   H3938     1.0  0.76242  0.75547  0.13641  1.0000
  H   H3939     1.0  0.45428  0.80950  0.06148  1.0000
  C   C2214     1.0  0.71006  0.78759  0.05517  1.0000
  H   H3940     1.0  0.86682  0.70748  0.13247  1.0000
  H   H3941     1.0  0.83491  0.70526  0.07850  1.0000
  H   H3942     1.0  0.67451  0.72511  0.34709  1.0000
  H   H3943     1.0  0.84285  0.68034  0.13567  1.0000
  S   S490      1.0  0.44249  0.87366  0.44556  1.0000
  C   C2215     1.0  0.65271  0.88521  0.43103  1.0000
  S   S491      1.0  0.89426  0.73271  0.22570  1.0000
  H   H3944     1.0  0.46184  0.80472  0.18051  1.0000
  H   H3945     1.0  0.72722  0.68623  0.40129  1.0000
  S   S492      1.0  0.59457  0.77630  0.12859  1.0000
  C   C2216     1.0  0.57259  0.68967  0.46741  1.0000
  H   H3946     1.0  0.48521  0.74869  0.24338  1.0000
  H   H3947     1.0  0.46919  0.74801  0.16339  1.0000
  H   H3948     1.0  0.50108  0.90840  0.07191  1.0000
  H   H3949     1.0  0.93307  0.76410  0.46519  1.0000
  H   H3950     1.0  0.92356  0.77538  0.39145  1.0000
  H   H3951     1.0  0.69293  0.88302  0.13443  1.0000
  C   C2217     1.0  0.67009  0.90411  0.05919  1.0000
  Fe  Fe245     1.0  0.57447  0.69197  0.16339  1.0000
  H   H3952     1.0  0.80026  0.72154  0.28035  1.0000
  Fe  Fe246     1.0  0.54241  0.83424  0.45311  1.0000
  C   C2218     1.0  0.61484  0.68682  0.08773  1.0000
  H   H3953     1.0  0.67198  0.83920  0.35010  1.0000
  H   H3954     1.0  0.47630  0.70549  0.29998  1.0000
  H   H3955     1.0  0.66046  0.72020  0.08691  1.0000
  S   S493      1.0  0.91666  0.68913  0.27737  1.0000
  Fe  Fe247     1.0  0.57352  0.73805  0.13744  1.0000
  H   H3956     1.0  0.82918  0.83492  0.05400  1.0000
  H   H3957     1.0  0.67861  0.69632  0.21494  1.0000
  H   H3958     1.0  0.68102  0.91414  0.20418  1.0000
  H   H3959     1.0  0.66922  0.75141  0.25010  1.0000
  C   C2219     1.0  0.75902  0.90182  0.24376  1.0000
  H   H3960     1.0  0.70275  0.77010  0.33210  1.0000
  H   H3961     1.0  0.69981  0.78669  0.39732  1.0000
  H   H3962     1.0  0.86927  0.67836  0.30146  1.0000
  C   C2220     1.0  0.82856  0.72340  0.44635  1.0000
  H   H3963     1.0  0.75304  0.85510  0.51025  1.0000
  H   H3964     1.0  0.63830  0.81450  0.12161  1.0000
  C   C2221     1.0  0.66895  0.75416  0.13619  1.0000
  H   H3965     1.0  0.91677  0.74105  0.37614  1.0000
  H   H3966     1.0  0.59402  0.80209  0.22656  1.0000
  H   H3967     1.0  0.49182  0.69164  0.09045  1.0000
  H   H3968     1.0  0.79866  0.78420  0.50803  1.0000
  N   N125      1.0  0.90678  0.77120  0.49777  1.0000
  H   H3969     1.0  0.44453  0.76243  0.19568  1.0000
  C   C2222     1.0  0.48649  0.87622  0.20494  1.0000
  H   H3970     1.0  0.63393  0.69238  0.47557  1.0000
  Fe  Fe248     1.0  0.52716  0.68651  0.18076  1.0000
  H   H3971     1.0  0.57107  0.67588  0.50384  1.0000
  S   S494      1.0  0.45768  0.88659  0.17333  1.0000
  H   H3972     1.0  0.54020  0.77641  0.14360  1.0000
  C   C2223     1.0  0.82063  0.88424  0.35966  1.0000
  C   C2224     1.0  0.79145  0.68138  0.47677  1.0000
  C   C2225     1.0  0.50770  0.87736  0.19643  1.0000
  S   S495      1.0  0.78714  0.74644  0.20796  1.0000
  C   C2226     1.0  0.77824  0.83888  0.31858  1.0000
  C   C2227     1.0  0.46666  0.74113  0.27389  1.0000
  H   H3973     1.0  0.49213  0.80095  0.25361  1.0000
  H   H3974     1.0  0.81999  0.88091  0.22625  1.0000
  H   H3975     1.0  0.73385  0.72443  0.23387  1.0000
  C   C2228     1.0  0.52387  0.90029  0.09805  1.0000
  H   H3976     1.0  0.60822  0.70526  0.24098  1.0000
  C   C2229     1.0  0.84278  0.80419  0.04633  1.0000
  H   H3977     1.0  0.65587  0.78129  0.07729  1.0000
  H   H3978     1.0  0.86968  0.80282  0.09420  1.0000
  C   C2230     1.0  0.59819  0.82016  0.19649  1.0000
  S   S496      1.0  0.59727  0.73088  0.08931  1.0000
  H   H3979     1.0  0.81475  0.82066  0.22777  1.0000
  S   S497      1.0  0.57151  0.82214  0.34367  1.0000
  H   H3980     1.0  0.48364  0.79304  0.10696  1.0000
  H   H3981     1.0  0.91776  0.84772  0.11213  1.0000
  H   H3982     1.0  0.92004  0.83441  0.33769  1.0000
  C   C2231     1.0  0.85805  0.70135  0.43012  1.0000
  H   H3983     1.0  0.81754  0.79546  0.19111  1.0000
  H   H3984     1.0  0.73046  0.90004  0.43332  1.0000
  H   H3985     1.0  0.75321  0.80461  0.06556  1.0000
  C   C2232     1.0  0.68066  0.88949  0.27132  1.0000
  H   H3986     1.0  0.83771  0.77001  0.10371  1.0000
  H   H3987     1.0  0.71717  0.81879  0.07083  1.0000
  H   H3988     1.0  0.67652  0.89710  0.29735  1.0000
  H   H3989     1.0  0.80228  0.69522  0.38927  1.0000
  H   H3990     1.0  0.89555  0.69260  0.11671  1.0000
  H   H3991     1.0  0.83713  0.68469  0.19335  1.0000
  S   S498      1.0  0.81326  0.83988  0.42544  1.0000
  H   H3992     1.0  0.73788  0.78950  0.45073  1.0000
  H   H3993     1.0  0.60797  0.69795  0.07826  1.0000
  C   C2233     1.0  0.50874  0.81897  0.24262  1.0000
  H   H3994     1.0  0.56214  0.76003  0.37563  1.0000
  H   H3995     1.0  0.72367  0.68472  0.05100  1.0000
  C   C2234     1.0  0.83940  0.77849  0.06243  1.0000
  H   H3996     1.0  0.89159  0.74837  0.43658  1.0000
  C   C2235     1.0  0.45828  0.69885  0.33127  1.0000
  H   H3997     1.0  0.67619  0.71900  0.24837  1.0000
  C   C2236     1.0  0.72079  0.72951  0.23573  1.0000
  H   H3998     1.0  0.72458  0.71189  0.39098  1.0000
  C   C2237     1.0  0.61501  0.73335  0.45765  1.0000
  H   H3999     1.0  0.76081  0.82307  0.51747  1.0000
  S   S499      1.0  0.68621  0.84724  0.22166  1.0000
  H   H4000     1.0  0.50961  0.86881  0.23129  1.0000
  C   C2238     1.0  0.85929  0.88990  0.49501  1.0000
  S   S500      1.0  0.74217  0.86235  0.16378  1.0000
  H   H4001     1.0  0.77850  0.85377  0.13145  1.0000
  C   C2239     1.0  0.56854  0.91791  0.26483  1.0000
  H   H4002     1.0  0.92043  0.77608  0.26842  1.0000
  H   H4003     1.0  0.73339  0.83490  0.36212  1.0000
  H   H4004     1.0  0.75154  0.76043  0.48483  1.0000
  H   H4005     1.0  0.86986  0.72243  0.40686  1.0000
  H   H4006     1.0  0.85730  0.69445  0.47059  1.0000
  H   H4007     1.0  0.69959  0.90934  0.38436  1.0000
  C   C2240     1.0  0.51284  0.74671  0.43720  1.0000
  Fe  Fe249     1.0  0.57967  0.85920  0.33366  1.0000
  H   H4008     1.0  0.45970  0.75057  0.25279  1.0000
  H   H4009     1.0  0.55294  0.91872  0.28125  1.0000
  C   C2241     1.0  0.47390  0.82293  0.42369  1.0000
  H   H4010     1.0  0.63284  0.74757  0.15829  1.0000
  H   H4011     1.0  0.53260  0.79731  0.07176  1.0000
  H   H4012     1.0  0.80348  0.85918  0.49529  1.0000
  H   H4013     1.0  0.56450  0.77511  0.21676  1.0000
  C   C2242     1.0  0.55426  0.67435  0.45120  1.0000
  H   H4014     1.0  0.45026  0.68331  0.49657  1.0000
  H   H4015     1.0  0.80864  0.89417  0.25914  1.0000
  C   C2243     1.0  0.50193  0.89488  0.30309  1.0000
  H   H4016     1.0  0.56503  0.81502  0.04976  1.0000
  C   C2244     1.0  0.75494  0.80147  0.41075  1.0000
  C   C2245     1.0  0.91696  0.73932  0.41470  1.0000
  Fe  Fe250     1.0  0.85891  0.82137  0.29944  1.0000
  C   C2246     1.0  0.50283  0.89965  0.10661  1.0000
  S   S501      1.0  0.54618  0.72528  0.10786  1.0000
  C   C2247     1.0  0.62988  0.68690  0.04545  1.0000
  H   H4017     1.0  0.84982  0.86107  0.47120  1.0000
  C   C2248     1.0  0.45846  0.81082  0.14540  1.0000
  H   H4018     1.0  0.56451  0.74859  0.45984  1.0000
  Fe  Fe251     1.0  0.83931  0.84567  0.34936  1.0000
  S   S502      1.0  0.86509  0.88355  0.27063  1.0000
  S   S503      1.0  0.85677  0.78723  0.30396  1.0000
  C   C2249     1.0  0.46910  0.85470  0.08352  1.0000
  H   H4019     1.0  0.82829  0.80019  0.08295  1.0000
  C   C2250     1.0  0.85374  0.86411  0.50331  1.0000
  C   C2251     1.0  0.67675  0.71296  0.28733  1.0000
  H   H4020     1.0  0.51510  0.89320  0.27707  1.0000
  H   H4021     1.0  0.50827  0.81872  0.28076  1.0000
  C   C2252     1.0  0.65571  0.86846  0.47447  1.0000
  H   H4022     1.0  0.53099  0.69231  0.50682  1.0000
  H   H4023     1.0  0.46254  0.70629  0.35833  1.0000
  H   H4024     1.0  0.66395  0.90523  0.42083  1.0000
  S   S504      1.0  0.74541  0.68749  0.20576  1.0000
  H   H4025     1.0  0.93648  0.72069  0.49364  1.0000
  H   H4026     1.0  0.89593  0.80692  0.43695  1.0000
  C   C2253     1.0  0.67538  0.89773  0.10183  1.0000
  H   H4027     1.0  0.75587  0.83121  0.06911  1.0000
  S   S505      1.0  0.85043  0.87542  0.15553  1.0000
  H   H4028     1.0  0.55317  0.89884  0.22502  1.0000
  H   H4029     1.0  0.50839  0.83488  0.21864  1.0000
  H   H4030     1.0  0.56423  0.89992  0.29543  1.0000
  H   H4031     1.0  0.49017  0.80506  0.45370  1.0000
  H   H4032     1.0  0.48784  0.76255  0.09098  1.0000
  H   H4033     1.0  0.84450  0.77124  0.42539  1.0000
  C   C2254     1.0  0.80566  0.88411  0.23621  1.0000
  H   H4034     1.0  0.60537  0.82301  0.15485  1.0000
  H   H4035     1.0  0.84279  0.88894  0.49670  1.0000
  H   H4036     1.0  0.55718  0.68731  0.41155  1.0000
  C   C2255     1.0  0.52640  0.88945  0.14304  1.0000
  H   H4037     1.0  0.85800  0.81875  0.11196  1.0000
  H   H4038     1.0  0.82937  0.73826  0.31422  1.0000
  H   H4039     1.0  0.55079  0.77502  0.30993  1.0000
  H   H4040     1.0  0.85489  0.78066  0.03280  1.0000
  H   H4041     1.0  0.52919  0.79687  0.27890  1.0000
  C   C2256     1.0  0.92909  0.82923  0.36015  1.0000
  C   C2257     1.0  0.84708  0.84863  0.04920  1.0000
  C   C2258     1.0  0.67985  0.73317  0.30288  1.0000
  C   C2259     1.0  0.90933  0.91055  0.48590  1.0000
  H   H4042     1.0  0.48330  0.87679  0.32449  1.0000
  H   H4043     1.0  0.77154  0.86601  0.36048  1.0000
  H   H4044     1.0  0.64492  0.82264  0.47108  1.0000
  H   H4045     1.0  0.67915  0.68945  0.37271  1.0000
  C   C2260     1.0  0.86346  0.70645  0.26546  1.0000
  C   C2261     1.0  0.71569  0.69277  0.39571  1.0000
  H   H4046     1.0  0.88587  0.83450  0.15000  1.0000
  Fe  Fe252     1.0  0.77219  0.70621  0.23197  1.0000
  C   C2262     1.0  0.87934  0.75760  0.52228  1.0000
  C   C2263     1.0  0.47221  0.79919  0.45581  1.0000
  H   H4047     1.0  0.79035  0.84873  0.33321  1.0000
  H   H4048     1.0  0.52978  0.72600  0.30523  1.0000
  C   C2264     1.0  0.85095  0.72332  0.04035  1.0000
  S   S506      1.0  0.77981  0.67499  0.10160  1.0000
  H   H4049     1.0  0.91980  0.77768  0.11825  1.0000
  C   C2265     1.0  0.57420  0.72792  0.42706  1.0000
  C   C2266     1.0  0.82661  0.75069  0.28788  1.0000
  C   C2267     1.0  0.78958  0.69330  0.42507  1.0000
  C   C2268     1.0  0.65657  0.83755  0.42713  1.0000
  H   H4050     1.0  0.77769  0.67898  0.51173  1.0000
  H   H4051     1.0  0.90280  0.73634  0.51255  1.0000
  H   H4052     1.0  0.62466  0.88918  0.42195  1.0000
  H   H4053     1.0  0.82703  0.91931  0.30819  1.0000
  H   H4054     1.0  0.91194  0.84127  0.03869  1.0000
  H   H4055     1.0  0.70916  0.75059  0.37358  1.0000
  C   C2269     1.0  0.53904  0.76194  0.29954  1.0000
  C   C2270     1.0  0.82153  0.69020  0.28723  1.0000
  H   H4056     1.0  0.91357  0.91232  0.05153  1.0000
  H   H4057     1.0  0.93553  0.74548  0.40852  1.0000
  H   H4058     1.0  0.83513  0.70001  0.39328  1.0000
  H   H4059     1.0  0.72473  0.84048  0.46667  1.0000
  H   H4060     1.0  0.46278  0.84908  0.05633  1.0000
  H   H4061     1.0  0.65758  0.75377  0.05008  1.0000
  H   H4062     1.0  0.77570  0.85165  0.24351  1.0000
  H   H4063     1.0  0.65402  0.87350  0.50682  1.0000
  C   C2271     1.0  0.57504  0.81983  0.21243  1.0000
  H   H4064     1.0  0.45790  0.72463  0.44001  1.0000
  C   C2272     1.0  0.66353  0.74135  0.29436  1.0000
  H   H4065     1.0  0.47335  0.69079  0.17432  1.0000
  H   H4066     1.0  0.90998  0.90677  0.11810  1.0000
  C   C2273     1.0  0.69772  0.70343  0.33567  1.0000
  H   H4067     1.0  0.56844  0.82981  0.12690  1.0000
  H   H4068     1.0  0.84696  0.73333  0.44327  1.0000
  C   C2274     1.0  0.62609  0.87611  0.45257  1.0000
  H   H4069     1.0  0.90545  0.78158  0.22993  1.0000
  C   C2275     1.0  0.48632  0.70055  0.48780  1.0000
  H   H4070     1.0  0.63942  0.84849  0.49577  1.0000
  C   C2276     1.0  0.92424  0.87700  0.39230  1.0000
  S   S507      1.0  0.53997  0.84434  0.37539  1.0000
  C   C2277     1.0  0.68851  0.88733  0.10222  1.0000
  C   C2278     1.0  0.89900  0.83392  0.12065  1.0000
  H   H4071     1.0  0.81725  0.76600  0.02421  1.0000
  C   C2279     1.0  0.57368  0.89821  0.44707  1.0000
  C   C2280     1.0  0.47211  0.72433  0.44754  1.0000
  C   C2281     1.0  0.91062  0.75593  0.42841  1.0000
  C   C2282     1.0  0.50876  0.72344  0.46716  1.0000
  H   H4072     1.0  0.61309  0.83879  0.23833  1.0000
  H   H4073     1.0  0.58646  0.73399  0.50621  1.0000
  H   H4074     1.0  0.57256  0.88248  0.44250  1.0000
  H   H4075     1.0  0.81583  0.72786  0.51614  1.0000
  H   H4076     1.0  0.44943  0.70886  0.26489  1.0000
  S   S508      1.0  0.55259  0.89080  0.13584  1.0000
  C   C2283     1.0  0.81990  0.78292  0.21850  1.0000
  H   H4077     1.0  0.59706  0.76398  0.42258  1.0000
  C   C2284     1.0  0.74010  0.85642  0.42483  1.0000
  S   S509      1.0  0.60775  0.89588  0.25265  1.0000
  H   H4078     1.0  0.69907  0.75030  0.27805  1.0000
  H   H4079     1.0  0.92586  0.70157  0.04383  1.0000
  C   C2285     1.0  0.77389  0.91200  0.26541  1.0000
  H   H4080     1.0  0.70598  0.72148  0.33598  1.0000
  C   C2286     1.0  0.54707  0.80900  0.07944  1.0000
  S   S510      1.0  0.86818  0.83922  0.34900  1.0000
  H   H4081     1.0  0.89979  0.92154  0.28798  1.0000
  H   H4082     1.0  0.90958  0.86485  0.43447  1.0000
  H   H4083     1.0  0.63533  0.84204  0.18299  1.0000
  H   H4084     1.0  0.69729  0.67929  0.43293  1.0000
  C   C2287     1.0  0.58039  0.76942  0.37291  1.0000
  C   C2288     1.0  0.62842  0.71799  0.22386  1.0000
  H   H4085     1.0  0.66556  0.75477  0.30896  1.0000
  C   C2289     1.0  0.69682  0.88354  0.05982  1.0000
  H   H4086     1.0  0.51484  0.78214  0.24771  1.0000
  S   S511      1.0  0.70171  0.70045  0.50726  1.0000
  H   H4087     1.0  0.84558  0.84279  0.09045  1.0000
  C   C2290     1.0  0.53210  0.82276  0.20810  1.0000
  H   H4088     1.0  0.83235  0.73215  0.40301  1.0000
  H   H4089     1.0  0.85165  0.72996  0.23859  1.0000
  H   H4090     1.0  0.89444  0.81450  0.14010  1.0000
  H   H4091     1.0  0.90372  0.89929  0.42739  1.0000
  C   C2291     1.0  0.50205  0.91693  0.26793  1.0000
  S   S512      1.0  0.53163  0.79576  0.47080  1.0000
  S   S513      1.0  0.88626  0.85776  0.21895  1.0000
  S   S514      1.0  0.59280  0.80099  0.45203  1.0000
  H   H4092     1.0  0.47452  0.85883  0.49033  1.0000
  H   H4093     1.0  0.86021  0.90819  0.40150  1.0000
  C   C2292     1.0  0.87054  0.69300  0.39837  1.0000
  C   C2293     1.0  0.83872  0.77600  0.27457  1.0000
  H   H4094     1.0  0.79384  0.71229  0.41478  1.0000
  S   S515      1.0  0.50034  0.77674  0.38945  1.0000
  H   H4095     1.0  0.53074  0.70924  0.02491  1.0000
  H   H4096     1.0  0.65391  0.81326  0.18800  1.0000
  H   H4097     1.0  0.75197  0.87302  0.42738  1.0000
  H   H4098     1.0  0.52306  0.72323  0.47425  1.0000
  C   C2294     1.0  0.61868  0.84166  0.19649  1.0000
  H   H4099     1.0  0.59121  0.69972  0.43286  1.0000
  C   C2295     1.0  0.81214  0.89559  0.44222  1.0000
  H   H4100     1.0  0.73258  0.70713  0.30993  1.0000
  C   C2296     1.0  0.81421  0.73070  0.47845  1.0000
  C   C2297     1.0  0.60698  0.77514  0.17321  1.0000
  C   C2298     1.0  0.83556  0.79218  0.23928  1.0000
  H   H4101     1.0  0.64581  0.84401  0.41489  1.0000
  C   C2299     1.0  0.63959  0.91309  0.29227  1.0000
  C   C2300     1.0  0.92825  0.68804  0.07025  1.0000
  C   C2301     1.0  0.93105  0.90899  0.47638  1.0000
  H   H4102     1.0  0.58607  0.78790  0.36954  1.0000
  C   C2302     1.0  0.78621  0.84646  0.15309  1.0000
  S   S516      1.0  0.69992  0.81181  0.28709  1.0000
  C   C2303     1.0  0.62490  0.77363  0.24814  1.0000
  C   C2304     1.0  0.82303  0.90688  0.34823  1.0000
  C   C2305     1.0  0.91353  0.75634  0.47819  1.0000
  C   C2306     1.0  0.70014  0.76038  0.37376  1.0000
  H   H4103     1.0  0.53301  0.82578  0.16808  1.0000
  H   H4104     1.0  0.92690  0.80711  0.23515  1.0000
  H   H4105     1.0  0.87893  0.89793  0.38971  1.0000
  H   H4106     1.0  0.44952  0.74709  0.48223  1.0000
  H   H4107     1.0  0.53832  0.90961  0.05676  1.0000
  H   H4108     1.0  0.83419  0.87235  0.04413  1.0000
  H   H4109     1.0  0.80765  0.89648  0.19727  1.0000
  Fe  Fe253     1.0  0.71143  0.85369  0.14378  1.0000
  Fe  Fe254     1.0  0.46036  0.91367  0.10047  1.0000
  C   C2307     1.0  0.45521  0.83208  0.14216  1.0000
  H   H4110     1.0  0.80922  0.90009  0.47415  1.0000
  H   H4111     1.0  0.72286  0.81184  0.42889  1.0000
  H   H4112     1.0  0.45500  0.73979  0.12301  1.0000
  C   C2308     1.0  0.72077  0.80421  0.07900  1.0000
  H   H4113     1.0  0.68281  0.83843  0.03356  1.0000
  C   C2309     1.0  0.64054  0.73649  0.16243  1.0000
  C   C2310     1.0  0.81420  0.86725  0.41225  1.0000
  H   H4114     1.0  0.86892  0.67967  0.20380  1.0000
  H   H4115     1.0  0.56893  0.81682  0.25435  1.0000
  H   H4116     1.0  0.92645  0.89139  0.47600  1.0000
  C   C2311     1.0  0.71110  0.77951  0.39096  1.0000
  H   H4117     1.0  0.82378  0.88001  0.32758  1.0000
  H   H4118     1.0  0.82006  0.88310  0.11480  1.0000
  N   N126      1.0  0.75277  0.81754  0.36615  1.0000
  H   H4119     1.0  0.76278  0.68623  0.39731  1.0000
  C   C2312     1.0  0.56151  0.80963  0.14970  1.0000
  C   C2313     1.0  0.67544  0.79145  0.06736  1.0000
  C   C2314     1.0  0.82023  0.91337  0.38845  1.0000
  H   H4120     1.0  0.47202  0.86676  0.24632  1.0000
  C   C2315     1.0  0.81600  0.75925  0.06530  1.0000
  H   H4121     1.0  0.61832  0.71917  0.45629  1.0000
  C   C2316     1.0  0.91871  0.90561  0.08267  1.0000
  C   C2317     1.0  0.53180  0.79938  0.23808  1.0000
  S   S517      1.0  0.71441  0.87169  0.06073  1.0000
  H   H4122     1.0  0.90042  0.78962  0.40687  1.0000
  C   C2318     1.0  0.80896  0.87246  0.45417  1.0000
  H   H4123     1.0  0.75770  0.91770  0.04140  1.0000
  H   H4124     1.0  0.84520  0.81186  0.22794  1.0000
  H   H4125     1.0  0.93129  0.79694  0.04602  1.0000
  H   H4126     1.0  0.54773  0.82620  0.07268  1.0000
  H   H4127     1.0  0.93528  0.90824  0.51025  1.0000
  H   H4128     1.0  0.67646  0.79837  0.09656  1.0000
  H   H4129     1.0  0.78699  0.83129  0.30036  1.0000
  H   H4130     1.0  0.80819  0.69352  0.28413  1.0000
  S   S518      1.0  0.63483  0.77213  0.29711  1.0000
  H   H4131     1.0  0.91149  0.88552  0.09630  1.0000
  C   C2319     1.0  0.82419  0.75849  0.44419  1.0000
  C   C2320     1.0  0.68182  0.85798  0.50097  1.0000
  C   C2321     1.0  0.80683  0.82791  0.20712  1.0000
  H   H4132     1.0  0.48881  0.83419  0.38051  1.0000
  C   C2322     1.0  0.90447  0.91395  0.43657  1.0000
  H   H4133     1.0  0.45638  0.81754  0.42345  1.0000
  H   H4134     1.0  0.69363  0.85479  0.41507  1.0000
  C   C2323     1.0  0.75529  0.84863  0.39948  1.0000
  H   H4135     1.0  0.74397  0.76714  0.40567  1.0000
  H   H4136     1.0  0.61456  0.85675  0.45963  1.0000
  H   H4137     1.0  0.57749  0.73611  0.23457  1.0000
  H   H4138     1.0  0.48359  0.71920  0.11480  1.0000
  H   H4139     1.0  0.43679  0.88434  0.33614  1.0000
  H   H4140     1.0  0.58587  0.91581  0.19490  1.0000
  S   S519      1.0  0.59471  0.88174  0.05874  1.0000
  H   H4141     1.0  0.62337  0.86032  0.16787  1.0000
  H   H4142     1.0  0.57735  0.80953  0.12973  1.0000
  S   S520      1.0  0.74214  0.80004  0.20709  1.0000
  Fe  Fe255     1.0  0.67298  0.80673  0.25680  1.0000
  C   C2324     1.0  0.74994  0.76112  0.13418  1.0000
  C   C2325     1.0  0.77261  0.82048  0.19074  1.0000
  H   H4143     1.0  0.88804  0.69848  0.39863  1.0000
  H   H4144     1.0  0.48592  0.67457  0.02904  1.0000
  C   C2326     1.0  0.80995  0.86311  0.14298  1.0000
  C   C2327     1.0  0.63178  0.74806  0.47625  1.0000
  H   H4145     1.0  0.90208  0.86026  0.05032  1.0000
  H   H4146     1.0  0.71174  0.74553  0.17378  1.0000
  H   H4147     1.0  0.90353  0.71907  0.44824  1.0000
  N   N127      1.0  0.88206  0.91337  0.44274  1.0000
  Fe  Fe256     1.0  0.56864  0.71533  0.06494  1.0000
  H   H4148     1.0  0.66917  0.90071  0.13492  1.0000
  C   C2328     1.0  0.76704  0.77176  0.44242  1.0000
  H   H4149     1.0  0.75739  0.90590  0.16994  1.0000
  C   C2329     1.0  0.72652  0.90564  0.39908  1.0000
  Fe  Fe257     1.0  0.92198  0.72593  0.23328  1.0000
  C   C2330     1.0  0.82042  0.85395  0.16970  1.0000
  H   H4150     1.0  0.61919  0.87575  0.49156  1.0000
  C   C2331     1.0  0.73805  0.80216  0.34640  1.0000
  C   C2332     1.0  0.58763  0.71988  0.49771  1.0000
  H   H4151     1.0  0.47807  0.83505  0.44176  1.0000
  Fe  Fe258     1.0  0.89321  0.87617  0.26820  1.0000
  C   C2333     1.0  0.74857  0.81822  0.05381  1.0000
  C   C2334     1.0  0.58205  0.92113  0.34888  1.0000
  H   H4152     1.0  0.87345  0.75762  0.49097  1.0000
  N   N128      1.0  0.56957  0.70822  0.47910  1.0000
  C   C2335     1.0  0.67653  0.76095  0.04318  1.0000
  S   S521      1.0  0.79604  0.69507  0.20123  1.0000
  H   H4153     1.0  0.53848  0.76577  0.05268  1.0000
  H   H4154     1.0  0.62738  0.89447  0.32857  1.0000
  H   H4155     1.0  0.58701  0.90954  0.33698  1.0000
  H   H4156     1.0  0.58109  0.83949  0.18564  1.0000
  H   H4157     1.0  0.45830  0.90850  0.26382  1.0000
  H   H4158     1.0  0.79975  0.75623  0.09466  1.0000
  N   N129      1.0  0.81660  0.69526  0.47184  1.0000
  H   H4159     1.0  0.72873  0.89600  0.37665  1.0000
  H   H4160     1.0  0.75173  0.76703  0.09263  1.0000
  H   H4161     1.0  0.55502  0.89360  0.46510  1.0000
  H   H4162     1.0  0.70230  0.68170  0.27060  1.0000
  H   H4163     1.0  0.71502  0.77411  0.06475  1.0000
  C   C2336     1.0  0.62867  0.79691  0.16013  1.0000
  H   H4164     1.0  0.62973  0.76304  0.47721  1.0000
  H   H4165     1.0  0.47231  0.69661  0.06714  1.0000
  H   H4166     1.0  0.46882  0.78862  0.43425  1.0000
  H   H4167     1.0  0.76640  0.90353  0.30934  1.0000
  H   H4168     1.0  0.76943  0.81382  0.41769  1.0000
  H   H4169     1.0  0.90106  0.87939  0.35845  1.0000
  H   H4170     1.0  0.72847  0.74625  0.24094  1.0000
  C   C2337     1.0  0.44946  0.71242  0.29899  1.0000
  C   C2338     1.0  0.63759  0.79617  0.19762  1.0000
  H   H4171     1.0  0.52008  0.75613  0.32120  1.0000
  C   C2339     1.0  0.89769  0.84095  0.06734  1.0000
  H   H4172     1.0  0.55848  0.71970  0.41924  1.0000
  H   H4173     1.0  0.92483  0.81160  0.46812  1.0000
  C   C2340     1.0  0.72333  0.73886  0.17780  1.0000
  C   C2341     1.0  0.92133  0.79856  0.45179  1.0000
  H   H4174     1.0  0.70662  0.69805  0.05022  1.0000
  C   C2342     1.0  0.54840  0.77474  0.23693  1.0000
  C   C2343     1.0  0.57922  0.75270  0.42419  1.0000
  H   H4175     1.0  0.67128  0.81763  0.40684  1.0000
  Fe  Fe259     1.0  0.72453  0.82046  0.20607  1.0000
  H   H4176     1.0  0.69705  0.90110  0.18637  1.0000
  C   C2344     1.0  0.87866  0.91324  0.39438  1.0000
  H   H4177     1.0  0.51237  0.86038  0.46281  1.0000
  S   S522      1.0  0.58246  0.85195  0.41015  1.0000
  H   H4178     1.0  0.59392  0.77334  0.33517  1.0000
  S   S523      1.0  0.72844  0.87454  0.28706  1.0000
  H   H4179     1.0  0.77561  0.79311  0.35917  1.0000
  S   S524      1.0  0.93168  0.90706  0.24099  1.0000
  C   C2345     1.0  0.78305  0.81110  0.21723  1.0000
  C   C2346     1.0  0.80709  0.75744  0.23349  1.0000
  H   H4180     1.0  0.48822  0.91706  0.29656  1.0000
  H   H4181     1.0  0.54808  0.84032  0.20052  1.0000
  H   H4182     1.0  0.76697  0.86335  0.28415  1.0000
  C   C2347     1.0  0.69380  0.90958  0.21065  1.0000
  H   H4183     1.0  0.77088  0.75891  0.43408  1.0000
  H   H4184     1.0  0.78371  0.78697  0.43897  1.0000
  H   H4185     1.0  0.66309  0.87254  0.28192  1.0000
  H   H4186     1.0  0.73727  0.81440  0.31246  1.0000
  H   H4187     1.0  0.81889  0.76099  0.41158  1.0000
  H   H4188     1.0  0.65120  0.75735  0.44704  1.0000
  C   C2348     1.0  0.67517  0.67904  0.24573  1.0000
  H   H4189     1.0  0.74744  0.79529  0.32698  1.0000
  S   S525      1.0  0.69646  0.81270  0.17901  1.0000
  H   H4190     1.0  0.52743  0.72659  0.36689  1.0000
  N   N130      1.0  0.55414  0.80082  0.20930  1.0000
  Fe  Fe260     1.0  0.71602  0.85338  0.24405  1.0000
  H   H4191     1.0  0.70938  0.76905  0.43112  1.0000
  C   C2349     1.0  0.71360  0.69408  0.34479  1.0000
  C   C2350     1.0  0.87208  0.82125  0.07766  1.0000
  C   C2351     1.0  0.68098  0.86041  0.41529  1.0000
  C   C2352     1.0  0.81044  0.74130  0.26812  1.0000
  H   H4192     1.0  0.76178  0.84202  0.42739  1.0000
  H   H4193     1.0  0.48913  0.86383  0.06562  1.0000
  N   N131      1.0  0.86782  0.82668  0.02892  1.0000
  H   H4194     1.0  0.69922  0.85976  0.48651  1.0000
  C   C2353     1.0  0.47006  0.69818  0.13990  1.0000
  H   H4195     1.0  0.50671  0.89760  0.33462  1.0000
  H   H4196     1.0  0.47903  0.76349  0.50572  1.0000
  Fe  Fe261     1.0  0.85565  0.86171  0.22843  1.0000
  C   C2354     1.0  0.46784  0.70097  0.47886  1.0000
  C   C2355     1.0  0.66409  0.69641  0.48889  1.0000
  C   C2356     1.0  0.91932  0.88479  0.34940  1.0000
  H   H4197     1.0  0.53386  0.76139  0.23171  1.0000
  H   H4198     1.0  0.52298  0.78768  0.16548  1.0000
  H   H4199     1.0  0.65875  0.88499  0.39261  1.0000
  H   H4200     1.0  0.63519  0.70606  0.23142  1.0000
  C   C2357     1.0  0.66121  0.82523  0.39494  1.0000
  Fe  Fe262     1.0  0.57165  0.81395  0.42356  1.0000
  C   C2358     1.0  0.46985  0.75548  0.12309  1.0000
  H   H4201     1.0  0.56160  0.90937  0.37017  1.0000
  C   C2359     1.0  0.92293  0.79035  0.23132  1.0000
  H   H4202     1.0  0.49154  0.68729  0.33724  1.0000
  C   C2360     1.0  0.73998  0.82758  0.38915  1.0000
  C   C2361     1.0  0.64035  0.69017  0.50512  1.0000
  H   H4203     1.0  0.59010  0.73365  0.39093  1.0000
  H   H4204     1.0  0.68952  0.87541  0.37182  1.0000
  H   H4205     1.0  0.64284  0.85349  0.02847  1.0000
  Fe  Fe263     1.0  0.53198  0.80659  0.39046  1.0000
  C   C2362     1.0  0.46723  0.77725  0.11103  1.0000
  S   S526      1.0  0.55250  0.70003  0.21409  1.0000
  C   C2363     1.0  0.59072  0.92293  0.39155  1.0000
  H   H4206     1.0  0.53028  0.76428  0.42134  1.0000
  H   H4207     1.0  0.64339  0.80925  0.40378  1.0000
  C   C2364     1.0  0.49461  0.74724  0.42713  1.0000
  H   H4208     1.0  0.68018  0.74601  0.40311  1.0000
  H   H4209     1.0  0.62057  0.74691  0.41551  1.0000
  H   H4210     1.0  0.92975  0.74972  0.10218  1.0000
  Fe  Fe264     1.0  0.76774  0.67389  0.18113  1.0000
  H   H4211     1.0  0.86932  0.86317  0.50169  1.0000
  H   H4212     1.0  0.85617  0.73884  0.04943  1.0000
  C   C2365     1.0  0.49817  0.84853  0.50539  1.0000
  S   S527      1.0  0.54779  0.67582  0.13509  1.0000
  H   H4213     1.0  0.91135  0.75280  0.07218  1.0000
  C   C2366     1.0  0.76365  0.67672  0.43433  1.0000
  H   H4214     1.0  0.86639  0.72171  0.02813  1.0000
  H   H4215     1.0  0.66273  0.81836  0.52142  1.0000
  C   C2367     1.0  0.68683  0.68325  0.28321  1.0000
  C   C2368     1.0  0.92965  0.76323  0.06925  1.0000
  H   H4216     1.0  0.43756  0.87567  0.28487  1.0000
  H   H4217     1.0  0.86482  0.88699  0.03523  1.0000
  C   C2369     1.0  0.67857  0.73838  0.05449  1.0000
  H   H4218     1.0  0.69175  0.73942  0.06936  1.0000
  H   H4219     1.0  0.70537  0.67482  0.35077  1.0000
  H   H4220     1.0  0.92994  0.81100  0.12879  1.0000
  C   C2370     1.0  0.43957  0.89077  0.29368  1.0000
  H   H4221     1.0  0.62733  0.73493  0.51777  1.0000
  N   N132      1.0  0.43782  0.78800  0.15004  1.0000
  H   H4222     1.0  0.60875  0.78088  0.52136  1.0000
  C   C2371     1.0  0.57630  0.77639  0.52079  1.0000
  C   C2372     1.0  0.72340  0.70045  0.02528  1.0000
  C   C2373     1.0  0.85165  0.87466  0.02582  1.0000
  S   S528      1.0  0.65335  0.91293  0.51794  1.0000
  C   C2374     1.0  0.93406  0.78560  0.07657  1.0000
  H   H4223     1.0  0.52297  0.92017  0.51918  1.0000
  C   C2375     1.0  0.45212  0.78295  0.51696  1.0000
  C   C2376     1.0  0.47692  0.84774  0.52093  1.0000
  H   H4224     1.0  0.57172  0.83577  0.52251  1.0000
