data_image0
_chemical_formula_structural       C2H2CHC2H5CH3CFe2H4CH2CH3CH2FeH4NH2CH3C2HNHCFeH3CH10SC2SC4H2CH2C2H2CHCH4CFe2HCS2H3FeH2NH2CH3CSC2H4C2H2C2H3C5H4CHFeNH3SHC2HCHCHCSCH4SHCH2NCFeH2C4FeH3CHC2SHNHCSCHCHCH4S2H2CH2CFeHCHSHCHC2HC3NC2HC3HCH2SH2CH2CHC2HCH2C5H2CSH2CH2CHCH6CH2SCH2C3HC6H9SH2CH6CH4NCH2CHCH3CH4CHSFeC4HC7HCH2CH3CH4CH12C4H2CH2CHSCH2CH2CHCSH2CH5CHCS2H2C2HCSCHCNCH4SHCH3CSC2HSH7C2HFeSCH3C2H2CH10CH2CH10SCHCH3CH3CH3CH2NCH2C2HCHCHSHCH3FeH2CHCSH5C2SHC2HCFeH2CH2CH3C4HCH2CH2CH3CSH2FeC3HCFeHCH4CHCH3CHCH3CH2FeHSH2CHCSH3C3H4C2HS3HSHCHCH2SC4HCH4CH2SH2CSCHCH3CH2C3SH4CH2C2H4CSC2SH2CH2SH2NH5CH2CFeHC2H2CHCH6CHFeHCNH2CHC2HCH3CH8C2H7C2HSCHCSHSH2FeCHCH2CH3FeHC2HC5H2C2H7CH3CS2H3C4HFeCHS2HNCH2C2H3CFeSH3C3H4CHCH2SH2CNCHFeH3C2H3FeSCHFeCH3CHC2H8CHC2H2CSHNCHC4H4C4H2FeH3C2H9SHC2H3CH3CHC2HC2HN2HFeHCH4CH2CHCHCNSHCHCHCSHCSHCHCHCH4CH3C2H2C3HCHSH2CSH3CSCH3CH2SH2CH3C2H2CS2CH5SCSH2C2H3CHSH4CH7FeCH4FeHCH6CH2FeH3CH9CH3C2HCH2CH3C3HSH2CHCHSCHCHSHCHCH2CH5CHCSC2HCH2CS2H2C2H2CHC2H7CHNSHCSC2H2CHSCHNHSH3CH3FeC2HSCH2CH2NHCH2CHSH2C2HSCHCHCHCSHCHNH3FeHCH4SH5Fe2C2H2C2H2CH3CHCH2CH4C3HC2FeHCHSCHCSHCHC3H2CHCH2C2NCH4CHC3SCH6FeNH3CHCH7CH2CNHSCSFeH2C2H2CNCH2CFeHC2H5CSH2FeH2CH3CH3CH3CH6CS2FeCH3C2H2CSHCH3FeHC4H3C2H2CH7FeC2H2CH2C2HCHCHC3SCH2CH5SHSH3SCHCH2NH2CSH3CNCH2C2FeC2H3CH2C2H3CFeH5CHNHCHSNHCH2CFeH5CHCH5CH2CH5CH4C2HSH4FeCHFeHCHCHSC3FeH2CSHCHCH2CH3SH3SCH2CHCH2CFeCHSHS2NH3CH2CH5C2SH3NH2CHC2FeC3NHSH2CH4S2HC4H2SHCHFeHC2HC2H4C3FeH12CHCHCH5C3H2C2H7CH3CSC3FeCH3S2HC2HSFeH2NHCHCHCH3SCS2HSH3CHC2HCHC2H2C2SFeCH8SC5HC2H2FeCSC2H6FeCHCH7CFeC2HCHCHCH3C3H3C2HFe2H2CH2SHC4H4CH2CHC2SHCH4CHCSHCHCH2S2HCH3SH2C2H4C2HC2H6SH5C2H4C2HCH2C3H3CH3C2H3CHCHC2HCH4CH2CHSHFeHCFeHFeHCH2NFe2CNCHSCH3C2HCH2C3HCH7SHCH2CHCHCH4CHCSCH4CSHSH5CH2CSCH3C2H4C2H2C3H2C5H3CHSC2H2CHC2H3SHCHSH2FeHCH4NHCSH2CH2CFeHSH2CH2CFeHCH3CH2C2HNCH2C3HSH4CHSHC2SH2C5H4CH3FeHCFeH2SHSH4CSH2CHCH2C3FeSH2NH2C2HCHC2H2SFeCH2C2H3CSCHNHCH2N2H3CHCHCH4S2H3SNH5C2HFeC2H2CHCSH2C3H10CH8C3SH3CH3C5H7CHCHFeSHCHSC2HSHC3H8CH3CHC3HCH2CHFeC5S2C2H6CHCHC3H5CHCHCH2CHCH3C2H4NFeH3C3HCH5CH3CH3CH3C2H2CHCH2C3H2CHC2FeCHC3H5CHCH2C2H2CH3CH3C2SHNSH2SHC2H4SH2C2SHSH3SFeH4SNH3CHC2H2CH4CH2SFeCH2SH4C2SCSH2CH2C2SC2FeSHC4HSH6CH2CHC2H2FeHCHCNCHSHFeHSHCH10C2HC2H2CH3C3HCH4FeCHCSCSH3C2H6SHCHCHC2SCHCHCHCH3C2H3NC3FeC2HFeH3C3HCH2CHCH4CH2CHCH3C2HCH2SC2H2SCHCSCH2CSFeHFeHC3HNH2SCH8CH4C2NHCH3CH2CH3NC2HSC4HCFeHCHCH4SCHFeH6CHCFeHC2HSH3C2H4CH3CHCH6SCH4CH2C3H3SHCH4C2H3C2H3CH2NH8C2H7SHCFeHSCHCHCH2CH4CHC2H5SHCSCHC2H5C2H2SHSCH5CFeCH2CH2C2H3CH2FeC2NH4CHCH2CH2C4H2C2HCH2C2H2C2HCFeSNCFeHCH2SCHCHCHCHCFeHSCHCH2CH2CH4C2HCHC2SH2CHCHCH6CSHSC2HSHFeS2H4SH2CSH4SCHFeHSHCHCHNHCSCH3FeH4FeH3C2H18C2HCHC2FeHC3H2CH4CH2CSHCHFeCH3NH3C3FeCSH2CH2CHC4HC2H3NC2SC2H3SH2C2H2SH5CFeC2HC4HCH2CHC2SH2C2FeHC3FeH3C3H2CHCHSHSCFeHCH2CSH3SCSH4CH4CHCS2HFe2CHSHCSH8CHFeSFe2C2H2CH3SH3CHSCH5CH2CNHCH2CHC2H5CSH4CH2C2H5SFeHFe2CHSC2HC3NHC3SHSHC2H6CH4CHFeH4CH4C2H3FeH2C2H4CH2CH3C2H3CH3CHCH2CH4CH2CSHC3H3C2HCH4CH4SHC2H2CH4CH2CHCH2NCSH3CSH3C3H4SH2SH2SCHCH2C2HCHCSH3FeHC3HCHC2HSH4FeSH2CH4CH5SC2H2CNSHC2HCH4CH2FeCHC2HSCH2CHC2FeH4CH2CH4CFeC2HFeCHCSH2CFeCH2CHC2H3C3SH2C2HFeHFeC5H2C2H4SHFeH2C2FeH4SHCHCNC2SHSH3CH3CH2CNH2C2H3CHCS2H2NCH2NHCSC2HCHCHCSHCHSH4CHSFeH2CH2C2HSFeCHC2HSH3CH2CFe2HC2H2SH3C3HSHCHC2H2SHC3SH4CH2SCH7SCH5CHC2HCHCH4FeSCH2C4H5SH2C2SH2SH2CHC2H4SHFeS2C3H2CH2CH2CH5CHCHCH2FeSHNH3CH4SC3HSCHSC2H3CH2C2HCNH6CH5NSCHCH2CSC4H2C2HCHC5HFeH4CH2FeH5SH8C2H4C4SH9FeHSHFeCHSCH4CHC2H3CSH2CHNCSHC2HCH2FeCHCHCH2CSHC2H5SCH2C2H2CH2SCHC2H3CH3C2FeSH2NH2C2HSHC3HNHCHFeHCHCSH3C2H2C2H2CHC7FeHCHSH5CSHCHC2SNH3FeC3H2C3H2SH2CHCHC3H2CH2CHFeH3C3HC2H3CH2SCHC3FeCHCHCH2CH3FeSCHNCHCHSH2CH3SC2HSH2CHCSH3C3H7CSH2C2HCHCH2FeHCH2FeH3SHC3H3CHCH7C3H2CH4CHCHCHC2H3FeH2NSH7CH2C3HC2H2CSHCH3CH3SH2FeH3SH3CH2CSCHCH4CHCHCHC3H3CH4CSHSH3C3FeHCHC3HC2HFeH5CH2FeH2CHSH2C2NCHCHCH3C2HCH4C2NH3CHC2SH2CH2SFeCH7CH3CH2C2HC3HCH2NH3C3H5SH2CH5CFeNH2CFeHC2H5C2HCH6SHFeCHFeH4SHCH2CSCH2C4HFeH4C3HSCNHCHSH6CH2CSH2SHCHSH2S2NHCFeH2C2HCH7SH3FeCHC2HSCHSC2FeCH2CH3CHC3HC2HCH7CSH4CH5CH3C2SCH2FeH2SCH3CHCH2C2HSCHSCHFeC2H3C2HC3HCH3C2H2CH2CNCHSCH3CH2FeCSC2H2FeHCH2CH2FeCS2CH6CFeH2FeH2CHCH3CH2CH4CHC3HCH2NCHCH5CH4C2H3C2H3CHC5H3CH2CH2CHCHFeHC3H3CSH3CH3SHC2HCHSH3CHSHC2HCH2C2H2FeCH2SH3C2H8CHSH5CH5SHSC2HC2NFe2CNHCSHCFeNC2H2CSH4C2HFeH3C2NHCHCHC2H2CSH4C2HCHSHC2H2CSH2CFeC2HSHC2H3SHCHCH2SHSCSH2SH2CH3FeH2FeHC3S2H2C2H3CH3SCH2CHSHCH8NHCHFeH6CHCSC2H6C3HCHFeC2H2CH4NH2FeCHCH3CH4CSCH2C3H4C3HSCHC3HC3HC2H2C4HCH3CHCH2C2H3CH2CH2NH3SH6C2FeH2C2HC2SH2C2H5CH2CHCH4SFe2CNH2SH2SH2C3H2CH2CH2SH6FeCHCH2CH3CH2CHCHC2HCH2CH5CHCHCHC2SHC2H3CH3FeHCH2C3HNH2CHCHSH2SHCH2FeH6CSH4C2NCH2SHC2H2FeHC2H3SC3NHCHC3HSH6CHCHCSCHCH3CH3C3FeCHC2HFeCH7NH3CSH3S2CSH3SC2SH3C2HCHCH3CHCH3NH2SHCH7CH2CFeCH11S2C4SH3CNCHC2H2FeCHSCH2CH2CNCHC5H2CH6SCH3C2HCHC3H5CH3FeH2C3HSCH2C3NSHCHCHFe2H5C2HC2H2SHC2H2CH2CH2SC3HCHCH4CHCHCH2C2H2CH3CSHSCH4C4H3SH2SH2CH3C3HFeCH2C2H7CHCHCNH6CH3NCH2CHSC3H3CH2CHCFeH2CH3C2H13CH2C2H2CH5C2H3C2H3C3H2SCH3CH2CHC2H3CH2SCH2CHC3H3CFeCH3C2H2C3HSH2CFeCSC2H2CHCHSH2CH2SH2CHCH4CH2FeCNC2H3NS2HC2H7CH3CH2Fe2CH2CHSHCH7CH4SC2HSCHCH2SHCHFeNH5CH4CSCHCH2FeC2HCHSNSCH5SHCH2SCH4SCH6CHC3HCHCH3C2HSCH3CH4C3HCSC3H4CH3CH2CSCFeH7SCH2C3SH2FeH2C2H4FeH2C3H2CSHSH3CH13SC2H2C2H2NC2HCHCHSH6C2H2FeCH4SH3CH2SHC4FeCH3CH2CH5C3H5FeHSHCHFeH3FeHFeNH4FeH8CFeC2SH2CFeCHC3HCHCH2CHC2HCHSHCHC2H3CSCH2CSC2HC2HCHCHCHSH4CH4CSH2C2H2C2HCH3CHC2HC4H3C2HCHCH2CH3C2H8CHCH3SHSFeSH2CHCHSHC3HFeH2CH3FeHC2H3CH3NH3CHSCH3CHCH2C2HCHCNHCH3SHCHFe2NH4CHFeH2SCH2CSCSC5H3C2HSHC2H2CSH4CNH3CH5SC4HCHC2H5CH4CH6CHCH3C2H5CH8SC2HCH2CNHC3H2C2HC2FeCH2SC2H3CHC4H3CH3CHFeH2C2H2CSH4CHSH5C3H3C3H2CHCHSH2C4H3CHCH3CFeCH7S2H4C2HSH2FeH8CH3CNHSCHCFeH5C2FeSH8C2HCH3C2HC2HC2H2CSHCHCH2CSHC2H2C2H4C2HCHSCH3CHCHCH4C2H4CH6NHC2HCHCNH2CH7SH2CHNH4C2H2NH9NH4C3SCH2C3FeCH3FeH2C2HSHCHCHFeHFeCH3CH2C2FeHCH2C2H2SH3FeCFeH3CH3CHSHCH6CH4SH3SHNHNHCHCHNHCH2CH5CHC3H2FeCH4SHCHCH2SCHSH2CH2CHCHCHFeCH7C3H2CHCHCH2CHCSHC2HCH2C3HCH2C2H9NS2H2SC2H2FeHSHCH7CHC3SH3CSCH3SHC2H4SCH2CHCH2C3NHCSCH2C2H3C2HCHCSC2H3CH2NCHC3HCH5CH5C2H5CHCH2CSCFeHCH9CFeHC3HCS2HCH3C2H2SCHCHCH5CH2SCH2CHCH8C2H3CHCHFeCH2C2HC2HC3HC2H4CH3C2H3CH2C2H7C2NHSC2FeH7NSFeCHCSHC2SH4C3H2C2HCH3CH3CHC2HC2HC2H2CH5C2H2FeCH2CHCH2CSC2H3CH2NCH5C3FeCSHFeCH3CH2CHSHCH2SHCHCH4CHSH2SH2C7HCSH4C2SCSFeCH2C2HC2H3S2H3CHC3H3SC2H3SH2C2H4SCSCH2CH2FeH5CFeHCH2CH2NFeCH4CHFeHCH2NH5NC2FeHC2HSHFeH2C4HFeCFeH5C3H8CH5CHSH4C2H3CHCH8NH3CH3C3H3CH5SCH5CH2S2H7CH3CSC2H6SCHCHCH4C2HCHSHCHCHCHCNFeH4S2HCSH2CHC3H2CHC3H3C3NC3SC3HS4CH3SC3FeH2C3H3SH4CHSH2FeSCH3CHCH4CHFeCHCFeSH4CSH5SCHCHCFe
_chemical_formula_sum              "C2376 H4224 Fe264 N132 S528"
_cell_length_a       59.6048
_cell_length_b       61.783
_cell_length_c       30.5868
_cell_angle_alpha    68.2332
_cell_angle_beta     80.6387
_cell_angle_gamma    113.588

_space_group_name_H-M_alt    "P 1"
_space_group_IT_number       1

loop_
  _space_group_symop_operation_xyz
  'x, y, z'

loop_
  _atom_site_type_symbol
  _atom_site_label
  _atom_site_symmetry_multiplicity
  _atom_site_fract_x
  _atom_site_fract_y
  _atom_site_fract_z
  _atom_site_occupancy
  C   C1        1.0  0.09482  0.03304  0.76065  1.0000
  C   C2        1.0  0.46956  0.95569  0.79821  1.0000
  H   H1        1.0  0.17267  0.08433  0.53154  1.0000
  H   H2        1.0  0.05896  0.98549  0.76714  1.0000
  C   C3        1.0  0.05835  0.94444  0.86641  1.0000
  H   H3        1.0  0.29586  0.96299  0.64006  1.0000
  C   C4        1.0  0.43853  0.99595  0.58313  1.0000
  C   C5        1.0  0.11126  0.07988  0.70040  1.0000
  H   H4        1.0  0.42607  0.95375  0.61326  1.0000
  H   H5        1.0  0.19234  0.07312  0.72744  1.0000
  H   H6        1.0  0.13045  0.08531  0.78094  1.0000
  H   H7        1.0  0.01823  0.17730  0.79781  1.0000
  H   H8        1.0  0.31745  0.04660  0.72544  1.0000
  C   C6        1.0  0.34113  0.11246  0.90154  1.0000
  H   H9        1.0  0.37658  0.13928  0.58798  1.0000
  H   H10       1.0  0.27081  0.16784  0.93558  1.0000
  H   H11       1.0  0.41890  0.08174  0.65100  1.0000
  C   C7        1.0  0.22825  0.94701  0.64811  1.0000
  Fe  Fe1       1.0  0.36389  0.06146  0.53974  1.0000
  Fe  Fe2       1.0  0.16547  0.13482  0.49515  1.0000
  H   H12       1.0  0.50452  0.96212  0.57130  1.0000
  H   H13       1.0  0.01687  0.08213  0.93862  1.0000
  H   H14       1.0  0.11423  0.07602  0.66776  1.0000
  H   H15       1.0  0.33288  0.18233  0.65000  1.0000
  C   C8        1.0  0.28283  0.02676  0.65952  1.0000
  H   H16       1.0  0.03297  0.05314  0.65887  1.0000
  H   H17       1.0  0.39828  0.97988  0.63157  1.0000
  C   C9        1.0  0.24653  0.01987  0.48684  1.0000
  H   H18       1.0  0.04190  0.94591  0.72902  1.0000
  H   H19       1.0  0.14898  0.04859  0.79523  1.0000
  H   H20       1.0  0.11054  0.03461  0.84738  1.0000
  C   C10       1.0  0.23491  0.95016  0.85273  1.0000
  H   H21       1.0  0.29488  0.00264  0.95654  1.0000
  H   H22       1.0  0.16775  0.01716  0.66804  1.0000
  Fe  Fe3       1.0  0.10917  0.12269  0.51091  1.0000
  H   H23       1.0  0.37454  0.16396  0.81339  1.0000
  H   H24       1.0  0.42233  0.15408  0.83802  1.0000
  H   H25       1.0  0.50218  0.08339  0.49459  1.0000
  H   H26       1.0  0.40159  0.13884  0.72015  1.0000
  N   N1        1.0  0.26504  0.97695  0.93898  1.0000
  H   H27       1.0  0.19848  0.94538  0.70188  1.0000
  H   H28       1.0  0.32439  0.00850  0.49744  1.0000
  C   C11       1.0  0.12062  0.12672  0.64185  1.0000
  H   H29       1.0  0.15805  0.06085  0.87779  1.0000
  H   H30       1.0  0.25020  0.02450  0.70738  1.0000
  H   H31       1.0  0.06299  0.97333  0.56216  1.0000
  C   C12       1.0  0.03285  0.00699  0.66902  1.0000
  C   C13       1.0  0.38988  0.17235  0.92948  1.0000
  H   H32       1.0  0.13601  0.02578  0.77040  1.0000
  N   N2        1.0  0.21725  0.16863  0.68982  1.0000
  H   H33       1.0  0.41375  0.00761  0.77981  1.0000
  C   C14       1.0  0.41020  0.17934  0.69292  1.0000
  Fe  Fe4       1.0  0.26917  0.12083  0.76585  1.0000
  H   H34       1.0  0.02496  0.18852  0.96174  1.0000
  H   H35       1.0  0.20905  0.00010  0.57947  1.0000
  H   H36       1.0  0.48931  0.01627  0.57478  1.0000
  C   C15       1.0  0.28718  0.94752  0.95053  1.0000
  H   H37       1.0  0.50017  0.97458  0.89014  1.0000
  H   H38       1.0  0.33542  0.04072  0.49490  1.0000
  H   H39       1.0  0.05088  0.05809  0.81533  1.0000
  H   H40       1.0  0.27420  0.11616  0.93991  1.0000
  H   H41       1.0  0.07822  0.98790  0.71217  1.0000
  H   H42       1.0  0.17961  0.05214  0.69913  1.0000
  H   H43       1.0  0.46859  0.06887  0.83067  1.0000
  H   H44       1.0  0.40949  0.00761  0.56959  1.0000
  H   H45       1.0  0.02662  0.08107  0.69794  1.0000
  H   H46       1.0  0.15606  0.97237  0.94625  1.0000
  S   S1        1.0  0.43722  0.06122  0.59282  1.0000
  C   C16       1.0  0.34418  0.03561  0.75644  1.0000
  C   C17       1.0  0.15120  0.03586  0.52695  1.0000
  S   S2        1.0  0.14586  0.15889  0.49661  1.0000
  C   C18       1.0  0.09521  0.02409  0.71947  1.0000
  C   C19       1.0  0.31541  0.05272  0.88665  1.0000
  C   C20       1.0  0.19609  0.12784  0.83740  1.0000
  C   C21       1.0  0.07540  0.97443  0.90078  1.0000
  H   H47       1.0  0.34633  0.01748  0.76997  1.0000
  H   H48       1.0  0.38940  0.09134  0.83876  1.0000
  C   C22       1.0  0.04696  0.01998  0.48987  1.0000
  H   H49       1.0  0.14169  0.99135  0.98185  1.0000
  H   H50       1.0  0.37718  0.99656  0.53113  1.0000
  C   C23       1.0  0.09087  0.17677  0.56187  1.0000
  C   C24       1.0  0.38480  0.02467  0.64759  1.0000
  H   H51       1.0  0.40082  0.97440  0.57761  1.0000
  H   H52       1.0  0.20829  0.11812  0.83767  1.0000
  C   C25       1.0  0.15689  0.17932  0.68609  1.0000
  H   H53       1.0  0.24242  0.95176  0.66597  1.0000
  C   C26       1.0  0.01172  0.05000  0.92151  1.0000
  H   H54       1.0  0.14040  0.15843  0.70232  1.0000
  H   H55       1.0  0.06398  0.04896  0.61529  1.0000
  H   H56       1.0  0.27969  0.97904  0.86694  1.0000
  H   H57       1.0  0.37285  0.05688  0.68069  1.0000
  C   C27       1.0  0.23486  0.94472  0.60457  1.0000
  Fe  Fe5       1.0  0.08341  0.15407  0.76526  1.0000
  Fe  Fe6       1.0  0.30383  0.09551  0.76859  1.0000
  H   H58       1.0  0.22271  0.99623  0.65931  1.0000
  C   C28       1.0  0.39762  0.04512  0.74968  1.0000
  S   S3        1.0  0.03458  0.97341  0.86983  1.0000
  S   S4        1.0  0.34544  0.10581  0.75894  1.0000
  H   H59       1.0  0.03970  0.17783  0.48811  1.0000
  H   H60       1.0  0.41648  0.12718  0.66761  1.0000
  H   H61       1.0  0.13450  0.14863  0.62515  1.0000
  Fe  Fe7       1.0  0.41909  0.07798  0.54008  1.0000
  H   H62       1.0  0.23638  0.99036  0.94075  1.0000
  H   H63       1.0  0.35895  0.96325  0.53960  1.0000
  N   N3        1.0  0.46624  0.97297  0.60757  1.0000
  H   H64       1.0  0.41990  0.96729  0.93265  1.0000
  H   H65       1.0  0.31394  0.04970  0.92533  1.0000
  C   C29       1.0  0.29052  0.00214  0.92284  1.0000
  H   H66       1.0  0.08645  0.03281  0.69364  1.0000
  H   H67       1.0  0.26091  0.07471  0.54238  1.0000
  H   H68       1.0  0.49362  0.13312  0.56575  1.0000
  C   C30       1.0  0.33056  0.18908  0.61262  1.0000
  S   S5        1.0  0.08278  0.11583  0.77596  1.0000
  C   C31       1.0  0.34679  0.15137  0.58501  1.0000
  C   C32       1.0  0.15022  0.17858  0.86310  1.0000
  H   H69       1.0  0.19511  0.16263  0.78864  1.0000
  H   H70       1.0  0.31412  0.17057  0.61721  1.0000
  H   H71       1.0  0.43629  0.09770  0.68177  1.0000
  H   H72       1.0  0.24201  0.99882  0.51019  1.0000
  C   C33       1.0  0.39119  0.08004  0.76173  1.0000
  C   C34       1.0  0.50632  0.97163  0.49525  1.0000
  H   H73       1.0  0.45986  0.04174  0.94560  1.0000
  H   H74       1.0  0.10625  0.01449  0.50263  1.0000
  C   C35       1.0  0.40986  0.10348  0.81083  1.0000
  C   C36       1.0  0.12977  0.11060  0.67823  1.0000
  H   H75       1.0  0.42779  0.99993  0.88596  1.0000
  H   H76       1.0  0.09805  0.07699  0.78422  1.0000
  H   H77       1.0  0.29405  0.08833  0.50141  1.0000
  C   C37       1.0  0.04290  0.09279  0.55760  1.0000
  C   C38       1.0  0.36974  0.06088  0.71317  1.0000
  C   C39       1.0  0.20760  0.14596  0.74309  1.0000
  C   C40       1.0  0.27445  0.06384  0.64202  1.0000
  C   C41       1.0  0.16820  0.05679  0.90335  1.0000
  H   H78       1.0  0.10684  0.96800  0.58730  1.0000
  H   H79       1.0  0.19247  0.99565  0.65923  1.0000
  H   H80       1.0  0.41374  0.12392  0.78590  1.0000
  H   H81       1.0  0.05736  0.11657  0.86375  1.0000
  C   C42       1.0  0.32477  0.18902  0.52018  1.0000
  H   H82       1.0  0.38043  0.98074  0.89301  1.0000
  Fe  Fe8       1.0  0.44669  0.13652  0.95356  1.0000
  N   N4        1.0  0.11534  0.06173  0.74362  1.0000
  H   H83       1.0  0.07010  0.12971  0.93084  1.0000
  H   H84       1.0  0.01382  0.13013  0.57230  1.0000
  H   H85       1.0  0.01234  0.12581  0.65202  1.0000
  S   S6        1.0  0.38918  0.08832  0.56519  1.0000
  H   H86       1.0  0.13534  0.14000  0.82968  1.0000
  C   C43       1.0  0.19447  0.04610  0.96924  1.0000
  C   C44       1.0  0.25108  0.02462  0.56143  1.0000
  H   H87       1.0  0.03097  0.01439  0.52326  1.0000
  C   C45       1.0  0.17076  0.94526  0.95797  1.0000
  H   H88       1.0  0.17615  0.17575  0.92829  1.0000
  C   C46       1.0  0.36745  0.98202  0.72267  1.0000
  H   H89       1.0  0.10080  0.12236  0.66215  1.0000
  C   C47       1.0  0.30542  0.04320  0.61551  1.0000
  S   S7        1.0  0.25466  0.07645  0.65786  1.0000
  C   C48       1.0  0.39331  0.15162  0.71571  1.0000
  H   H90       1.0  0.11652  0.01542  0.95580  1.0000
  H   H91       1.0  0.43827  0.06788  0.74731  1.0000
  H   H92       1.0  0.22098  0.11020  0.62632  1.0000
  H   H93       1.0  0.05360  0.14256  0.61437  1.0000
  S   S8        1.0  0.10310  0.17639  0.80361  1.0000
  H   H94       1.0  0.39884  0.11202  0.63489  1.0000
  C   C49       1.0  0.15902  0.00149  0.51805  1.0000
  H   H95       1.0  0.04356  0.00606  0.69551  1.0000
  H   H96       1.0  0.31520  0.07153  0.86534  1.0000
  N   N5        1.0  0.42531  0.00238  0.97773  1.0000
  C   C50       1.0  0.25323  0.15058  0.93912  1.0000
  Fe  Fe9       1.0  0.24611  0.06097  0.83588  1.0000
  H   H97       1.0  0.13765  0.03987  0.54801  1.0000
  H   H98       1.0  0.11541  0.03076  0.69665  1.0000
  C   C51       1.0  0.32113  0.02940  0.73805  1.0000
  C   C52       1.0  0.41730  0.09069  0.67614  1.0000
  C   C53       1.0  0.42612  0.05045  0.74285  1.0000
  C   C54       1.0  0.36337  0.00080  0.68765  1.0000
  Fe  Fe10      1.0  0.06481  0.17393  0.83238  1.0000
  H   H99       1.0  0.42007  0.16621  0.89802  1.0000
  H   H100      1.0  0.33489  0.14968  0.73955  1.0000
  H   H101      1.0  0.14944  0.19049  0.69946  1.0000
  C   C55       1.0  0.42615  0.02616  0.78120  1.0000
  H   H102      1.0  0.15354  0.18599  0.94248  1.0000
  C   C56       1.0  0.14940  0.97156  0.53254  1.0000
  C   C57       1.0  0.43966  0.97079  0.61710  1.0000
  S   S9        1.0  0.07110  0.10608  0.57177  1.0000
  H   H103      1.0  0.38354  0.18534  0.56142  1.0000
  N   N6        1.0  0.39444  0.06942  0.72549  1.0000
  H   H104      1.0  0.24968  0.17171  0.49540  1.0000
  C   C58       1.0  0.19850  0.17872  0.54116  1.0000
  S   S10       1.0  0.12812  0.09759  0.51572  1.0000
  C   C59       1.0  0.04339  0.08709  0.51723  1.0000
  H   H105      1.0  0.45317  0.94509  0.68727  1.0000
  C   C60       1.0  0.36345  0.17757  0.58651  1.0000
  H   H106      1.0  0.15752  0.08730  0.71709  1.0000
  C   C61       1.0  0.16140  0.96109  0.97639  1.0000
  H   H107      1.0  0.30734  0.96430  0.93854  1.0000
  H   H108      1.0  0.25103  0.00527  0.57859  1.0000
  H   H109      1.0  0.26345  0.03692  0.57608  1.0000
  H   H110      1.0  0.43618  0.05474  0.70423  1.0000
  S   S11       1.0  0.04699  0.16406  0.91237  1.0000
  S   S12       1.0  0.29587  0.12063  0.70624  1.0000
  H   H111      1.0  0.43111  0.18728  0.68078  1.0000
  H   H112      1.0  0.39647  0.97340  0.74616  1.0000
  C   C62       1.0  0.41475  0.01233  0.67944  1.0000
  H   H113      1.0  0.18125  0.03775  0.76078  1.0000
  H   H114      1.0  0.40228  0.94676  0.49251  1.0000
  C   C63       1.0  0.23160  0.16295  0.65386  1.0000
  Fe  Fe11      1.0  0.05884  0.18915  0.72952  1.0000
  H   H115      1.0  0.17808  0.97559  0.98069  1.0000
  C   C64       1.0  0.02018  0.03448  0.69569  1.0000
  H   H116      1.0  0.28230  0.05541  0.98160  1.0000
  S   S13       1.0  0.21939  0.03005  0.91554  1.0000
  H   H117      1.0  0.44868  0.00391  0.54240  1.0000
  C   C65       1.0  0.42421  0.17325  0.81071  1.0000
  H   H118      1.0  0.44157  0.12693  0.57207  1.0000
  C   C66       1.0  0.29710  0.08034  0.59818  1.0000
  C   C67       1.0  0.10012  0.05669  0.87859  1.0000
  H   H119      1.0  0.02144  0.05729  0.76037  1.0000
  C   C68       1.0  0.18008  0.05560  0.51682  1.0000
  C   C69       1.0  0.17870  0.05726  0.97637  1.0000
  C   C70       1.0  0.35584  0.15792  0.72710  1.0000
  N   N7        1.0  0.01804  0.16186  0.58993  1.0000
  C   C71       1.0  0.17737  0.05295  0.73517  1.0000
  C   C72       1.0  0.29401  0.01870  0.50724  1.0000
  H   H120      1.0  0.13006  0.96213  0.52905  1.0000
  C   C73       1.0  0.15021  0.15155  0.88307  1.0000
  C   C74       1.0  0.49835  0.02615  0.65135  1.0000
  C   C75       1.0  0.14299  0.06689  0.72472  1.0000
  H   H121      1.0  0.32529  0.02538  0.70600  1.0000
  C   C76       1.0  0.31278  0.07010  0.58516  1.0000
  H   H122      1.0  0.06570  0.18730  0.97312  1.0000
  H   H123      1.0  0.30303  0.01127  0.76912  1.0000
  S   S14       1.0  0.44838  0.10545  0.93400  1.0000
  H   H124      1.0  0.09621  0.01848  0.79323  1.0000
  H   H125      1.0  0.10013  0.16427  0.56248  1.0000
  C   C77       1.0  0.30073  0.95614  0.67432  1.0000
  H   H126      1.0  0.39185  0.99707  0.95435  1.0000
  H   H127      1.0  0.47702  0.99258  0.52627  1.0000
  C   C78       1.0  0.05634  0.09006  0.83317  1.0000
  H   H128      1.0  0.19606  0.13309  0.86836  1.0000
  C   C79       1.0  0.50236  0.97670  0.54046  1.0000
  C   C80       1.0  0.48578  0.99779  0.60727  1.0000
  H   H129      1.0  0.21947  0.94405  0.92733  1.0000
  C   C81       1.0  0.06124  0.15975  0.57601  1.0000
  H   H130      1.0  0.32561  0.14200  0.60599  1.0000
  H   H131      1.0  0.29542  0.14930  0.96111  1.0000
  C   C82       1.0  0.21536  0.13566  0.65522  1.0000
  C   C83       1.0  0.36973  0.98497  0.51150  1.0000
  C   C84       1.0  0.09664  0.94972  0.88879  1.0000
  C   C85       1.0  0.41057  0.03069  0.64324  1.0000
  C   C86       1.0  0.14779  0.99809  0.60178  1.0000
  H   H132      1.0  0.27426  0.02970  0.90319  1.0000
  H   H133      1.0  0.33026  0.08287  0.55116  1.0000
  C   C87       1.0  0.16567  0.06271  0.94317  1.0000
  S   S15       1.0  0.27915  0.09788  0.82789  1.0000
  H   H134      1.0  0.13034  0.11645  0.70830  1.0000
  H   H135      1.0  0.01878  0.09167  0.61972  1.0000
  C   C88       1.0  0.14965  0.04689  0.76029  1.0000
  H   H136      1.0  0.38100  0.03830  0.62037  1.0000
  H   H137      1.0  0.30257  0.10103  0.57429  1.0000
  C   C89       1.0  0.27392  0.08382  0.50265  1.0000
  H   H138      1.0  0.22077  0.02628  0.64644  1.0000
  C   C90       1.0  0.48930  0.95471  0.92500  1.0000
  H   H139      1.0  0.45155  0.08648  0.83754  1.0000
  H   H140      1.0  0.09719  0.12309  0.98293  1.0000
  H   H141      1.0  0.13930  0.97589  0.62243  1.0000
  H   H142      1.0  0.47348  0.08448  0.87078  1.0000
  H   H143      1.0  0.03337  0.03393  0.71752  1.0000
  H   H144      1.0  0.50521  0.99899  0.60116  1.0000
  C   C91       1.0  0.44055  0.13626  0.59663  1.0000
  H   H145      1.0  0.23061  0.96647  0.83400  1.0000
  H   H146      1.0  0.44338  0.97169  0.79759  1.0000
  S   S16       1.0  0.27158  0.05631  0.78161  1.0000
  C   C92       1.0  0.47526  0.97458  0.55693  1.0000
  H   H147      1.0  0.29435  0.96356  0.69911  1.0000
  H   H148      1.0  0.49407  0.02554  0.68866  1.0000
  C   C93       1.0  0.05745  0.96322  0.88037  1.0000
  C   C94       1.0  0.02426  0.07670  0.91207  1.0000
  C   C95       1.0  0.45883  0.07331  0.85767  1.0000
  H   H149      1.0  0.39552  0.96343  0.87591  1.0000
  C   C96       1.0  0.01173  0.06218  0.73305  1.0000
  C   C97       1.0  0.18390  0.04569  0.89629  1.0000
  C   C98       1.0  0.36612  0.14074  0.73227  1.0000
  C   C99       1.0  0.07929  0.99349  0.74255  1.0000
  C   C100      1.0  0.37090  0.13055  0.87723  1.0000
  C   C101      1.0  0.43586  0.04721  0.90257  1.0000
  H   H150      1.0  0.36506  0.07742  0.70088  1.0000
  H   H151      1.0  0.51087  0.10930  0.53306  1.0000
  H   H152      1.0  0.17942  0.14905  0.68410  1.0000
  H   H153      1.0  0.28208  0.00408  0.49621  1.0000
  H   H154      1.0  0.11979  0.12161  0.61073  1.0000
  H   H155      1.0  0.01600  0.15196  0.66679  1.0000
  H   H156      1.0  0.17982  0.01076  0.51567  1.0000
  H   H157      1.0  0.35144  0.12457  0.64877  1.0000
  H   H158      1.0  0.42201  0.03695  0.88731  1.0000
  S   S17       1.0  0.49735  0.98537  0.78569  1.0000
  H   H159      1.0  0.14067  0.02644  0.62225  1.0000
  H   H160      1.0  0.31586  0.16708  0.54471  1.0000
  C   C102      1.0  0.35531  0.13077  0.60806  1.0000
  H   H161      1.0  0.06596  0.03452  0.48853  1.0000
  H   H162      1.0  0.29508  0.03211  0.85003  1.0000
  H   H163      1.0  0.33432  0.05497  0.86744  1.0000
  H   H164      1.0  0.41768  0.16922  0.78115  1.0000
  H   H165      1.0  0.22724  0.16719  0.78198  1.0000
  H   H166      1.0  0.14773  0.06763  0.68727  1.0000
  C   C103      1.0  0.06630  0.15910  0.94831  1.0000
  H   H167      1.0  0.47792  0.98303  0.68887  1.0000
  H   H168      1.0  0.34969  0.15567  0.54524  1.0000
  H   H169      1.0  0.28526  0.08299  0.92745  1.0000
  H   H170      1.0  0.41530  0.07238  0.80508  1.0000
  N   N8        1.0  0.14293  0.00636  0.55282  1.0000
  C   C104      1.0  0.27323  0.06791  0.96773  1.0000
  H   H171      1.0  0.11052  0.97825  0.91607  1.0000
  H   H172      1.0  0.45885  0.14274  0.60500  1.0000
  C   C105      1.0  0.01926  0.08740  0.58849  1.0000
  H   H173      1.0  0.37339  0.94814  0.93983  1.0000
  C   C106      1.0  0.18480  0.08405  0.50034  1.0000
  H   H174      1.0  0.30216  0.05608  0.50560  1.0000
  H   H175      1.0  0.38984  0.03134  0.73390  1.0000
  H   H176      1.0  0.17561  0.11333  0.84467  1.0000
  C   C107      1.0  0.11390  0.98988  0.56475  1.0000
  H   H177      1.0  0.25923  0.14491  0.91070  1.0000
  H   H178      1.0  0.34359  0.99666  0.69057  1.0000
  H   H179      1.0  0.20069  0.18219  0.63483  1.0000
  H   H180      1.0  0.22829  0.16714  0.95269  1.0000
  C   C108      1.0  0.21183  0.16679  0.52711  1.0000
  H   H181      1.0  0.24958  0.16380  0.66132  1.0000
  S   S18       1.0  0.37749  0.05679  0.94450  1.0000
  Fe  Fe12      1.0  0.26165  0.08198  0.72339  1.0000
  C   C109      1.0  0.44595  0.02932  0.93299  1.0000
  C   C110      1.0  0.09039  0.13711  0.98078  1.0000
  C   C111      1.0  0.10517  0.99458  0.51857  1.0000
  C   C112      1.0  0.02016  0.07643  0.50750  1.0000
  H   H182      1.0  0.18749  0.12936  0.75339  1.0000
  C   C113      1.0  0.30364  0.16581  0.80000  1.0000
  C   C114      1.0  0.17956  0.17930  0.70322  1.0000
  C   C115      1.0  0.26626  0.95301  0.97400  1.0000
  C   C116      1.0  0.23315  0.12886  0.62771  1.0000
  C   C117      1.0  0.26760  0.03721  0.67325  1.0000
  C   C118      1.0  0.41642  0.11655  0.64554  1.0000
  C   C119      1.0  0.39982  0.17699  0.97009  1.0000
  H   H183      1.0  0.34415  0.11256  0.60471  1.0000
  C   C120      1.0  0.44528  0.95440  0.80182  1.0000
  H   H184      1.0  0.43080  0.96583  0.65660  1.0000
  H   H185      1.0  0.40622  0.98664  0.48517  1.0000
  C   C121      1.0  0.09556  0.96828  0.90357  1.0000
  H   H186      1.0  0.06434  0.07443  0.96087  1.0000
  H   H187      1.0  0.04435  0.03229  0.58663  1.0000
  H   H188      1.0  0.20108  0.13668  0.63642  1.0000
  C   C122      1.0  0.41421  0.08997  0.77983  1.0000
  H   H189      1.0  0.15007  0.11659  0.65678  1.0000
  H   H190      1.0  0.09037  0.03972  0.91788  1.0000
  H   H191      1.0  0.49148  0.95071  0.50598  1.0000
  H   H192      1.0  0.28840  0.00823  0.54887  1.0000
  C   C123      1.0  0.13029  0.13181  0.87113  1.0000
  H   H193      1.0  0.30732  0.00219  0.90074  1.0000
  H   H194      1.0  0.30636  0.15110  0.79324  1.0000
  H   H195      1.0  0.27716  0.00595  0.68296  1.0000
  H   H196      1.0  0.37371  0.06427  0.79675  1.0000
  H   H197      1.0  0.41841  0.02323  0.81962  1.0000
  H   H198      1.0  0.02586  0.98727  0.66969  1.0000
  H   H199      1.0  0.42350  0.10560  0.83170  1.0000
  H   H200      1.0  0.07883  0.03129  0.85045  1.0000
  H   H201      1.0  0.06153  0.09081  0.49364  1.0000
  H   H202      1.0  0.13554  0.00218  0.71345  1.0000
  H   H203      1.0  0.24534  0.14539  0.58833  1.0000
  H   H204      1.0  0.17730  0.16775  0.55766  1.0000
  C   C124      1.0  0.26063  0.10073  0.97960  1.0000
  C   C125      1.0  0.39319  0.98774  0.71864  1.0000
  C   C126      1.0  0.21413  0.00835  0.64061  1.0000
  C   C127      1.0  0.47847  0.99947  0.65662  1.0000
  H   H205      1.0  0.08776  0.03807  0.55938  1.0000
  H   H206      1.0  0.44908  0.98530  0.96383  1.0000
  C   C128      1.0  0.41003  0.98899  0.59102  1.0000
  H   H207      1.0  0.48323  0.95144  0.64963  1.0000
  H   H208      1.0  0.38675  0.09629  0.74545  1.0000
  C   C129      1.0  0.07256  0.17332  0.97511  1.0000
  H   H209      1.0  0.09052  0.07550  0.71256  1.0000
  S   S19       1.0  0.34020  0.95137  0.77039  1.0000
  C   C130      1.0  0.07394  0.02236  0.59856  1.0000
  H   H210      1.0  0.20424  0.11877  0.69434  1.0000
  H   H211      1.0  0.46018  0.95703  0.55586  1.0000
  C   C131      1.0  0.28703  0.17426  0.78181  1.0000
  H   H212      1.0  0.14986  0.18454  0.82420  1.0000
  H   H213      1.0  0.07466  0.95255  0.54983  1.0000
  C   C132      1.0  0.13605  0.00520  0.63999  1.0000
  H   H214      1.0  0.16080  0.94780  0.50685  1.0000
  C   C133      1.0  0.24187  0.97716  0.96724  1.0000
  S   S20       1.0  0.32373  0.02960  0.59820  1.0000
  H   H215      1.0  0.25816  0.99194  0.86955  1.0000
  H   H216      1.0  0.23857  0.17857  0.61391  1.0000
  C   C134      1.0  0.38892  0.96760  0.90648  1.0000
  H   H217      1.0  0.37500  0.15065  0.94727  1.0000
  H   H218      1.0  0.18716  0.95941  0.92071  1.0000
  H   H219      1.0  0.43923  0.15446  0.57570  1.0000
  H   H220      1.0  0.07428  0.98851  0.91271  1.0000
  H   H221      1.0  0.35578  0.99029  0.49693  1.0000
  C   C135      1.0  0.41222  0.98126  0.92033  1.0000
  H   H222      1.0  0.36437  0.17215  0.62493  1.0000
  C   C136      1.0  0.19428  0.16940  0.67617  1.0000
  S   S21       1.0  0.19394  0.13441  0.53483  1.0000
  S   S22       1.0  0.04449  0.14971  0.79756  1.0000
  H   H223      1.0  0.42578  0.05271  0.92673  1.0000
  H   H224      1.0  0.09485  0.18406  0.58948  1.0000
  C   C137      1.0  0.04384  0.06332  0.84254  1.0000
  C   C138      1.0  0.14689  0.00112  0.68254  1.0000
  H   H225      1.0  0.14920  0.04195  0.48934  1.0000
  C   C139      1.0  0.23936  0.18085  0.50672  1.0000
  S   S23       1.0  0.23388  0.08405  0.77834  1.0000
  C   C140      1.0  0.11161  0.06878  0.78583  1.0000
  H   H226      1.0  0.24631  0.12541  0.64789  1.0000
  C   C141      1.0  0.04767  0.17679  0.57364  1.0000
  N   N9        1.0  0.26285  0.03824  0.50460  1.0000
  C   C142      1.0  0.40359  0.98697  0.96349  1.0000
  H   H227      1.0  0.46462  0.17487  0.74566  1.0000
  H   H228      1.0  0.21993  0.13626  0.74558  1.0000
  H   H229      1.0  0.49667  0.04280  0.62442  1.0000
  H   H230      1.0  0.43324  0.10473  0.74773  1.0000
  S   S24       1.0  0.26941  0.15934  0.75075  1.0000
  H   H231      1.0  0.17089  0.16581  0.74454  1.0000
  C   C143      1.0  0.23418  0.16042  0.92602  1.0000
  H   H232      1.0  0.38535  0.03297  0.79083  1.0000
  H   H233      1.0  0.18521  0.04977  0.55093  1.0000
  H   H234      1.0  0.33871  0.03884  0.78894  1.0000
  C   C144      1.0  0.22224  0.01720  0.58407  1.0000
  S   S25       1.0  0.39309  0.04964  0.51782  1.0000
  C   C145      1.0  0.20715  0.15309  0.78672  1.0000
  C   C146      1.0  0.23818  0.94862  0.90216  1.0000
  H   H235      1.0  0.37828  0.12471  0.85026  1.0000
  S   S26       1.0  0.26565  0.94828  0.58128  1.0000
  H   H236      1.0  0.11014  0.12761  0.88860  1.0000
  H   H237      1.0  0.37930  0.12666  0.90707  1.0000
  H   H238      1.0  0.14452  0.14184  0.92484  1.0000
  H   H239      1.0  0.46786  0.16587  0.80703  1.0000
  H   H240      1.0  0.21913  0.03435  0.56535  1.0000
  H   H241      1.0  0.43455  0.01711  0.67705  1.0000
  H   H242      1.0  0.33283  0.11759  0.92884  1.0000
  C   C147      1.0  0.26141  0.97539  0.89239  1.0000
  C   C148      1.0  0.29219  0.02905  0.88910  1.0000
  H   H243      1.0  0.44768  0.01232  0.59264  1.0000
  Fe  Fe13      1.0  0.40450  0.08254  0.97006  1.0000
  S   S27       1.0  0.47195  0.18051  0.89718  1.0000
  C   C149      1.0  0.31714  0.17665  0.82655  1.0000
  H   H244      1.0  0.07475  0.02991  0.77537  1.0000
  H   H245      1.0  0.08535  0.02118  0.62375  1.0000
  H   H246      1.0  0.44652  0.02969  0.77315  1.0000
  C   C150      1.0  0.37870  0.16058  0.84892  1.0000
  C   C151      1.0  0.05351  0.02946  0.61550  1.0000
  H   H247      1.0  0.33226  0.11473  0.87201  1.0000
  H   H248      1.0  0.16912  0.00630  0.59459  1.0000
  C   C152      1.0  0.09973  0.04575  0.84113  1.0000
  H   H249      1.0  0.24184  0.08893  0.97611  1.0000
  H   H250      1.0  0.28197  0.12336  0.49143  1.0000
  H   H251      1.0  0.18572  0.04107  0.86552  1.0000
  H   H252      1.0  0.32966  0.16962  0.84107  1.0000
  H   H253      1.0  0.14563  0.98117  0.69851  1.0000
  H   H254      1.0  0.45895  0.99770  0.66683  1.0000
  H   H255      1.0  0.37964  0.18380  0.91880  1.0000
  H   H256      1.0  0.13022  0.11246  0.88665  1.0000
  H   H257      1.0  0.12065  0.07021  0.87296  1.0000
  H   H258      1.0  0.08937  0.06800  0.87399  1.0000
  C   C153      1.0  0.01870  0.16264  0.50422  1.0000
  H   H259      1.0  0.36477  0.16361  0.87130  1.0000
  H   H260      1.0  0.16980  0.15457  0.86639  1.0000
  C   C154      1.0  0.07523  0.14099  0.95103  1.0000
  H   H261      1.0  0.05831  0.15180  0.54899  1.0000
  H   H262      1.0  0.04725  0.00142  0.49451  1.0000
  H   H263      1.0  0.08875  0.98395  0.76515  1.0000
  H   H264      1.0  0.06411  0.00275  0.59885  1.0000
  H   H265      1.0  0.24386  0.17775  0.88714  1.0000
  H   H266      1.0  0.10251  0.99412  0.58970  1.0000
  H   H267      1.0  0.45830  0.02672  0.90610  1.0000
  H   H268      1.0  0.13090  0.17353  0.88678  1.0000
  H   H269      1.0  0.28475  0.94499  0.91727  1.0000
  H   H270      1.0  0.21638  0.14410  0.92770  1.0000
  S   S28       1.0  0.14621  0.07705  0.95004  1.0000
  C   C155      1.0  0.07681  0.97293  0.53374  1.0000
  H   H271      1.0  0.25305  0.95405  0.82653  1.0000
  C   C156      1.0  0.19728  0.04065  0.92880  1.0000
  H   H272      1.0  0.33619  0.09122  0.92239  1.0000
  H   H273      1.0  0.11438  0.99185  0.65717  1.0000
  H   H274      1.0  0.16344  0.18910  0.64428  1.0000
  C   C157      1.0  0.04701  0.09640  0.86899  1.0000
  H   H275      1.0  0.14736  0.95978  0.57186  1.0000
  H   H276      1.0  0.45435  0.95732  0.93634  1.0000
  H   H277      1.0  0.49683  0.94181  0.91941  1.0000
  C   C158      1.0  0.02183  0.04327  0.88701  1.0000
  H   H278      1.0  0.32243  0.96533  0.66192  1.0000
  H   H279      1.0  0.50495  0.12972  0.94963  1.0000
  H   H280      1.0  0.18773  0.97621  0.50344  1.0000
  C   C159      1.0  0.16869  0.96916  0.49778  1.0000
  H   H281      1.0  0.20584  0.09812  0.49091  1.0000
  H   H282      1.0  0.32023  0.18913  0.97376  1.0000
  N   N10       1.0  0.40682  0.18053  0.83687  1.0000
  C   C160      1.0  0.46364  0.94840  0.64967  1.0000
  H   H283      1.0  0.02718  0.13456  0.48816  1.0000
  H   H284      1.0  0.25321  0.05451  0.97079  1.0000
  C   C161      1.0  0.20350  0.94363  0.66821  1.0000
  C   C162      1.0  0.29077  0.04389  0.48967  1.0000
  H   H285      1.0  0.01248  0.02270  0.89405  1.0000
  C   C163      1.0  0.47033  0.18251  0.77206  1.0000
  H   H286      1.0  0.22702  0.01856  0.49287  1.0000
  C   C164      1.0  0.41277  0.18035  0.88326  1.0000
  H   H287      1.0  0.07122  0.97647  0.49990  1.0000
  S   S29       1.0  0.12253  0.94306  0.88851  1.0000
  H   H288      1.0  0.49349  0.95777  0.95697  1.0000
  C   C165      1.0  0.37281  0.18584  0.70542  1.0000
  H   H289      1.0  0.05342  0.18677  0.59702  1.0000
  H   H290      1.0  0.01483  0.97437  0.77579  1.0000
  H   H291      1.0  0.04177  0.03983  0.97992  1.0000
  Fe  Fe14      1.0  0.40524  0.12095  0.48561  1.0000
  H   H292      1.0  0.11765  0.99413  0.48824  1.0000
  H   H293      1.0  0.51102  0.16226  0.50338  1.0000
  C   C166      1.0  0.45982  0.94242  0.93474  1.0000
  H   H294      1.0  0.19383  0.05632  0.48631  1.0000
  C   C167      1.0  0.32246  0.02677  0.48381  1.0000
  S   S30       1.0  0.40259  0.11529  0.98287  1.0000
  H   H295      1.0  0.12039  0.18381  0.44108  1.0000
  H   H296      1.0  0.42354  0.02268  0.36490  1.0000
  H   H297      1.0  0.45506  0.04619  0.22666  1.0000
  H   H298      1.0  0.10980  0.96418  0.99963  1.0000
  H   H299      1.0  0.17892  0.98415  0.12627  1.0000
  C   C168      1.0  0.33595  0.12187  0.09279  1.0000
  C   C169      1.0  0.39335  0.98154  0.06904  1.0000
  S   S31       1.0  0.43805  0.11341  0.46205  1.0000
  H   H300      1.0  0.08304  0.05125  0.39650  1.0000
  C   C170      1.0  0.25192  0.16966  0.11656  1.0000
  C   C171      1.0  0.36315  0.10527  0.12785  1.0000
  H   H301      1.0  0.25574  0.08709  0.08135  1.0000
  C   C172      1.0  0.01526  0.14446  0.47994  1.0000
  Fe  Fe15      1.0  0.24301  0.95119  0.14768  1.0000
  H   H302      1.0  0.38334  0.17218  0.00174  1.0000
  H   H303      1.0  0.40324  0.01835  0.00474  1.0000
  C   C173      1.0  0.24022  0.12634  0.99330  1.0000
  H   H304      1.0  0.31839  0.04509  0.16426  1.0000
  H   H305      1.0  0.17563  0.05901  0.28442  1.0000
  C   C174      1.0  0.38192  0.12094  0.31717  1.0000
  H   H306      1.0  0.14566  0.97673  0.38544  1.0000
  H   H307      1.0  0.32346  0.16609  0.02604  1.0000
  H   H308      1.0  0.20508  0.04242  0.99401  1.0000
  C   C175      1.0  0.20536  0.04918  0.13656  1.0000
  C   C176      1.0  0.38220  0.97511  0.44100  1.0000
  C   C177      1.0  0.40626  0.18285  0.10569  1.0000
  C   C178      1.0  0.18711  0.05426  0.26097  1.0000
  H   H309      1.0  0.12337  0.18190  0.20745  1.0000
  C   C179      1.0  0.07395  0.12082  0.34939  1.0000
  H   H310      1.0  0.49708  0.04560  0.48022  1.0000
  H   H311      1.0  0.34436  0.02580  0.20248  1.0000
  C   C180      1.0  0.08823  0.06506  0.30304  1.0000
  H   H312      1.0  0.08002  0.08850  0.39037  1.0000
  H   H313      1.0  0.08494  0.97091  0.35640  1.0000
  C   C181      1.0  0.02845  0.95406  0.13914  1.0000
  H   H314      1.0  0.49959  0.15316  0.23376  1.0000
  H   H315      1.0  0.02049  0.07233  0.47606  1.0000
  H   H316      1.0  0.24638  0.94092  0.35882  1.0000
  C   C182      1.0  0.03456  0.04688  0.14970  1.0000
  S   S32       1.0  0.31397  0.15734  0.24872  1.0000
  H   H317      1.0  0.29194  0.97745  0.06173  1.0000
  H   H318      1.0  0.20138  0.07645  0.07439  1.0000
  Fe  Fe16      1.0  0.13739  0.11439  0.43221  1.0000
  C   C183      1.0  0.09087  0.97365  0.31762  1.0000
  C   C184      1.0  0.50848  0.97846  0.12163  1.0000
  C   C185      1.0  0.18590  0.05976  0.37535  1.0000
  H   H319      1.0  0.12768  0.00630  0.03580  1.0000
  C   C186      1.0  0.43994  0.03837  0.12459  1.0000
  Fe  Fe17      1.0  0.27423  0.14849  0.29160  1.0000
  H   H320      1.0  0.44047  0.14964  0.36038  1.0000
  C   C187      1.0  0.46022  0.04134  0.08831  1.0000
  H   H321      1.0  0.35357  0.96152  0.38354  1.0000
  H   H322      1.0  0.34783  0.03819  0.11211  1.0000
  H   H323      1.0  0.29775  0.98784  0.29413  1.0000
  H   H324      1.0  0.37080  0.99822  0.09135  1.0000
  C   C188      1.0  0.25849  0.02819  0.43031  1.0000
  H   H325      1.0  0.02029  0.96231  0.39056  1.0000
  C   C189      1.0  0.23522  0.18528  0.05168  1.0000
  H   H326      1.0  0.13084  0.95520  0.14922  1.0000
  H   H327      1.0  0.27575  0.07621  0.43934  1.0000
  H   H328      1.0  0.33023  0.08291  0.27904  1.0000
  C   C190      1.0  0.34609  0.03991  0.99059  1.0000
  H   H329      1.0  0.02227  0.15681  0.43824  1.0000
  C   C191      1.0  0.06064  0.07934  0.33854  1.0000
  H   H330      1.0  0.08803  0.02622  0.33234  1.0000
  H   H331      1.0  0.36844  0.96995  0.14303  1.0000
  H   H332      1.0  0.35661  0.10643  0.06002  1.0000
  C   C192      1.0  0.10287  0.14555  0.18358  1.0000
  H   H333      1.0  0.10181  0.94269  0.32862  1.0000
  H   H334      1.0  0.16979  0.97374  0.32328  1.0000
  Fe  Fe18      1.0  0.44774  0.08528  0.01228  1.0000
  H   H335      1.0  0.29681  0.19013  0.17847  1.0000
  S   S33       1.0  0.37772  0.09499  0.46104  1.0000
  H   H336      1.0  0.25944  0.06545  0.03889  1.0000
  H   H337      1.0  0.02250  0.01763  0.44578  1.0000
  C   C193      1.0  0.15038  0.97025  0.06816  1.0000
  H   H338      1.0  0.25571  0.10750  0.47229  1.0000
  C   C194      1.0  0.28325  0.15289  0.02808  1.0000
  S   S34       1.0  0.11751  0.14923  0.04126  1.0000
  H   H339      1.0  0.05112  0.15532  0.16311  1.0000
  H   H340      1.0  0.47133  0.94586  0.18007  1.0000
  H   H341      1.0  0.06287  0.09177  0.29921  1.0000
  C   C195      1.0  0.01642  0.02442  0.08082  1.0000
  C   C196      1.0  0.06114  0.99920  0.11833  1.0000
  C   C197      1.0  0.50833  0.18137  0.04199  1.0000
  H   H342      1.0  0.32874  0.03696  0.44200  1.0000
  H   H343      1.0  0.38928  0.96674  0.99615  1.0000
  H   H344      1.0  0.40311  0.01346  0.44209  1.0000
  H   H345      1.0  0.49798  0.07492  0.16161  1.0000
  C   C198      1.0  0.46926  0.02303  0.10170  1.0000
  C   C199      1.0  0.43502  0.99644  0.18506  1.0000
  H   H346      1.0  0.18222  0.11338  0.37454  1.0000
  S   S35       1.0  0.11586  0.13708  0.42880  1.0000
  S   S36       1.0  0.19151  0.10355  0.13043  1.0000
  S   S37       1.0  0.40396  0.06038  0.04713  1.0000
  H   H347      1.0  0.36997  0.95340  0.46999  1.0000
  S   S38       1.0  0.17662  0.14970  0.41142  1.0000
  H   H348      1.0  0.08954  0.07884  0.26575  1.0000
  C   C200      1.0  0.27187  0.08178  0.99951  1.0000
  H   H349      1.0  0.02894  0.03059  0.18813  1.0000
  C   C201      1.0  0.18843  0.96982  0.24454  1.0000
  H   H350      1.0  0.35119  0.07486  0.99757  1.0000
  H   H351      1.0  0.03025  0.01816  0.09325  1.0000
  S   S39       1.0  0.31323  0.94955  0.47739  1.0000
  C   C202      1.0  0.04953  0.07394  0.14818  1.0000
  C   C203      1.0  0.06604  0.95744  0.31036  1.0000
  C   C204      1.0  0.43351  0.01437  0.30441  1.0000
  C   C205      1.0  0.03310  0.05305  0.03426  1.0000
  H   H352      1.0  0.03245  0.95835  0.24572  1.0000
  C   C206      1.0  0.38337  0.18830  0.10925  1.0000
  H   H353      1.0  0.05207  0.05369  0.25526  1.0000
  H   H354      1.0  0.03481  0.14342  0.31479  1.0000
  H   H355      1.0  0.24480  0.97105  0.27730  1.0000
  H   H356      1.0  0.43181  0.94086  0.36525  1.0000
  C   C207      1.0  0.41348  0.00707  0.35408  1.0000
  H   H357      1.0  0.09649  0.12090  0.14598  1.0000
  H   H358      1.0  0.02158  0.02991  0.36790  1.0000
  S   S40       1.0  0.25303  0.12515  0.25573  1.0000
  H   H359      1.0  0.29494  0.12604  0.01698  1.0000
  H   H360      1.0  0.33657  0.12556  0.20088  1.0000
  C   C208      1.0  0.16589  0.99288  0.12018  1.0000
  S   S41       1.0  0.33661  0.00061  0.33555  1.0000
  C   C209      1.0  0.21481  0.13731  0.10918  1.0000
  H   H361      1.0  0.48423  0.08377  0.11401  1.0000
  C   C210      1.0  0.28349  0.13552  0.00221  1.0000
  H   H362      1.0  0.43656  0.99392  0.41725  1.0000
  H   H363      1.0  0.17738  0.17842  0.12719  1.0000
  H   H364      1.0  0.47256  0.01854  0.99636  1.0000
  C   C211      1.0  0.35265  0.11112  0.09011  1.0000
  H   H365      1.0  0.26346  0.08107  0.17449  1.0000
  H   H366      1.0  0.08904  0.13558  0.35617  1.0000
  C   C212      1.0  0.08829  0.17003  0.00345  1.0000
  C   C213      1.0  0.50583  0.13807  0.08757  1.0000
  C   C214      1.0  0.02991  0.13632  0.28835  1.0000
  S   S42       1.0  0.44934  0.11803  0.02923  1.0000
  H   H367      1.0  0.45454  0.95243  0.44079  1.0000
  H   H368      1.0  0.33544  0.00164  0.99328  1.0000
  H   H369      1.0  0.41327  0.11246  0.17477  1.0000
  H   H370      1.0  0.12857  0.07558  0.23067  1.0000
  C   C215      1.0  0.01746  0.95612  0.43001  1.0000
  H   H371      1.0  0.10890  0.16526  0.15152  1.0000
  H   H372      1.0  0.39788  0.00240  0.11357  1.0000
  C   C216      1.0  0.45827  0.17972  0.46359  1.0000
  C   C217      1.0  0.16882  0.18657  0.14766  1.0000
  H   H373      1.0  0.42351  0.96480  0.02385  1.0000
  H   H374      1.0  0.25911  0.02087  0.27708  1.0000
  H   H375      1.0  0.41100  0.01304  0.20051  1.0000
  H   H376      1.0  0.50635  0.99364  0.12807  1.0000
  C   C218      1.0  0.31399  0.03969  0.25517  1.0000
  S   S43       1.0  0.07390  0.18350  0.21476  1.0000
  C   C219      1.0  0.03961  0.03627  0.33814  1.0000
  C   C220      1.0  0.12695  0.14277  0.19083  1.0000
  S   S44       1.0  0.14133  0.05722  0.09207  1.0000
  H   H377      1.0  0.48713  0.98757  0.98793  1.0000
  H   H378      1.0  0.03658  0.07660  0.17371  1.0000
  C   C221      1.0  0.04570  0.15226  0.23688  1.0000
  H   H379      1.0  0.11747  0.97044  0.26728  1.0000
  H   H380      1.0  0.24886  0.01401  0.37693  1.0000
  S   S45       1.0  0.26372  0.17567  0.31112  1.0000
  H   H381      1.0  0.29297  0.01297  0.17989  1.0000
  H   H382      1.0  0.15961  0.10225  0.28165  1.0000
  N   N11       1.0  0.29387  0.02050  0.24371  1.0000
  H   H383      1.0  0.16110  0.95912  0.07890  1.0000
  H   H384      1.0  0.14973  0.96116  0.24420  1.0000
  H   H385      1.0  0.43806  0.17339  0.37927  1.0000
  H   H386      1.0  0.21666  0.05930  0.05838  1.0000
  H   H387      1.0  0.37276  0.18063  0.08708  1.0000
  C   C222      1.0  0.37699  0.04140  0.39991  1.0000
  H   H388      1.0  0.43839  0.97812  0.38014  1.0000
  H   H389      1.0  0.16545  0.99022  0.03534  1.0000
  C   C223      1.0  0.31103  0.17490  0.01480  1.0000
  Fe  Fe19      1.0  0.40520  0.09478  0.05756  1.0000
  H   H390      1.0  0.09664  0.94802  0.47574  1.0000
  C   C224      1.0  0.27202  0.02666  0.23930  1.0000
  C   C225      1.0  0.11158  0.96507  0.30794  1.0000
  H   H391      1.0  0.07096  0.95859  0.27264  1.0000
  H   H392      1.0  0.14515  0.13561  0.26882  1.0000
  C   C226      1.0  0.29657  0.01267  0.06702  1.0000
  H   H393      1.0  0.18525  0.06128  0.22349  1.0000
  C   C227      1.0  0.28066  0.05627  0.20276  1.0000
  H   H394      1.0  0.39734  0.01010  0.34516  1.0000
  H   H395      1.0  0.23487  0.98761  0.44146  1.0000
  H   H396      1.0  0.42928  0.02041  0.02691  1.0000
  H   H397      1.0  0.31884  0.99225  0.22174  1.0000
  H   H398      1.0  0.24338  0.06137  0.48139  1.0000
  H   H399      1.0  0.10071  0.10879  0.32469  1.0000
  C   C228      1.0  0.14929  0.07634  0.38953  1.0000
  H   H400      1.0  0.19140  0.15299  0.17701  1.0000
  Fe  Fe20      1.0  0.10353  0.05451  0.12587  1.0000
  H   H401      1.0  0.46460  0.94663  0.35852  1.0000
  C   C229      1.0  0.45855  0.99663  0.01952  1.0000
  N   N12       1.0  0.14757  0.16411  0.19787  1.0000
  H   H402      1.0  0.22175  0.11084  0.99477  1.0000
  H   H403      1.0  0.06601  0.04773  0.00845  1.0000
  C   C230      1.0  0.50155  0.11431  0.13651  1.0000
  H   H404      1.0  0.27168  0.97017  0.24288  1.0000
  C   C231      1.0  0.42747  0.01598  0.17321  1.0000
  C   C232      1.0  0.23292  0.14296  0.13293  1.0000
  H   H405      1.0  0.04829  0.04564  0.12306  1.0000
  C   C233      1.0  0.38893  0.95781  0.38296  1.0000
  H   H406      1.0  0.06469  0.94090  0.01393  1.0000
  H   H407      1.0  0.17971  0.09136  0.46662  1.0000
  H   H408      1.0  0.42916  0.14734  0.15890  1.0000
  C   C234      1.0  0.32964  0.12659  0.13334  1.0000
  H   H409      1.0  0.09529  0.97672  0.06969  1.0000
  H   H410      1.0  0.14268  0.94453  0.33177  1.0000
  H   H411      1.0  0.45289  0.11554  0.13530  1.0000
  H   H412      1.0  0.28699  0.04393  0.30536  1.0000
  H   H413      1.0  0.45205  0.01608  0.30949  1.0000
  H   H414      1.0  0.04071  0.07294  0.36185  1.0000
  H   H415      1.0  0.37809  0.97854  0.32141  1.0000
  H   H416      1.0  0.30541  0.18352  0.46772  1.0000
  C   C235      1.0  0.50489  0.16028  0.29692  1.0000
  C   C236      1.0  0.35932  0.15852  0.40043  1.0000
  H   H417      1.0  0.07353  0.13180  0.31170  1.0000
  H   H418      1.0  0.49686  0.12534  0.28677  1.0000
  H   H419      1.0  0.46232  0.98536  0.15921  1.0000
  H   H420      1.0  0.15304  0.02268  0.39021  1.0000
  H   H421      1.0  0.46046  0.17667  0.99691  1.0000
  H   H422      1.0  0.08340  0.98821  0.99577  1.0000
  H   H423      1.0  0.47272  0.18672  0.27713  1.0000
  C   C237      1.0  0.04197  0.03254  0.44174  1.0000
  C   C238      1.0  0.39984  0.06291  0.35916  1.0000
  H   H424      1.0  0.01266  0.00904  0.29004  1.0000
  S   S46       1.0  0.20921  0.05011  0.36487  1.0000
  C   C239      1.0  0.44043  0.04137  0.26129  1.0000
  H   H425      1.0  0.29287  0.07017  0.21478  1.0000
  C   C240      1.0  0.32919  0.01246  0.00836  1.0000
  S   S47       1.0  0.10179  0.07771  0.05154  1.0000
  H   H426      1.0  0.42561  0.99910  0.29203  1.0000
  S   S48       1.0  0.12310  0.09115  0.13478  1.0000
  H   H427      1.0  0.20809  0.06564  0.25588  1.0000
  H   H428      1.0  0.26238  0.04869  0.40532  1.0000
  Fe  Fe21      1.0  0.24778  0.08899  0.32141  1.0000
  C   C241      1.0  0.35755  0.11095  0.16716  1.0000
  H   H429      1.0  0.32732  0.12570  0.06437  1.0000
  C   C242      1.0  0.34076  0.12142  0.17009  1.0000
  H   H430      1.0  0.21443  0.09887  0.36193  1.0000
  H   H431      1.0  0.20962  0.05940  0.15976  1.0000
  C   C243      1.0  0.14903  0.00788  0.28863  1.0000
  H   H432      1.0  0.48486  0.17334  0.36231  1.0000
  H   H433      1.0  0.37436  0.10107  0.34851  1.0000
  H   H434      1.0  0.25127  0.97376  0.03557  1.0000
  Fe  Fe22      1.0  0.29215  0.13064  0.21867  1.0000
  H   H435      1.0  0.13731  0.01561  0.30314  1.0000
  C   C244      1.0  0.03925  0.14295  0.20293  1.0000
  C   C245      1.0  0.09715  0.15191  0.00654  1.0000
  H   H436      1.0  0.42269  0.04023  0.25283  1.0000
  C   C246      1.0  0.21577  0.15851  0.06883  1.0000
  C   C247      1.0  0.15331  0.96694  0.30979  1.0000
  C   C248      1.0  0.41637  0.95003  0.45908  1.0000
  C   C249      1.0  0.02815  0.94084  0.45373  1.0000
  C   C250      1.0  0.11192  0.99010  0.03291  1.0000
  H   H437      1.0  0.17713  0.01323  0.08650  1.0000
  H   H438      1.0  0.13376  0.05752  0.28574  1.0000
  C   C251      1.0  0.21582  0.06974  0.08070  1.0000
  C   C252      1.0  0.36843  0.96033  0.35918  1.0000
  H   H439      1.0  0.49060  0.12983  0.07253  1.0000
  H   H440      1.0  0.27101  0.99003  0.32192  1.0000
  H   H441      1.0  0.42050  0.08243  0.27893  1.0000
  H   H442      1.0  0.13614  0.14127  0.15807  1.0000
  H   H443      1.0  0.11842  0.12269  0.22427  1.0000
  H   H444      1.0  0.11896  0.98223  0.38292  1.0000
  H   H445      1.0  0.48284  0.10589  0.16724  1.0000
  C   C253      1.0  0.39260  0.99148  0.46841  1.0000
  H   H446      1.0  0.19125  0.02083  0.26433  1.0000
  H   H447      1.0  0.07113  0.12861  0.15863  1.0000
  H   H448      1.0  0.20494  0.98397  0.25003  1.0000
  C   C254      1.0  0.50790  0.14766  0.26339  1.0000
  S   S49       1.0  0.42495  0.08560  0.36918  1.0000
  S   S50       1.0  0.28502  0.09262  0.28200  1.0000
  H   H449      1.0  0.36589  0.10676  0.19610  1.0000
  H   H450      1.0  0.32991  0.03499  0.25832  1.0000
  H   H451      1.0  0.50810  0.11886  0.01086  1.0000
  C   C255      1.0  0.12333  0.97503  0.01488  1.0000
  C   C256      1.0  0.06381  0.03997  0.39449  1.0000
  C   C257      1.0  0.02395  0.94589  0.19045  1.0000
  C   C258      1.0  0.17730  0.02400  0.28642  1.0000
  H   H452      1.0  0.04085  0.05026  0.44004  1.0000
  Fe  Fe23      1.0  0.15435  0.17131  0.41437  1.0000
  C   C259      1.0  0.26329  0.06469  0.48027  1.0000
  H   H453      1.0  0.48059  0.17077  0.13146  1.0000
  S   S51       1.0  0.12642  0.08643  0.39945  1.0000
  S   S52       1.0  0.07072  0.01483  0.19002  1.0000
  H   H454      1.0  0.03987  0.01740  0.34472  1.0000
  N   N13       1.0  0.25683  0.11423  0.01019  1.0000
  C   C260      1.0  0.31334  0.04021  0.04863  1.0000
  H   H455      1.0  0.08121  0.18833  0.45506  1.0000
  H   H456      1.0  0.07569  0.01968  0.09023  1.0000
  C   C261      1.0  0.08046  0.09893  0.35173  1.0000
  C   C262      1.0  0.12782  0.97056  0.37539  1.0000
  H   H457      1.0  0.42083  0.12714  0.29106  1.0000
  H   H458      1.0  0.05047  0.98717  0.06340  1.0000
  H   H459      1.0  0.42741  0.16978  0.32930  1.0000
  C   C263      1.0  0.48852  0.95144  0.15057  1.0000
  Fe  Fe24      1.0  0.30472  0.96402  0.40700  1.0000
  S   S53       1.0  0.26658  0.11195  0.35923  1.0000
  H   H460      1.0  0.09079  0.14332  0.21836  1.0000
  H   H461      1.0  0.26591  0.17372  0.13503  1.0000
  H   H462      1.0  0.23902  0.10425  0.08743  1.0000
  C   C264      1.0  0.03694  0.96463  0.20584  1.0000
  C   C265      1.0  0.41358  0.00718  0.01834  1.0000
  C   C266      1.0  0.44231  0.16984  0.34681  1.0000
  H   H463      1.0  0.17194  0.98123  0.45751  1.0000
  H   H464      1.0  0.02018  0.05947  0.01781  1.0000
  H   H465      1.0  0.37039  0.14964  0.38827  1.0000
  H   H466      1.0  0.31010  0.18628  0.03519  1.0000
  C   C267      1.0  0.43579  0.18181  0.47487  1.0000
  H   H467      1.0  0.06616  0.07469  0.16062  1.0000
  C   C268      1.0  0.10171  0.00358  0.99478  1.0000
  H   H468      1.0  0.19537  0.97357  0.20510  1.0000
  H   H469      1.0  0.33874  0.14731  0.40333  1.0000
  S   S54       1.0  0.33246  0.11267  0.35099  1.0000
  H   H470      1.0  0.44812  0.99273  0.05739  1.0000
  H   H471      1.0  0.48347  0.15178  0.31528  1.0000
  C   C269      1.0  0.40286  0.06580  0.31061  1.0000
  N   N14       1.0  0.13544  0.97760  0.32028  1.0000
  C   C270      1.0  0.24292  0.09429  0.06583  1.0000
  H   H472      1.0  0.35914  0.15594  0.43844  1.0000
  Fe  Fe25      1.0  0.12477  0.11470  0.05713  1.0000
  H   H473      1.0  0.34333  0.06142  0.30402  1.0000
  H   H474      1.0  0.03258  0.06504  0.28187  1.0000
  H   H475      1.0  0.30737  0.05099  0.06429  1.0000
  C   C271      1.0  0.37543  0.15743  0.26829  1.0000
  C   C272      1.0  0.13760  0.94208  0.02724  1.0000
  H   H476      1.0  0.29193  0.09329  0.99855  1.0000
  H   H477      1.0  0.40347  0.95738  0.35603  1.0000
  H   H478      1.0  0.21452  0.03633  0.14202  1.0000
  Fe  Fe26      1.0  0.14098  0.08275  0.01804  1.0000
  S   S55       1.0  0.26599  0.99613  0.11549  1.0000
  C   C273      1.0  0.45630  0.00030  0.14975  1.0000
  H   H479      1.0  0.22405  0.95676  0.98642  1.0000
  Fe  Fe27      1.0  0.40954  0.08550  0.44162  1.0000
  C   C274      1.0  0.30750  0.02353  0.19395  1.0000
  H   H480      1.0  0.23356  0.13272  0.01998  1.0000
  H   H481      1.0  0.20176  0.15428  0.05057  1.0000
  H   H482      1.0  0.38522  0.04969  0.26532  1.0000
  C   C275      1.0  0.36536  0.13162  0.30895  1.0000
  H   H483      1.0  0.20392  0.96095  0.05689  1.0000
  C   C276      1.0  0.14107  0.05092  0.39305  1.0000
  C   C277      1.0  0.25368  0.94186  0.32203  1.0000
  H   H484      1.0  0.44881  0.05778  0.27106  1.0000
  H   H485      1.0  0.12282  0.04235  0.24719  1.0000
  H   H486      1.0  0.05763  0.09080  0.10903  1.0000
  H   H487      1.0  0.06225  0.02054  0.39978  1.0000
  H   H488      1.0  0.07343  0.10398  0.20946  1.0000
  H   H489      1.0  0.43331  0.05284  0.11488  1.0000
  H   H490      1.0  0.01238  0.11056  0.19381  1.0000
  H   H491      1.0  0.35596  0.01275  0.14235  1.0000
  C   C278      1.0  0.32522  0.06281  0.30845  1.0000
  H   H492      1.0  0.28968  0.12174  0.43376  1.0000
  C   C279      1.0  0.04697  0.98078  0.10305  1.0000
  C   C280      1.0  0.03528  0.04754  0.28782  1.0000
  H   H493      1.0  0.37462  0.03917  0.43736  1.0000
  H   H494      1.0  0.39879  0.16092  0.12283  1.0000
  C   C281      1.0  0.05557  0.99134  0.16986  1.0000
  S   S56       1.0  0.41638  0.96599  0.24174  1.0000
  H   H495      1.0  0.14980  0.01387  0.24904  1.0000
  N   N15       1.0  0.06306  0.05520  0.34359  1.0000
  C   C282      1.0  0.40824  0.13569  0.28458  1.0000
  H   H496      1.0  0.46192  0.96027  0.04727  1.0000
  C   C283      1.0  0.43837  0.98613  0.99586  1.0000
  C   C284      1.0  0.48128  0.15285  0.13252  1.0000
  C   C285      1.0  0.14198  0.97465  0.11349  1.0000
  C   C286      1.0  0.17821  0.11907  0.24992  1.0000
  H   H497      1.0  0.23239  0.12665  0.16395  1.0000
  H   H498      1.0  0.05450  0.11179  0.37882  1.0000
  H   H499      1.0  0.34029  0.19054  0.12863  1.0000
  H   H500      1.0  0.27720  0.02800  0.42187  1.0000
  C   C287      1.0  0.15934  0.04241  0.38687  1.0000
  C   C288      1.0  0.25681  0.05988  0.20176  1.0000
  C   C289      1.0  0.23971  0.00855  0.41674  1.0000
  C   C290      1.0  0.33971  0.01717  0.14224  1.0000
  H   H501      1.0  0.04504  0.06820  0.04431  1.0000
  H   H502      1.0  0.17810  0.01765  0.32478  1.0000
  Fe  Fe28      1.0  0.16097  0.09579  0.09533  1.0000
  H   H503      1.0  0.24559  0.05540  0.23976  1.0000
  H   H504      1.0  0.49355  0.17060  0.02860  1.0000
  H   H505      1.0  0.18799  0.11036  0.23364  1.0000
  C   C291      1.0  0.01727  0.11767  0.22027  1.0000
  C   C292      1.0  0.38294  0.04723  0.30299  1.0000
  H   H506      1.0  0.17581  0.16592  0.23528  1.0000
  H   H507      1.0  0.36291  0.16605  0.26239  1.0000
  H   H508      1.0  0.18942  0.18548  0.99587  1.0000
  H   H509      1.0  0.09733  0.01751  0.00428  1.0000
  H   H510      1.0  0.37630  0.96842  0.06337  1.0000
  H   H511      1.0  0.12935  0.98378  0.10910  1.0000
  H   H512      1.0  0.27181  0.16291  0.01646  1.0000
  H   H513      1.0  0.33654  0.18477  0.45448  1.0000
  H   H514      1.0  0.12057  0.03769  0.40143  1.0000
  S   S57       1.0  0.16412  0.12175  0.01779  1.0000
  H   H515      1.0  0.48534  0.02560  0.07415  1.0000
  C   C293      1.0  0.36038  0.02522  0.34425  1.0000
  C   C294      1.0  0.38202  0.98859  0.10652  1.0000
  H   H516      1.0  0.16032  0.01198  0.47855  1.0000
  H   H517      1.0  0.12062  0.15741  0.26419  1.0000
  H   H518      1.0  0.32425  0.06033  0.22308  1.0000
  C   C295      1.0  0.19402  0.08532  0.37086  1.0000
  H   H519      1.0  0.31831  0.06118  0.34606  1.0000
  H   H520      1.0  0.26059  0.00739  0.99137  1.0000
  H   H521      1.0  0.43393  0.12368  0.20712  1.0000
  C   C296      1.0  0.17254  0.13737  0.20924  1.0000
  H   H522      1.0  0.15906  0.99484  0.15368  1.0000
  C   C297      1.0  0.26262  0.96948  0.27838  1.0000
  C   C298      1.0  0.30376  0.04038  0.30426  1.0000
  H   H523      1.0  0.27080  0.95567  0.00605  1.0000
  C   C299      1.0  0.35742  0.02249  0.39248  1.0000
  C   C300      1.0  0.16493  0.97412  0.25385  1.0000
  H   H524      1.0  0.17700  0.06204  0.00686  1.0000
  N   N16       1.0  0.12877  0.95565  0.05273  1.0000
  N   N17       1.0  0.40239  0.97917  0.39743  1.0000
  H   H525      1.0  0.29744  0.02106  0.33800  1.0000
  Fe  Fe29      1.0  0.30457  0.11892  0.31412  1.0000
  H   H526      1.0  0.25900  0.01416  0.22563  1.0000
  C   C301      1.0  0.15996  0.15101  0.22999  1.0000
  H   H527      1.0  0.45396  0.14554  0.09210  1.0000
  H   H528      1.0  0.22139  0.00952  0.42071  1.0000
  H   H529      1.0  0.09365  0.18153  0.02307  1.0000
  H   H530      1.0  0.36983  0.17642  0.14946  1.0000
  C   C302      1.0  0.45506  0.13521  0.12935  1.0000
  H   H531      1.0  0.27471  0.14034  0.06983  1.0000
  H   H532      1.0  0.25212  0.18788  0.21624  1.0000
  C   C303      1.0  0.21985  0.98232  0.03838  1.0000
  H   H533      1.0  0.15975  0.12477  0.19567  1.0000
  C   C304      1.0  0.08496  0.12341  0.17394  1.0000
  H   H534      1.0  0.09897  0.99515  0.29034  1.0000
  C   C305      1.0  0.47476  0.98250  0.02535  1.0000
  N   N18       1.0  0.50613  0.16164  0.09219  1.0000
  S   S58       1.0  0.26510  0.95665  0.44684  1.0000
  H   H535      1.0  0.10540  0.07717  0.31036  1.0000
  C   C306      1.0  0.43154  0.12938  0.16999  1.0000
  H   H536      1.0  0.40242  0.96988  0.08695  1.0000
  C   C307      1.0  0.32785  0.01384  0.19388  1.0000
  H   H537      1.0  0.50575  0.01157  0.18473  1.0000
  C   C308      1.0  0.17571  0.09354  0.37823  1.0000
  S   S59       1.0  0.30744  0.13832  0.13889  1.0000
  H   H538      1.0  0.18289  0.94884  0.27072  1.0000
  C   C309      1.0  0.13503  0.17431  0.22629  1.0000
  S   S60       1.0  0.38120  0.08858  0.13007  1.0000
  H   H539      1.0  0.16425  0.19054  0.25836  1.0000
  C   C310      1.0  0.09250  0.04323  0.29595  1.0000
  H   H540      1.0  0.36820  0.98077  0.42751  1.0000
  C   C311      1.0  0.33820  0.05371  0.01098  1.0000
  H   H541      1.0  0.24378  0.04638  0.18985  1.0000
  C   C312      1.0  0.12110  0.05539  0.26294  1.0000
  H   H542      1.0  0.22291  0.98826  0.06795  1.0000
  H   H543      1.0  0.48101  0.14170  0.17093  1.0000
  H   H544      1.0  0.30128  0.05667  0.44791  1.0000
  H   H545      1.0  0.05267  0.96567  0.31299  1.0000
  C   C313      1.0  0.42459  0.97666  0.41168  1.0000
  H   H546      1.0  0.33991  0.00583  0.42407  1.0000
  H   H547      1.0  0.32471  0.00298  0.13420  1.0000
  H   H548      1.0  0.01419  0.06329  0.10618  1.0000
  C   C314      1.0  0.50077  0.09162  0.12648  1.0000
  C   C315      1.0  0.27532  0.11070  0.47307  1.0000
  H   H549      1.0  0.17175  0.99531  0.22718  1.0000
  H   H550      1.0  0.07962  0.03498  0.27700  1.0000
  C   C316      1.0  0.28208  0.99221  0.28611  1.0000
  C   C317      1.0  0.30455  0.99877  0.04706  1.0000
  C   C318      1.0  0.41844  0.16148  0.24427  1.0000
  H   H551      1.0  0.18373  0.03633  0.14999  1.0000
  C   C319      1.0  0.40205  0.17247  0.23617  1.0000
  H   H552      1.0  0.29210  0.06246  0.16362  1.0000
  S   S61       1.0  0.47299  0.06650  0.02527  1.0000
  H   H553      1.0  0.19130  0.13043  0.26498  1.0000
  H   H554      1.0  0.21379  0.99529  0.01335  1.0000
  C   C320      1.0  0.24535  0.98587  0.00840  1.0000
  S   S62       1.0  0.45190  0.17941  0.20576  1.0000
  H   H555      1.0  0.48786  0.98917  0.04519  1.0000
  H   H556      1.0  0.45755  0.16399  0.45548  1.0000
  H   H557      1.0  0.44984  0.96752  0.47961  1.0000
  C   C321      1.0  0.44015  0.95046  0.47214  1.0000
  S   S63       1.0  0.40623  0.15918  0.47589  1.0000
  C   C322      1.0  0.05245  0.05371  0.99352  1.0000
  H   H558      1.0  0.22076  0.17664  0.21005  1.0000
  H   H559      1.0  0.50467  0.98618  0.46305  1.0000
  H   H560      1.0  0.09624  0.94232  0.11896  1.0000
  C   C323      1.0  0.37171  0.18831  0.36217  1.0000
  H   H561      1.0  0.40805  0.16387  0.98557  1.0000
  H   H562      1.0  0.36979  0.18957  0.32593  1.0000
  S   S64       1.0  0.02236  0.98608  0.98499  1.0000
  H   H563      1.0  0.16464  0.22030  0.54325  1.0000
  H   H564      1.0  0.37055  0.27446  0.71800  1.0000
  C   C324      1.0  0.09356  0.38047  0.48576  1.0000
  H   H565      1.0  0.25340  0.19401  0.69421  1.0000
  H   H566      1.0  0.14842  0.42387  0.65346  1.0000
  H   H567      1.0  0.44652  0.40457  0.67173  1.0000
  C   C325      1.0  0.24480  0.31486  0.57225  1.0000
  C   C326      1.0  0.03855  0.40163  0.95215  1.0000
  H   H568      1.0  0.22598  0.33788  0.50113  1.0000
  H   H569      1.0  0.30233  0.37251  0.85571  1.0000
  C   C327      1.0  0.26348  0.38330  0.61540  1.0000
  S   S65       1.0  0.49512  0.26332  0.64919  1.0000
  S   S66       1.0  0.25704  0.25135  0.50615  1.0000
  C   C328      1.0  0.24871  0.22014  0.63112  1.0000
  H   H570      1.0  0.49144  0.19831  0.75375  1.0000
  H   H571      1.0  0.50010  0.29725  0.70563  1.0000
  H   H572      1.0  0.14649  0.37575  0.58696  1.0000
  H   H573      1.0  0.25408  0.29141  0.63192  1.0000
  H   H574      1.0  0.16459  0.22917  0.80788  1.0000
  S   S67       1.0  0.03085  0.19476  0.69161  1.0000
  C   C329      1.0  0.32069  0.20957  0.60612  1.0000
  S   S68       1.0  0.21067  0.36500  0.91525  1.0000
  H   H575      1.0  0.13510  0.41778  0.51503  1.0000
  H   H576      1.0  0.29889  0.19840  0.61827  1.0000
  C   C330      1.0  0.50050  0.37652  0.85766  1.0000
  C   C331      1.0  0.12268  0.43468  0.62067  1.0000
  H   H577      1.0  0.49126  0.32864  0.64396  1.0000
  H   H578      1.0  0.39197  0.41079  0.51128  1.0000
  H   H579      1.0  0.22953  0.39439  0.57495  1.0000
  C   C332      1.0  0.15441  0.42840  0.51767  1.0000
  H   H580      1.0  0.18893  0.27775  0.49509  1.0000
  S   S69       1.0  0.33028  0.20823  0.87030  1.0000
  H   H581      1.0  0.25277  0.22954  0.80448  1.0000
  H   H582      1.0  0.17733  0.38780  0.70762  1.0000
  H   H583      1.0  0.12262  0.24323  0.88581  1.0000
  H   H584      1.0  0.17501  0.33730  0.50591  1.0000
  C   C333      1.0  0.19219  0.40587  0.60149  1.0000
  H   H585      1.0  0.45417  0.41040  0.81978  1.0000
  H   H586      1.0  0.41123  0.33818  0.53698  1.0000
  H   H587      1.0  0.05701  0.41773  0.91922  1.0000
  H   H588      1.0  0.05006  0.23994  0.81765  1.0000
  H   H589      1.0  0.05541  0.40764  0.78133  1.0000
  H   H590      1.0  0.05722  0.19344  0.53413  1.0000
  H   H591      1.0  0.39835  0.24360  0.74225  1.0000
  Fe  Fe30      1.0  0.46352  0.24156  0.62532  1.0000
  C   C334      1.0  0.06490  0.42431  0.51049  1.0000
  H   H592      1.0  0.38915  0.25250  0.78935  1.0000
  H   H593      1.0  0.27193  0.20134  0.77410  1.0000
  H   H594      1.0  0.27398  0.26357  0.59331  1.0000
  H   H595      1.0  0.15613  0.26475  0.84169  1.0000
  Fe  Fe31      1.0  0.11299  0.21397  0.73484  1.0000
  H   H596      1.0  0.28104  0.24560  0.64573  1.0000
  C   C335      1.0  0.17301  0.19330  0.91528  1.0000
  H   H597      1.0  0.48363  0.23479  0.84253  1.0000
  H   H598      1.0  0.26486  0.32457  0.54437  1.0000
  H   H599      1.0  0.32029  0.20825  0.67872  1.0000
  H   H600      1.0  0.42581  0.37977  0.73717  1.0000
  H   H601      1.0  0.16201  0.32655  0.57237  1.0000
  H   H602      1.0  0.16034  0.32161  0.94196  1.0000
  C   C336      1.0  0.15602  0.38721  0.91115  1.0000
  H   H603      1.0  0.11127  0.29777  0.74674  1.0000
  H   H604      1.0  0.37175  0.21150  0.95294  1.0000
  Fe  Fe32      1.0  0.50343  0.25178  0.53269  1.0000
  H   H605      1.0  0.41542  0.19828  0.95427  1.0000
  H   H606      1.0  0.19483  0.23423  0.90648  1.0000
  H   H607      1.0  0.04441  0.21100  0.87189  1.0000
  C   C337      1.0  0.46501  0.33612  0.51621  1.0000
  H   H608      1.0  0.01746  0.43065  0.81055  1.0000
  H   H609      1.0  0.31285  0.39525  0.77174  1.0000
  H   H610      1.0  0.44378  0.36851  0.81475  1.0000
  H   H611      1.0  0.26410  0.38157  0.58035  1.0000
  H   H612      1.0  0.17137  0.36438  0.66697  1.0000
  H   H613      1.0  0.32919  0.34011  0.80497  1.0000
  H   H614      1.0  0.18741  0.23858  0.59458  1.0000
  H   H615      1.0  0.18414  0.29143  0.87545  1.0000
  H   H616      1.0  0.18827  0.32239  0.87297  1.0000
  C   C338      1.0  0.22857  0.39662  0.60968  1.0000
  H   H617      1.0  0.29941  0.34216  0.86007  1.0000
  H   H618      1.0  0.18127  0.41467  0.61465  1.0000
  H   H619      1.0  0.06227  0.28494  0.51420  1.0000
  C   C339      1.0  0.17347  0.29069  0.72705  1.0000
  C   C340      1.0  0.02448  0.20988  0.53713  1.0000
  H   H620      1.0  0.39928  0.22209  0.84943  1.0000
  C   C341      1.0  0.04936  0.41132  0.56786  1.0000
  H   H621      1.0  0.37726  0.22023  0.60589  1.0000
  H   H622      1.0  0.30717  0.33577  0.98138  1.0000
  C   C342      1.0  0.40203  0.24570  0.77534  1.0000
  H   H623      1.0  0.14843  0.22301  0.91545  1.0000
  H   H624      1.0  0.02158  0.39977  0.94007  1.0000
  H   H625      1.0  0.01180  0.35080  0.75981  1.0000
  C   C343      1.0  0.47718  0.33266  0.86151  1.0000
  C   C344      1.0  0.44612  0.39155  0.70882  1.0000
  C   C345      1.0  0.15643  0.22804  0.56514  1.0000
  H   H626      1.0  0.23882  0.33027  0.56606  1.0000
  S   S70       1.0  0.06424  0.36339  0.79272  1.0000
  H   H627      1.0  0.02931  0.30913  0.75769  1.0000
  H   H628      1.0  0.42940  0.20036  0.87295  1.0000
  C   C346      1.0  0.44531  0.29257  0.85567  1.0000
  H   H629      1.0  0.11442  0.26783  0.71300  1.0000
  C   C347      1.0  0.17945  0.33266  0.54103  1.0000
  H   H630      1.0  0.43057  0.30113  0.66511  1.0000
  S   S71       1.0  0.38204  0.30977  0.49202  1.0000
  C   C348      1.0  0.42440  0.31227  0.68101  1.0000
  H   H631      1.0  0.46096  0.23620  0.49370  1.0000
  C   C349      1.0  0.22493  0.29073  0.56805  1.0000
  H   H632      1.0  0.29124  0.31682  0.95229  1.0000
  S   S72       1.0  0.42061  0.42515  0.86702  1.0000
  H   H633      1.0  0.08813  0.28190  0.53419  1.0000
  C   C350      1.0  0.42262  0.26451  0.51795  1.0000
  H   H634      1.0  0.48261  0.33640  0.52410  1.0000
  C   C351      1.0  0.23665  0.19529  0.68426  1.0000
  H   H635      1.0  0.42421  0.26656  0.55208  1.0000
  H   H636      1.0  0.14599  0.23718  0.54499  1.0000
  C   C352      1.0  0.36541  0.43133  0.93244  1.0000
  H   H637      1.0  0.10910  0.36405  0.53988  1.0000
  H   H638      1.0  0.02769  0.37132  0.54119  1.0000
  H   H639      1.0  0.47693  0.29333  0.75752  1.0000
  H   H640      1.0  0.46098  0.20304  0.80914  1.0000
  H   H641      1.0  0.15943  0.30062  0.86642  1.0000
  C   C353      1.0  0.15608  0.39660  0.94638  1.0000
  H   H642      1.0  0.24273  0.44035  0.52823  1.0000
  C   C354      1.0  0.01960  0.36914  0.67922  1.0000
  S   S73       1.0  0.08521  0.32645  0.86035  1.0000
  C   C355      1.0  0.43444  0.39331  0.83959  1.0000
  C   C356      1.0  0.12007  0.40360  0.93303  1.0000
  H   H643      1.0  0.02114  0.35235  0.67664  1.0000
  C   C357      1.0  0.12865  0.29591  0.74120  1.0000
  H   H644      1.0  0.43223  0.36525  0.65831  1.0000
  H   H645      1.0  0.33600  0.41426  0.84028  1.0000
  C   C358      1.0  0.41461  0.39493  0.86728  1.0000
  S   S74       1.0  0.08435  0.33069  0.74965  1.0000
  S   S75       1.0  0.48181  0.21780  0.61190  1.0000
  H   H646      1.0  0.16993  0.38095  0.90260  1.0000
  H   H647      1.0  0.46798  0.34159  0.60012  1.0000
  C   C359      1.0  0.07609  0.30612  0.55449  1.0000
  C   C360      1.0  0.20980  0.31786  0.51029  1.0000
  H   H648      1.0  0.36802  0.39748  0.82244  1.0000
  H   H649      1.0  0.21419  0.21820  0.90319  1.0000
  C   C361      1.0  0.47241  0.24131  0.94851  1.0000
  H   H650      1.0  0.16881  0.25522  0.59523  1.0000
  C   C362      1.0  0.19946  0.27263  0.52061  1.0000
  C   C363      1.0  0.22090  0.23797  0.79833  1.0000
  H   H651      1.0  0.44718  0.31850  0.54889  1.0000
  H   H652      1.0  0.41969  0.20429  0.49224  1.0000
  H   H653      1.0  0.08970  0.24890  0.83870  1.0000
  H   H654      1.0  0.20174  0.37745  0.71104  1.0000
  H   H655      1.0  0.41917  0.33914  0.72180  1.0000
  H   H656      1.0  0.18114  0.36626  0.60662  1.0000
  H   H657      1.0  0.13092  0.29901  0.94055  1.0000
  C   C364      1.0  0.19462  0.21480  0.92209  1.0000
  H   H658      1.0  0.11875  0.32775  0.95133  1.0000
  N   N19       1.0  0.21917  0.29780  0.51990  1.0000
  S   S76       1.0  0.26886  0.38107  0.92250  1.0000
  H   H659      1.0  0.27924  0.35505  0.71366  1.0000
  C   C365      1.0  0.24007  0.21896  0.51360  1.0000
  S   S77       1.0  0.09604  0.40166  0.64997  1.0000
  C   C366      1.0  0.35091  0.42338  0.80240  1.0000
  C   C367      1.0  0.50265  0.39406  0.53658  1.0000
  H   H660      1.0  0.45529  0.36043  0.74218  1.0000
  H   H661      1.0  0.23318  0.22196  0.61714  1.0000
  C   C368      1.0  0.17821  0.24874  0.57239  1.0000
  H   H662      1.0  0.45750  0.21132  0.74868  1.0000
  S   S78       1.0  0.14662  0.32911  0.78311  1.0000
  C   C369      1.0  0.41290  0.20827  0.80003  1.0000
  H   H663      1.0  0.47643  0.38522  0.67822  1.0000
  N   N20       1.0  0.21854  0.41574  0.60796  1.0000
  H   H664      1.0  0.50210  0.37859  0.61250  1.0000
  S   S79       1.0  0.28081  0.23001  0.92259  1.0000
  H   H665      1.0  0.28332  0.38948  0.61761  1.0000
  H   H666      1.0  0.48280  0.26758  0.86968  1.0000
  H   H667      1.0  0.47130  0.34402  0.93421  1.0000
  C   C370      1.0  0.46289  0.35412  0.61331  1.0000
  H   H668      1.0  0.15097  0.42429  0.55725  1.0000
  H   H669      1.0  0.49071  0.40325  0.90650  1.0000
  H   H670      1.0  0.19510  0.41308  0.56064  1.0000
  Fe  Fe33      1.0  0.20933  0.39004  0.95225  1.0000
  C   C371      1.0  0.32407  0.38591  0.76227  1.0000
  C   C372      1.0  0.11270  0.37520  0.50018  1.0000
  H   H671      1.0  0.33983  0.40200  0.72492  1.0000
  S   S80       1.0  0.09568  0.39123  0.87137  1.0000
  C   C373      1.0  0.27672  0.43394  0.73471  1.0000
  H   H672      1.0  0.32820  0.22520  0.56612  1.0000
  H   H673      1.0  0.18855  0.30500  0.58981  1.0000
  C   C374      1.0  0.14395  0.22220  0.88204  1.0000
  H   H674      1.0  0.50356  0.37850  0.76907  1.0000
  H   H675      1.0  0.07505  0.37290  0.51427  1.0000
  N   N21       1.0  0.33546  0.37779  0.80206  1.0000
  H   H676      1.0  0.47283  0.31682  0.89981  1.0000
  C   C375      1.0  0.15234  0.27534  0.71715  1.0000
  H   H677      1.0  0.30204  0.42807  0.68723  1.0000
  H   H678      1.0  0.34864  0.23729  0.62552  1.0000
  C   C376      1.0  0.21262  0.20476  0.53449  1.0000
  H   H679      1.0  0.16701  0.42030  0.50847  1.0000
  S   S81       1.0  0.33527  0.27877  0.82584  1.0000
  H   H680      1.0  0.02190  0.24569  0.49810  1.0000
  H   H681      1.0  0.19820  0.41750  0.74480  1.0000
  C   C377      1.0  0.05894  0.42042  0.74130  1.0000
  C   C378      1.0  0.08133  0.29620  0.51718  1.0000
  H   H682      1.0  0.13711  0.37794  0.86084  1.0000
  S   S82       1.0  0.15321  0.25097  0.70113  1.0000
  C   C379      1.0  0.32725  0.22339  0.63854  1.0000
  H   H683      1.0  0.28990  0.34589  0.79125  1.0000
  C   C380      1.0  0.04762  0.23162  0.85824  1.0000
  H   H684      1.0  0.48693  0.31444  0.81617  1.0000
  C   C381      1.0  0.42855  0.36959  0.83682  1.0000
  H   H685      1.0  0.37427  0.37335  0.91720  1.0000
  C   C382      1.0  0.29160  0.37189  0.71972  1.0000
  S   S83       1.0  0.12654  0.38313  0.75595  1.0000
  H   H686      1.0  0.45914  0.40476  0.72131  1.0000
  C   C383      1.0  0.47854  0.22930  0.88218  1.0000
  H   H687      1.0  0.05407  0.40765  0.72273  1.0000
  N   N22       1.0  0.17259  0.20183  0.86263  1.0000
  H   H688      1.0  0.38699  0.35989  0.70069  1.0000
  H   H689      1.0  0.41456  0.29888  0.72267  1.0000
  H   H690      1.0  0.03532  0.36116  0.59609  1.0000
  Fe  Fe34      1.0  0.26294  0.40486  0.95834  1.0000
  H   H691      1.0  0.44245  0.27162  0.49247  1.0000
  C   C384      1.0  0.21676  0.41964  0.65402  1.0000
  H   H692      1.0  0.41058  0.32644  0.61924  1.0000
  H   H693      1.0  0.35815  0.22701  0.49882  1.0000
  H   H694      1.0  0.25797  0.26221  0.94642  1.0000
  H   H695      1.0  0.22402  0.24706  0.82344  1.0000
  S   S84       1.0  0.27136  0.28805  0.83836  1.0000
  H   H696      1.0  0.27153  0.42395  0.58187  1.0000
  H   H697      1.0  0.44653  0.38566  0.50184  1.0000
  H   H698      1.0  0.21480  0.37604  0.64172  1.0000
  H   H699      1.0  0.26253  0.26159  0.75239  1.0000
  H   H700      1.0  0.04579  0.42903  0.74062  1.0000
  Fe  Fe35      1.0  0.22737  0.34902  0.97158  1.0000
  Fe  Fe36      1.0  0.32012  0.23647  0.88496  1.0000
  C   C385      1.0  0.02616  0.33213  0.94484  1.0000
  C   C386      1.0  0.40486  0.23512  0.53272  1.0000
  H   H701      1.0  0.16789  0.29224  0.55784  1.0000
  H   H702      1.0  0.18775  0.31878  0.75527  1.0000
  C   C387      1.0  0.36724  0.37209  0.74452  1.0000
  C   C388      1.0  0.37655  0.22385  0.56775  1.0000
  H   H703      1.0  0.19061  0.28839  0.72267  1.0000
  H   H704      1.0  0.06837  0.31994  0.54039  1.0000
  C   C389      1.0  0.25352  0.20706  0.49967  1.0000
  H   H705      1.0  0.31609  0.35501  0.73786  1.0000
  H   H706      1.0  0.06122  0.28867  0.59155  1.0000
  H   H707      1.0  0.21968  0.40338  0.75269  1.0000
  C   C390      1.0  0.46423  0.33076  0.69853  1.0000
  H   H708      1.0  0.27855  0.37756  0.73711  1.0000
  C   C391      1.0  0.43769  0.35351  0.68773  1.0000
  H   H709      1.0  0.49025  0.39875  0.51545  1.0000
  H   H710      1.0  0.02627  0.25159  0.86727  1.0000
  C   C392      1.0  0.24658  0.30568  0.62469  1.0000
  H   H711      1.0  0.26209  0.21885  0.60362  1.0000
  H   H712      1.0  0.46793  0.37421  0.96700  1.0000
  H   H713      1.0  0.42288  0.26102  0.76364  1.0000
  H   H714      1.0  0.20974  0.26390  0.50515  1.0000
  C   C393      1.0  0.34570  0.35984  0.79648  1.0000
  C   C394      1.0  0.14638  0.44011  0.62855  1.0000
  C   C395      1.0  0.11948  0.39369  0.89876  1.0000
  H   H715      1.0  0.10018  0.43376  0.71267  1.0000
  C   C396      1.0  0.35257  0.20544  0.52003  1.0000
  C   C397      1.0  0.26501  0.24621  0.63213  1.0000
  Fe  Fe37      1.0  0.09481  0.37378  0.72396  1.0000
  H   H716      1.0  0.02285  0.43050  0.68427  1.0000
  C   C398      1.0  0.19058  0.20534  0.97789  1.0000
  H   H717      1.0  0.05063  0.42758  0.57682  1.0000
  S   S85       1.0  0.01362  0.29030  0.86564  1.0000
  C   C399      1.0  0.38934  0.37237  0.89436  1.0000
  H   H718      1.0  0.42904  0.29594  0.86832  1.0000
  C   C400      1.0  0.28454  0.19448  0.78871  1.0000
  S   S86       1.0  0.24948  0.42507  0.89991  1.0000
  H   H719      1.0  0.48097  0.34878  0.69481  1.0000
  C   C401      1.0  0.17342  0.37484  0.62718  1.0000
  H   H720      1.0  0.24485  0.31870  0.83621  1.0000
  C   C402      1.0  0.31391  0.36234  0.85356  1.0000
  C   C403      1.0  0.47814  0.24790  0.89755  1.0000
  C   C404      1.0  0.19787  0.20830  0.82645  1.0000
  H   H721      1.0  0.22655  0.32767  0.90183  1.0000
  H   H722      1.0  0.06531  0.40890  0.50094  1.0000
  C   C405      1.0  0.24681  0.24005  0.77454  1.0000
  H   H723      1.0  0.07758  0.27009  0.84721  1.0000
  C   C406      1.0  0.25341  0.29041  0.88644  1.0000
  H   H724      1.0  0.19636  0.35107  0.53599  1.0000
  H   H725      1.0  0.22701  0.29584  0.65440  1.0000
  C   C407      1.0  0.49094  0.30755  0.71790  1.0000
  C   C408      1.0  0.23302  0.31309  0.91181  1.0000
  N   N23       1.0  0.50421  0.35717  0.84238  1.0000
  C   C409      1.0  0.29814  0.20550  0.81541  1.0000
  H   H726      1.0  0.40167  0.43805  0.94341  1.0000
  H   H727      1.0  0.35461  0.35443  0.82500  1.0000
  H   H728      1.0  0.22762  0.20014  0.71123  1.0000
  H   H729      1.0  0.18465  0.24424  0.83651  1.0000
  C   C410      1.0  0.48729  0.36524  0.91533  1.0000
  H   H730      1.0  0.24920  0.36329  0.64883  1.0000
  C   C411      1.0  0.35796  0.40284  0.79599  1.0000
  C   C412      1.0  0.47559  0.38156  0.92573  1.0000
  C   C413      1.0  0.01799  0.30296  0.98010  1.0000
  S   S87       1.0  0.27379  0.40844  0.78972  1.0000
  C   C414      1.0  0.17179  0.30782  0.74570  1.0000
  H   H731      1.0  0.12550  0.20315  0.89574  1.0000
  H   H732      1.0  0.01277  0.40130  0.51819  1.0000
  H   H733      1.0  0.50216  0.36613  0.93339  1.0000
  H   H734      1.0  0.02653  0.23097  0.92415  1.0000
  H   H735      1.0  0.26038  0.32343  0.62689  1.0000
  H   H736      1.0  0.13290  0.34559  0.64635  1.0000
  Fe  Fe38      1.0  0.05616  0.32128  0.82151  1.0000
  N   N24       1.0  0.35537  0.19876  0.57105  1.0000
  H   H737      1.0  0.04477  0.34620  0.94539  1.0000
  H   H738      1.0  0.36660  0.41825  0.91630  1.0000
  H   H739      1.0  0.36386  0.33141  0.91178  1.0000
  C   C415      1.0  0.30527  0.36274  0.75469  1.0000
  H   H740      1.0  0.37331  0.41414  0.75757  1.0000
  C   C416      1.0  0.20038  0.39981  0.74958  1.0000
  H   H741      1.0  0.47048  0.33257  0.79346  1.0000
  H   H742      1.0  0.13722  0.37626  0.64590  1.0000
  H   H743      1.0  0.41366  0.22359  0.55275  1.0000
  H   H744      1.0  0.36500  0.28912  0.66075  1.0000
  H   H745      1.0  0.25233  0.24929  0.65718  1.0000
  H   H746      1.0  0.31125  0.19525  0.53387  1.0000
  H   H747      1.0  0.25569  0.40534  0.64995  1.0000
  C   C417      1.0  0.45392  0.19455  0.78473  1.0000
  H   H748      1.0  0.23259  0.27654  0.57277  1.0000
  H   H749      1.0  0.19427  0.20341  0.79574  1.0000
  C   C418      1.0  0.17358  0.30107  0.88606  1.0000
  N   N25       1.0  0.02113  0.38936  0.58703  1.0000
  H   H750      1.0  0.02930  0.33545  0.90558  1.0000
  S   S88       1.0  0.31490  0.28919  0.91816  1.0000
  C   C419      1.0  0.16752  0.22521  0.84461  1.0000
  S   S89       1.0  0.33720  0.24815  0.93757  1.0000
  Fe  Fe39      1.0  0.29932  0.24544  0.97052  1.0000
  H   H751      1.0  0.41496  0.27731  0.49772  1.0000
  H   H752      1.0  0.20227  0.21392  0.54549  1.0000
  C   C420      1.0  0.18550  0.30980  0.55333  1.0000
  C   C421      1.0  0.32301  0.35767  0.89934  1.0000
  H   H753      1.0  0.25319  0.29724  0.48455  1.0000
  H   H754      1.0  0.38630  0.38716  0.74200  1.0000
  C   C422      1.0  0.13824  0.24484  0.85733  1.0000
  N   N26       1.0  0.44789  0.33828  0.66961  1.0000
  C   C423      1.0  0.13750  0.38555  0.88753  1.0000
  H   H755      1.0  0.37693  0.34015  0.76816  1.0000
  H   H756      1.0  0.13123  0.24329  0.82654  1.0000
  C   C424      1.0  0.47155  0.31900  0.82793  1.0000
  Fe  Fe40      1.0  0.09499  0.36946  0.82684  1.0000
  H   H757      1.0  0.30631  0.38930  0.68252  1.0000
  C   C425      1.0  0.37118  0.35046  0.73765  1.0000
  C   C426      1.0  0.02408  0.23148  0.88874  1.0000
  H   H758      1.0  0.04253  0.22172  0.54252  1.0000
  H   H759      1.0  0.14183  0.21079  0.60247  1.0000
  H   H760      1.0  0.18474  0.38197  0.78544  1.0000
  H   H761      1.0  0.09443  0.31667  0.56042  1.0000
  H   H762      1.0  0.36480  0.19907  0.70210  1.0000
  C   C427      1.0  0.30005  0.33701  0.94967  1.0000
  S   S90       1.0  0.39482  0.31993  0.85076  1.0000
  H   H763      1.0  0.37199  0.24041  0.55412  1.0000
  H   H764      1.0  0.44613  0.27795  0.88912  1.0000
  Fe  Fe41      1.0  0.29754  0.27378  0.86877  1.0000
  H   H765      1.0  0.21664  0.25043  0.76760  1.0000
  H   H766      1.0  0.48345  0.39575  0.59927  1.0000
  C   C428      1.0  0.39560  0.21876  0.81757  1.0000
  H   H767      1.0  0.33660  0.34991  0.89697  1.0000
  H   H768      1.0  0.45197  0.31810  0.73964  1.0000
  H   H769      1.0  0.46177  0.29680  0.68575  1.0000
  C   C429      1.0  0.47664  0.31557  0.68323  1.0000
  H   H770      1.0  0.20674  0.27967  0.60186  1.0000
  H   H771      1.0  0.35280  0.33535  0.73821  1.0000
  H   H772      1.0  0.12238  0.43488  0.77476  1.0000
  C   C430      1.0  0.14587  0.36784  0.62642  1.0000
  H   H773      1.0  0.03060  0.20953  0.50140  1.0000
  H   H774      1.0  0.10616  0.40985  0.94158  1.0000
  H   H775      1.0  0.48888  0.38399  0.83780  1.0000
  C   C431      1.0  0.25089  0.27628  0.93649  1.0000
  H   H776      1.0  0.45903  0.37921  0.91210  1.0000
  H   H777      1.0  0.41130  0.20874  0.76404  1.0000
  H   H778      1.0  0.20536  0.19517  0.84652  1.0000
  H   H779      1.0  0.45040  0.35911  0.59284  1.0000
  H   H780      1.0  0.23656  0.42907  0.65606  1.0000
  H   H781      1.0  0.36241  0.38225  0.71234  1.0000
  C   C432      1.0  0.48833  0.38124  0.59351  1.0000
  S   S91       1.0  0.48262  0.27351  0.54432  1.0000
  S   S92       1.0  0.42174  0.23116  0.65962  1.0000
  Fe  Fe42      1.0  0.35129  0.29040  0.88010  1.0000
  C   C433      1.0  0.25588  0.40432  0.61442  1.0000
  H   H782      1.0  0.24497  0.23110  0.74896  1.0000
  H   H783      1.0  0.46524  0.35481  0.51185  1.0000
  H   H784      1.0  0.09999  0.19429  0.52329  1.0000
  C   C434      1.0  0.14910  0.30991  0.75410  1.0000
  C   C435      1.0  0.46574  0.19662  0.96910  1.0000
  H   H785      1.0  0.29598  0.22081  0.82161  1.0000
  H   H786      1.0  0.38467  0.24753  0.91909  1.0000
  C   C436      1.0  0.45569  0.37263  0.70440  1.0000
  S   S93       1.0  0.07598  0.21327  0.76706  1.0000
  H   H787      1.0  0.43352  0.22366  0.79023  1.0000
  C   C437      1.0  0.13028  0.27862  0.72279  1.0000
  H   H788      1.0  0.40608  0.23424  0.91377  1.0000
  H   H789      1.0  0.05606  0.43423  0.48687  1.0000
  H   H790      1.0  0.14428  0.26521  0.95326  1.0000
  Fe  Fe43      1.0  0.11432  0.33930  0.78623  1.0000
  H   H791      1.0  0.44104  0.28369  0.83038  1.0000
  C   C438      1.0  0.07332  0.24894  0.86182  1.0000
  C   C439      1.0  0.14545  0.29986  0.95956  1.0000
  C   C440      1.0  0.38005  0.28689  0.67615  1.0000
  C   C441      1.0  0.24350  0.30806  0.87455  1.0000
  H   H792      1.0  0.38723  0.27619  0.66068  1.0000
  H   H793      1.0  0.01730  0.25273  0.79869  1.0000
  H   H794      1.0  0.07229  0.24068  0.90158  1.0000
  C   C442      1.0  0.38888  0.23160  0.94017  1.0000
  C   C443      1.0  0.41715  0.35255  0.49794  1.0000
  H   H795      1.0  0.36681  0.20330  0.49586  1.0000
  H   H796      1.0  0.28461  0.34251  0.95402  1.0000
  C   C444      1.0  0.38343  0.34875  0.89123  1.0000
  H   H797      1.0  0.50673  0.32562  0.71618  1.0000
  H   H798      1.0  0.33319  0.37673  0.90074  1.0000
  H   H799      1.0  0.19288  0.20021  0.69474  1.0000
  H   H800      1.0  0.06052  0.40324  0.58799  1.0000
  H   H801      1.0  0.39430  0.32462  0.67648  1.0000
  H   H802      1.0  0.20750  0.22018  0.98119  1.0000
  H   H803      1.0  0.03952  0.38490  0.67160  1.0000
  Fe  Fe44      1.0  0.25224  0.39858  0.86784  1.0000
  C   C445      1.0  0.19789  0.39422  0.70542  1.0000
  C   C446      1.0  0.40271  0.31473  0.66100  1.0000
  H   H804      1.0  0.46134  0.33780  0.86696  1.0000
  H   H805      1.0  0.17389  0.28521  0.96072  1.0000
  C   C447      1.0  0.40279  0.34772  0.86099  1.0000
  H   H806      1.0  0.40504  0.23372  0.49764  1.0000
  H   H807      1.0  0.31731  0.23538  0.63619  1.0000
  C   C448      1.0  0.47199  0.20350  0.91793  1.0000
  C   C449      1.0  0.23970  0.28071  0.97398  1.0000
  H   H808      1.0  0.37450  0.20472  0.82869  1.0000
  C   C450      1.0  0.13825  0.40488  0.95700  1.0000
  H   H809      1.0  0.50984  0.31137  0.86390  1.0000
  C   C451      1.0  0.15909  0.28589  0.94336  1.0000
  H   H810      1.0  0.40955  0.25574  0.97092  1.0000
  C   C452      1.0  0.23116  0.29947  0.96159  1.0000
  C   C453      1.0  0.31423  0.19629  0.83463  1.0000
  C   C454      1.0  0.02092  0.36590  0.58183  1.0000
  S   S94       1.0  0.47189  0.26505  0.96669  1.0000
  C   C455      1.0  0.46027  0.22054  0.48511  1.0000
  H   H811      1.0  0.01523  0.23036  0.74562  1.0000
  H   H812      1.0  0.03827  0.38215  0.96472  1.0000
  C   C456      1.0  0.40008  0.19652  0.68756  1.0000
  H   H813      1.0  0.30338  0.43614  0.87944  1.0000
  H   H814      1.0  0.35203  0.41818  0.97273  1.0000
  H   H815      1.0  0.34297  0.43110  0.77359  1.0000
  H   H816      1.0  0.03362  0.29933  0.96520  1.0000
  H   H817      1.0  0.50779  0.38041  0.52755  1.0000
  S   S95       1.0  0.29341  0.43066  0.97876  1.0000
  H   H818      1.0  0.20984  0.43418  0.65119  1.0000
  S   S96       1.0  0.17801  0.39835  0.97819  1.0000
  H   H819      1.0  0.16046  0.43159  0.78706  1.0000
  H   H820      1.0  0.10343  0.43609  0.51638  1.0000
  H   H821      1.0  0.44712  0.43522  0.98006  1.0000
  S   S97       1.0  0.09646  0.19180  0.69337  1.0000
  C   C457      1.0  0.29223  0.43937  0.68829  1.0000
  H   H822      1.0  0.03592  0.42736  0.98197  1.0000
  C   C458      1.0  0.43690  0.20241  0.48487  1.0000
  H   H823      1.0  0.07787  0.42121  0.98211  1.0000
  H   H824      1.0  0.44770  0.21730  0.37134  1.0000
  N   N27       1.0  0.10769  0.31264  0.42384  1.0000
  H   H825      1.0  0.16480  0.34300  0.37977  1.0000
  H   H826      1.0  0.17280  0.37585  0.29192  1.0000
  C   C459      1.0  0.07394  0.40696  0.08661  1.0000
  S   S98       1.0  0.16864  0.21378  0.35574  1.0000
  H   H827      1.0  0.45851  0.33348  0.31938  1.0000
  H   H828      1.0  0.15528  0.31196  0.16564  1.0000
  H   H829      1.0  0.25859  0.29591  0.40160  1.0000
  C   C460      1.0  0.13560  0.35256  0.14239  1.0000
  N   N28       1.0  0.06250  0.42038  0.05240  1.0000
  C   C461      1.0  0.30485  0.22454  0.36204  1.0000
  H   H830      1.0  0.05799  0.25686  0.99597  1.0000
  H   H831      1.0  0.15832  0.28184  0.43201  1.0000
  C   C462      1.0  0.01507  0.29820  0.03456  1.0000
  C   C463      1.0  0.23761  0.24311  0.34135  1.0000
  Fe  Fe45      1.0  0.48287  0.27980  0.11433  1.0000
  C   C464      1.0  0.32571  0.19363  0.46718  1.0000
  C   C465      1.0  0.29598  0.38610  0.41984  1.0000
  H   H832      1.0  0.07295  0.31009  0.22746  1.0000
  H   H833      1.0  0.14322  0.30474  0.36502  1.0000
  H   H834      1.0  0.46636  0.32305  0.21345  1.0000
  C   C466      1.0  0.12718  0.36652  0.20478  1.0000
  H   H835      1.0  0.43559  0.35096  0.07604  1.0000
  H   H836      1.0  0.49844  0.42882  0.06004  1.0000
  C   C467      1.0  0.41257  0.36282  0.41678  1.0000
  C   C468      1.0  0.32662  0.37850  0.35345  1.0000
  H   H837      1.0  0.42779  0.27513  0.01266  1.0000
  H   H838      1.0  0.40985  0.19248  0.20541  1.0000
  H   H839      1.0  0.14990  0.19221  0.09212  1.0000
  C   C469      1.0  0.09443  0.32816  0.01056  1.0000
  Fe  Fe46      1.0  0.01877  0.21815  0.27375  1.0000
  H   H840      1.0  0.40312  0.35669  0.39293  1.0000
  H   H841      1.0  0.19071  0.42272  0.15168  1.0000
  H   H842      1.0  0.25703  0.25989  0.33303  1.0000
  H   H843      1.0  0.45006  0.24103  0.28556  1.0000
  H   H844      1.0  0.38206  0.23506  0.37503  1.0000
  C   C470      1.0  0.12676  0.33852  0.37536  1.0000
  H   H845      1.0  0.30407  0.25785  0.23512  1.0000
  N   N29       1.0  0.41351  0.23459  0.32957  1.0000
  H   H846      1.0  0.50580  0.29500  0.38063  1.0000
  C   C471      1.0  0.21902  0.39190  0.18191  1.0000
  H   H847      1.0  0.05867  0.38573  0.11395  1.0000
  S   S99       1.0  0.07414  0.36267  0.34049  1.0000
  N   N30       1.0  0.25040  0.24726  0.25207  1.0000
  H   H848      1.0  0.21307  0.28897  0.18890  1.0000
  C   C472      1.0  0.40512  0.34408  0.46722  1.0000
  H   H849      1.0  0.04272  0.40899  0.15643  1.0000
  H   H850      1.0  0.13527  0.30328  0.45274  1.0000
  C   C473      1.0  0.46977  0.19172  0.30780  1.0000
  Fe  Fe47      1.0  0.06033  0.22723  0.32126  1.0000
  H   H851      1.0  0.14519  0.28238  0.22393  1.0000
  H   H852      1.0  0.28326  0.32830  0.39001  1.0000
  H   H853      1.0  0.31696  0.22301  0.17241  1.0000
  H   H854      1.0  0.02007  0.24374  0.10330  1.0000
  H   H855      1.0  0.17999  0.28970  0.10756  1.0000
  C   C474      1.0  0.03644  0.40837  0.99544  1.0000
  H   H856      1.0  0.33749  0.29212  0.24713  1.0000
  C   C475      1.0  0.40108  0.20431  0.35461  1.0000
  H   H857      1.0  0.35970  0.23432  0.01260  1.0000
  H   H858      1.0  0.15840  0.25530  0.12233  1.0000
  H   H859      1.0  0.50319  0.19612  0.04596  1.0000
  H   H860      1.0  0.25535  0.28967  0.16155  1.0000
  H   H861      1.0  0.24075  0.33655  0.16894  1.0000
  C   C476      1.0  0.33038  0.23856  0.32649  1.0000
  H   H862      1.0  0.12763  0.25081  0.45539  1.0000
  H   H863      1.0  0.22839  0.33740  0.32353  1.0000
  C   C477      1.0  0.21504  0.27689  0.17093  1.0000
  H   H864      1.0  0.14516  0.30087  0.09840  1.0000
  H   H865      1.0  0.16373  0.38764  0.14232  1.0000
  H   H866      1.0  0.09173  0.37030  0.12379  1.0000
  H   H867      1.0  0.13705  0.30732  0.22500  1.0000
  H   H868      1.0  0.26641  0.24565  0.18507  1.0000
  C   C478      1.0  0.13882  0.20698  0.25969  1.0000
  H   H869      1.0  0.12510  0.39248  0.07940  1.0000
  H   H870      1.0  0.49095  0.33198  0.26828  1.0000
  H   H871      1.0  0.49227  0.25492  0.30110  1.0000
  H   H872      1.0  0.15294  0.22433  0.26229  1.0000
  C   C479      1.0  0.15223  0.28896  0.04072  1.0000
  C   C480      1.0  0.45334  0.35164  0.08387  1.0000
  H   H873      1.0  0.11952  0.26076  0.31231  1.0000
  S   S100      1.0  0.21902  0.30633  0.00816  1.0000
  H   H874      1.0  0.48580  0.36698  0.27940  1.0000
  H   H875      1.0  0.24013  0.21507  0.40659  1.0000
  H   H876      1.0  0.07067  0.20721  0.10649  1.0000
  H   H877      1.0  0.20223  0.38736  0.21270  1.0000
  Fe  Fe48      1.0  0.46989  0.22195  0.14523  1.0000
  C   C481      1.0  0.49086  0.33257  0.37801  1.0000
  H   H878      1.0  0.19173  0.39177  0.32242  1.0000
  Fe  Fe49      1.0  0.04500  0.36404  0.30360  1.0000
  H   H879      1.0  0.19880  0.22647  0.05112  1.0000
  C   C482      1.0  0.05915  0.40964  0.01524  1.0000
  H   H880      1.0  0.03620  0.30663  0.10760  1.0000
  C   C483      1.0  0.44805  0.36387  0.28933  1.0000
  H   H881      1.0  0.26540  0.37398  0.05428  1.0000
  S   S101      1.0  0.27550  0.38898  0.46275  1.0000
  C   C484      1.0  0.28443  0.20445  0.35839  1.0000
  C   C485      1.0  0.02205  0.27861  0.18623  1.0000
  C   C486      1.0  0.38605  0.25814  0.05832  1.0000
  Fe  Fe50      1.0  0.07734  0.42520  0.23703  1.0000
  H   H882      1.0  0.11290  0.29986  0.06227  1.0000
  H   H883      1.0  0.17512  0.35279  0.20539  1.0000
  C   C487      1.0  0.33550  0.23219  0.28804  1.0000
  S   S102      1.0  0.32493  0.31352  0.45033  1.0000
  H   H884      1.0  0.47105  0.31451  0.40260  1.0000
  C   C488      1.0  0.16017  0.20354  0.11040  1.0000
  H   H885      1.0  0.15992  0.40703  0.38405  1.0000
  C   C489      1.0  0.31526  0.21182  0.28495  1.0000
  H   H886      1.0  0.08034  0.31443  0.05014  1.0000
  H   H887      1.0  0.44536  0.32968  0.46587  1.0000
  C   C490      1.0  0.41725  0.27233  0.35195  1.0000
  H   H888      1.0  0.08016  0.41695  0.10968  1.0000
  H   H889      1.0  0.23599  0.20163  0.02046  1.0000
  H   H890      1.0  0.22333  0.33898  0.12557  1.0000
  S   S103      1.0  0.13833  0.38825  0.23011  1.0000
  H   H891      1.0  0.22018  0.28864  0.12956  1.0000
  H   H892      1.0  0.27251  0.28614  0.24783  1.0000
  H   H893      1.0  0.46709  0.37617  0.35330  1.0000
  S   S104      1.0  0.49847  0.25450  0.15576  1.0000
  C   C491      1.0  0.49792  0.32671  0.24137  1.0000
  H   H894      1.0  0.09300  0.25804  0.07073  1.0000
  H   H895      1.0  0.16293  0.39403  0.31732  1.0000
  C   C492      1.0  0.22685  0.22310  0.39766  1.0000
  H   H896      1.0  0.26465  0.32636  0.34932  1.0000
  C   C493      1.0  0.11014  0.33027  0.16707  1.0000
  H   H897      1.0  0.15934  0.25614  0.29763  1.0000
  H   H898      1.0  0.33033  0.30807  0.19308  1.0000
  C   C494      1.0  0.17793  0.31829  0.21353  1.0000
  Fe  Fe51      1.0  0.35631  0.30245  0.44699  1.0000
  C   C495      1.0  0.14416  0.37051  0.16158  1.0000
  H   H899      1.0  0.19639  0.32792  0.36204  1.0000
  S   S105      1.0  0.10040  0.30667  0.14557  1.0000
  H   H900      1.0  0.17776  0.24065  0.03935  1.0000
  S   S106      1.0  0.22205  0.38355  0.40042  1.0000
  S   S107      1.0  0.03187  0.19091  0.31869  1.0000
  N   N31       1.0  0.49074  0.35786  0.37204  1.0000
  H   H901      1.0  0.18979  0.35570  0.14689  1.0000
  H   H902      1.0  0.17331  0.31030  0.25483  1.0000
  H   H903      1.0  0.21203  0.36784  0.28141  1.0000
  C   C496      1.0  0.44294  0.24697  0.31267  1.0000
  H   H904      1.0  0.14878  0.35575  0.10884  1.0000
  H   H905      1.0  0.18402  0.34001  0.28585  1.0000
  C   C497      1.0  0.10669  0.31412  0.99225  1.0000
  H   H906      1.0  0.39124  0.39520  0.47159  1.0000
  H   H907      1.0  0.06847  0.30580  0.42827  1.0000
  H   H908      1.0  0.39066  0.41838  0.38509  1.0000
  H   H909      1.0  0.09882  0.25964  0.01079  1.0000
  H   H910      1.0  0.02674  0.42281  0.06287  1.0000
  C   C498      1.0  0.46478  0.33370  0.46853  1.0000
  C   C499      1.0  0.34919  0.21247  0.11599  1.0000
  S   S108      1.0  0.35614  0.26459  0.32830  1.0000
  H   H911      1.0  0.09506  0.29474  0.35052  1.0000
  H   H912      1.0  0.23691  0.40282  0.18853  1.0000
  H   H913      1.0  0.46678  0.31593  0.47443  1.0000
  N   N32       1.0  0.21687  0.36619  0.18470  1.0000
  H   H914      1.0  0.42180  0.42297  0.46167  1.0000
  H   H915      1.0  0.31932  0.20724  0.25479  1.0000
  C   C500      1.0  0.26519  0.36081  0.09093  1.0000
  H   H916      1.0  0.35497  0.24370  0.25958  1.0000
  C   C501      1.0  0.08690  0.21038  0.07663  1.0000
  C   C502      1.0  0.25338  0.19086  0.07548  1.0000
  Fe  Fe52      1.0  0.10458  0.39217  0.26271  1.0000
  C   C503      1.0  0.48351  0.25524  0.33557  1.0000
  C   C504      1.0  0.11211  0.23641  0.06078  1.0000
  C   C505      1.0  0.20744  0.32940  0.32717  1.0000
  N   N33       1.0  0.37520  0.22857  0.07253  1.0000
  H   H917      1.0  0.44612  0.24230  0.38643  1.0000
  S   S109      1.0  0.49787  0.23430  0.07095  1.0000
  H   H918      1.0  0.11484  0.42697  0.03497  1.0000
  H   H919      1.0  0.21609  0.21169  0.22304  1.0000
  C   C506      1.0  0.23839  0.19452  0.20407  1.0000
  H   H920      1.0  0.38508  0.23790  0.29609  1.0000
  H   H921      1.0  0.41226  0.30721  0.05550  1.0000
  H   H922      1.0  0.37697  0.26022  0.09036  1.0000
  H   H923      1.0  0.30077  0.22939  0.39187  1.0000
  S   S110      1.0  0.32941  0.26112  0.45936  1.0000
  S   S111      1.0  0.04760  0.23213  0.19870  1.0000
  H   H924      1.0  0.08769  0.34259  0.25966  1.0000
  C   C507      1.0  0.45358  0.23889  0.35544  1.0000
  C   C508      1.0  0.12197  0.40415  0.39778  1.0000
  C   C509      1.0  0.23828  0.37382  0.13844  1.0000
  C   C510      1.0  0.09766  0.22472  0.38428  1.0000
  H   H925      1.0  0.44754  0.33927  0.12527  1.0000
  H   H926      1.0  0.44853  0.34053  0.38893  1.0000
  S   S112      1.0  0.04462  0.25305  0.28260  1.0000
  H   H927      1.0  0.08396  0.33448  0.98606  1.0000
  C   C511      1.0  0.02909  0.33446  0.18253  1.0000
  H   H928      1.0  0.41621  0.26743  0.26522  1.0000
  Fe  Fe53      1.0  0.34253  0.28091  0.37468  1.0000
  H   H929      1.0  0.26461  0.19373  0.38555  1.0000
  C   C512      1.0  0.37045  0.22425  0.02871  1.0000
  C   C513      1.0  0.46745  0.35751  0.35822  1.0000
  H   H930      1.0  0.31723  0.30684  0.25235  1.0000
  C   C514      1.0  0.48405  0.32171  0.21017  1.0000
  C   C515      1.0  0.49955  0.38265  0.07500  1.0000
  H   H931      1.0  0.31767  0.20857  0.08599  1.0000
  H   H932      1.0  0.28463  0.28453  0.19309  1.0000
  H   H933      1.0  0.08101  0.21096  0.04376  1.0000
  H   H934      1.0  0.29315  0.21830  0.14274  1.0000
  C   C516      1.0  0.10127  0.34512  0.22767  1.0000
  C   C517      1.0  0.18390  0.23013  0.06887  1.0000
  C   C518      1.0  0.32214  0.29564  0.23491  1.0000
  Fe  Fe54      1.0  0.33849  0.32994  0.36644  1.0000
  H   H935      1.0  0.04661  0.26300  0.39165  1.0000
  H   H936      1.0  0.51103  0.39858  0.30813  1.0000
  H   H937      1.0  0.47829  0.39264  0.02503  1.0000
  H   H938      1.0  0.41293  0.23041  0.06033  1.0000
  H   H939      1.0  0.11829  0.35207  0.36599  1.0000
  H   H940      1.0  0.14166  0.32772  0.01042  1.0000
  H   H941      1.0  0.26863  0.22490  0.24003  1.0000
  H   H942      1.0  0.19300  0.24348  0.08476  1.0000
  H   H943      1.0  0.40278  0.19661  0.39232  1.0000
  H   H944      1.0  0.49093  0.24699  0.36496  1.0000
  H   H945      1.0  0.04269  0.27519  0.04837  1.0000
  H   H946      1.0  0.12806  0.23793  0.03351  1.0000
  C   C519      1.0  0.40026  0.41466  0.47219  1.0000
  H   H947      1.0  0.15075  0.26685  0.39224  1.0000
  C   C520      1.0  0.09827  0.20351  0.42121  1.0000
  H   H948      1.0  0.09023  0.19307  0.09227  1.0000
  C   C521      1.0  0.23080  0.20678  0.23489  1.0000
  H   H949      1.0  0.04220  0.22697  0.05762  1.0000
  H   H950      1.0  0.01559  0.25725  0.21057  1.0000
  H   H951      1.0  0.01586  0.25514  0.99907  1.0000
  H   H952      1.0  0.42152  0.26920  0.07684  1.0000
  H   H953      1.0  0.41843  0.19075  0.12581  1.0000
  C   C522      1.0  0.43296  0.38952  0.39651  1.0000
  C   C523      1.0  0.03590  0.42000  0.12925  1.0000
  C   C524      1.0  0.46624  0.35488  0.31002  1.0000
  H   H954      1.0  0.40745  0.26782  0.42768  1.0000
  H   H955      1.0  0.10979  0.34629  0.00929  1.0000
  C   C525      1.0  0.02868  0.33146  0.23047  1.0000
  C   C526      1.0  0.22192  0.35254  0.23129  1.0000
  H   H956      1.0  0.19586  0.25816  0.18656  1.0000
  H   H957      1.0  0.39622  0.22221  0.12253  1.0000
  H   H958      1.0  0.43577  0.25108  0.22052  1.0000
  H   H959      1.0  0.04420  0.32989  0.24287  1.0000
  H   H960      1.0  0.12191  0.26661  0.11782  1.0000
  H   H961      1.0  0.25778  0.38820  0.13616  1.0000
  H   H962      1.0  0.19930  0.30892  0.33086  1.0000
  C   C527      1.0  0.11990  0.24407  0.34024  1.0000
  H   H963      1.0  0.05559  0.28864  0.32839  1.0000
  H   H964      1.0  0.48981  0.27635  0.32645  1.0000
  H   H965      1.0  0.21049  0.23684  0.25600  1.0000
  C   C528      1.0  0.03609  0.41314  0.08540  1.0000
  S   S113      1.0  0.07354  0.39993  0.41668  1.0000
  C   C529      1.0  0.08227  0.30125  0.36561  1.0000
  C   C530      1.0  0.41605  0.27593  0.04342  1.0000
  C   C531      1.0  0.08169  0.29827  0.41850  1.0000
  Fe  Fe55      1.0  0.24181  0.42161  0.32587  1.0000
  C   C532      1.0  0.23647  0.27030  0.18046  1.0000
  H   H966      1.0  0.46521  0.38828  0.08707  1.0000
  H   H967      1.0  0.27929  0.39570  0.36285  1.0000
  H   H968      1.0  0.12762  0.21366  0.23756  1.0000
  S   S114      1.0  0.07518  0.39089  0.22519  1.0000
  S   S115      1.0  0.21807  0.43868  0.34925  1.0000
  H   H969      1.0  0.21919  0.33267  0.23751  1.0000
  C   C533      1.0  0.26362  0.31718  0.38894  1.0000
  C   C534      1.0  0.22049  0.41235  0.13152  1.0000
  H   H970      1.0  0.09356  0.39557  0.03828  1.0000
  S   S116      1.0  0.47262  0.43035  0.40202  1.0000
  Fe  Fe56      1.0  0.07446  0.26501  0.21075  1.0000
  H   H971      1.0  0.11201  0.27377  0.39508  1.0000
  H   H972      1.0  0.04123  0.29114  0.38130  1.0000
  N   N34       1.0  0.13242  0.28882  0.01563  1.0000
  H   H973      1.0  0.41198  0.19825  0.33313  1.0000
  C   C535      1.0  0.42388  0.30538  0.02613  1.0000
  H   H974      1.0  0.44496  0.31698  0.02001  1.0000
  C   C536      1.0  0.30751  0.21221  0.15275  1.0000
  H   H975      1.0  0.20693  0.20606  0.40903  1.0000
  C   C537      1.0  0.10726  0.39176  0.09923  1.0000
  H   H976      1.0  0.22353  0.30489  0.42393  1.0000
  H   H977      1.0  0.05491  0.38842  0.03279  1.0000
  H   H978      1.0  0.40939  0.21698  0.25744  1.0000
  S   S117      1.0  0.23125  0.42219  0.45375  1.0000
  C   C538      1.0  0.14238  0.24155  0.33220  1.0000
  S   S118      1.0  0.10928  0.42874  0.26877  1.0000
  S   S119      1.0  0.37159  0.32131  0.36259  1.0000
  H   H979      1.0  0.39126  0.41835  0.31336  1.0000
  S   S120      1.0  0.45176  0.24587  0.11016  1.0000
  H   H980      1.0  0.24114  0.42447  0.10429  1.0000
  H   H981      1.0  0.49438  0.37178  0.11673  1.0000
  H   H982      1.0  0.23892  0.27056  0.01206  1.0000
  C   C539      1.0  0.15922  0.27314  0.12443  1.0000
  H   H983      1.0  0.42822  0.35248  0.31894  1.0000
  C   C540      1.0  0.44577  0.39765  0.42675  1.0000
  C   C541      1.0  0.40449  0.27719  0.39222  1.0000
  H   H984      1.0  0.37314  0.42692  0.45098  1.0000
  C   C542      1.0  0.14144  0.39956  0.41239  1.0000
  H   H985      1.0  0.33626  0.24147  0.07866  1.0000
  C   C543      1.0  0.40022  0.24344  0.20525  1.0000
  C   C544      1.0  0.20505  0.34830  0.28129  1.0000
  H   H986      1.0  0.23580  0.38481  0.10310  1.0000
  H   H987      1.0  0.09611  0.33544  0.45224  1.0000
  C   C545      1.0  0.02181  0.25864  0.06637  1.0000
  C   C546      1.0  0.11891  0.29433  0.44041  1.0000
  S   S121      1.0  0.34240  0.36949  0.31568  1.0000
  Fe  Fe57      1.0  0.29927  0.27411  0.45499  1.0000
  C   C547      1.0  0.32965  0.37506  0.39956  1.0000
  H   H988      1.0  0.04507  0.33543  0.15781  1.0000
  H   H989      1.0  0.49062  0.20540  0.35158  1.0000
  H   H990      1.0  0.24597  0.33904  0.40569  1.0000
  H   H991      1.0  0.03453  0.22487  0.00432  1.0000
  H   H992      1.0  0.11208  0.40132  0.12330  1.0000
  H   H993      1.0  0.40329  0.26417  0.19073  1.0000
  H   H994      1.0  0.07109  0.27630  0.44584  1.0000
  H   H995      1.0  0.37888  0.22837  0.22394  1.0000
  S   S122      1.0  0.47389  0.30587  0.14010  1.0000
  C   C548      1.0  0.12053  0.20080  0.41300  1.0000
  C   C549      1.0  0.50652  0.29946  0.41235  1.0000
  C   C550      1.0  0.43718  0.37932  0.47795  1.0000
  C   C551      1.0  0.48759  0.35938  0.42073  1.0000
  C   C552      1.0  0.02714  0.28453  0.13152  1.0000
  H   H996      1.0  0.20401  0.43790  0.04446  1.0000
  C   C553      1.0  0.39463  0.43483  0.43579  1.0000
  C   C554      1.0  0.21233  0.43174  0.13882  1.0000
  H   H997      1.0  0.23755  0.25820  0.16185  1.0000
  H   H998      1.0  0.40502  0.22225  0.99748  1.0000
  Fe  Fe58      1.0  0.06265  0.20737  0.24406  1.0000
  C   C555      1.0  0.10235  0.32005  0.46479  1.0000
  S   S123      1.0  0.15981  0.37724  0.48278  1.0000
  C   C556      1.0  0.29783  0.26860  0.25187  1.0000
  C   C557      1.0  0.31428  0.37878  0.43285  1.0000
  H   H999      1.0  0.33535  0.21548  0.44002  1.0000
  H   H1000     1.0  0.38061  0.26839  0.02693  1.0000
  H   H1001     1.0  0.24759  0.20925  0.16304  1.0000
  H   H1002     1.0  0.15119  0.26725  0.16490  1.0000
  H   H1003     1.0  0.35234  0.21461  0.14949  1.0000
  H   H1004     1.0  0.19137  0.31219  0.19967  1.0000
  Fe  Fe59      1.0  0.25368  0.40631  0.42265  1.0000
  C   C558      1.0  0.09291  0.32669  0.20942  1.0000
  H   H1005     1.0  0.17049  0.30912  0.01971  1.0000
  C   C559      1.0  0.24022  0.35038  0.13411  1.0000
  H   H1006     1.0  0.23918  0.43257  0.00873  1.0000
  H   H1007     1.0  0.13851  0.41212  0.98411  1.0000
  H   H1008     1.0  0.14697  0.20864  0.12883  1.0000
  H   H1009     1.0  0.12499  0.19069  0.29856  1.0000
  H   H1010     1.0  0.43871  0.40365  0.35751  1.0000
  H   H1011     1.0  0.36031  0.43221  0.36122  1.0000
  H   H1012     1.0  0.24291  0.36464  0.22600  1.0000
  C   C560      1.0  0.25543  0.23207  0.22650  1.0000
  Fe  Fe60      1.0  0.48180  0.26062  0.03617  1.0000
  C   C561      1.0  0.15393  0.19730  0.23403  1.0000
  C   C562      1.0  0.15231  0.30426  0.20640  1.0000
  H   H1013     1.0  0.49923  0.19662  0.45406  1.0000
  C   C563      1.0  0.12882  0.28673  0.40158  1.0000
  H   H1014     1.0  0.39557  0.42394  0.22802  1.0000
  C   C564      1.0  0.03941  0.23775  0.02261  1.0000
  H   H1015     1.0  0.11705  0.23419  0.09506  1.0000
  C   C565      1.0  0.30910  0.38689  0.33958  1.0000
  H   H1016     1.0  0.20477  0.32183  0.47570  1.0000
  H   H1017     1.0  0.03509  0.31103  0.03241  1.0000
  H   H1018     1.0  0.16865  0.21489  0.19723  1.0000
  C   C566      1.0  0.47412  0.38076  0.06577  1.0000
  C   C567      1.0  0.09809  0.39472  0.43454  1.0000
  C   C568      1.0  0.18984  0.34930  0.18607  1.0000
  H   H1019     1.0  0.44049  0.42543  0.04617  1.0000
  H   H1020     1.0  0.38310  0.26875  0.40000  1.0000
  H   H1021     1.0  0.12555  0.41521  0.35813  1.0000
  C   C569      1.0  0.41426  0.23824  0.24215  1.0000
  C   C570      1.0  0.28961  0.19832  0.31945  1.0000
  H   H1022     1.0  0.50551  0.36329  0.43014  1.0000
  Fe  Fe61      1.0  0.07613  0.39897  0.34383  1.0000
  Fe  Fe62      1.0  0.20093  0.40225  0.42582  1.0000
  H   H1023     1.0  0.48742  0.28446  0.44391  1.0000
  H   H1024     1.0  0.45284  0.26930  0.29086  1.0000
  C   C571      1.0  0.29357  0.39037  0.37301  1.0000
  H   H1025     1.0  0.14024  0.43113  0.14790  1.0000
  H   H1026     1.0  0.08961  0.32258  0.33847  1.0000
  S   S124      1.0  0.22264  0.37129  0.01269  1.0000
  H   H1027     1.0  0.47020  0.21128  0.29165  1.0000
  C   C572      1.0  0.14235  0.21940  0.36806  1.0000
  C   C573      1.0  0.01721  0.24352  0.03507  1.0000
  C   C574      1.0  0.17153  0.38067  0.32342  1.0000
  C   C575      1.0  0.05468  0.28491  0.36718  1.0000
  H   H1028     1.0  0.02244  0.39107  0.10291  1.0000
  H   H1029     1.0  0.28300  0.37238  0.09716  1.0000
  H   H1030     1.0  0.34381  0.36945  0.40963  1.0000
  H   H1031     1.0  0.26591  0.34358  0.08855  1.0000
  C   C576      1.0  0.49259  0.31412  0.17605  1.0000
  H   H1032     1.0  0.46255  0.21065  0.02349  1.0000
  H   H1033     1.0  0.41348  0.29914  0.37899  1.0000
  C   C577      1.0  0.09813  0.40636  0.06044  1.0000
  H   H1034     1.0  0.12050  0.32964  0.47212  1.0000
  C   C578      1.0  0.10827  0.26119  0.03885  1.0000
  C   C579      1.0  0.15469  0.35489  0.37429  1.0000
  S   S125      1.0  0.09215  0.24150  0.24985  1.0000
  H   H1035     1.0  0.43828  0.28024  0.34740  1.0000
  C   C580      1.0  0.23965  0.22934  0.30860  1.0000
  H   H1036     1.0  0.01720  0.39220  0.02622  1.0000
  H   H1037     1.0  0.21954  0.21220  0.32108  1.0000
  H   H1038     1.0  0.40401  0.23077  0.40474  1.0000
  H   H1039     1.0  0.40816  0.24137  0.17281  1.0000
  C   C581      1.0  0.39312  0.21869  0.09041  1.0000
  H   H1040     1.0  0.41608  0.28438  0.31600  1.0000
  C   C582      1.0  0.12411  0.30797  0.02182  1.0000
  S   S126      1.0  0.06849  0.22580  0.39111  1.0000
  H   H1041     1.0  0.20794  0.40216  0.11436  1.0000
  C   C583      1.0  0.24281  0.31824  0.42326  1.0000
  H   H1042     1.0  0.04046  0.29118  0.18954  1.0000
  C   C584      1.0  0.13664  0.38479  0.46356  1.0000
  H   H1043     1.0  0.46103  0.34284  0.06392  1.0000
  H   H1044     1.0  0.22544  0.23338  0.42018  1.0000
  S   S127      1.0  0.31050  0.29108  0.37105  1.0000
  S   S128      1.0  0.04451  0.39814  0.31266  1.0000
  H   H1045     1.0  0.44637  0.36019  0.25680  1.0000
  C   C585      1.0  0.32791  0.21972  0.10453  1.0000
  H   H1046     1.0  0.48487  0.37682  0.41641  1.0000
  H   H1047     1.0  0.04164  0.27857  0.12164  1.0000
  H   H1048     1.0  0.27475  0.21802  0.48335  1.0000
  S   S129      1.0  0.25495  0.42186  0.25269  1.0000
  H   H1049     1.0  0.37568  0.43626  0.28435  1.0000
  H   H1050     1.0  0.30659  0.38942  0.30408  1.0000
  C   C586      1.0  0.23053  0.25495  0.23803  1.0000
  C   C587      1.0  0.14218  0.27061  0.42172  1.0000
  H   H1051     1.0  0.12991  0.33470  0.34279  1.0000
  H   H1052     1.0  0.15871  0.27473  0.03882  1.0000
  H   H1053     1.0  0.35696  0.20258  0.04163  1.0000
  H   H1054     1.0  0.49453  0.33259  0.34124  1.0000
  C   C588      1.0  0.14293  0.28246  0.09684  1.0000
  C   C589      1.0  0.40649  0.24507  0.28410  1.0000
  H   H1055     1.0  0.22867  0.26797  0.25387  1.0000
  C   C590      1.0  0.27596  0.27266  0.23507  1.0000
  C   C591      1.0  0.40328  0.24187  0.36734  1.0000
  H   H1056     1.0  0.45613  0.38577  0.27603  1.0000
  H   H1057     1.0  0.29110  0.25691  0.29348  1.0000
  H   H1058     1.0  0.22425  0.25128  0.33470  1.0000
  H   H1059     1.0  0.09058  0.29542  0.99681  1.0000
  H   H1060     1.0  0.15408  0.36095  0.40398  1.0000
  H   H1061     1.0  0.17222  0.20366  0.99820  1.0000
  S   S130      1.0  0.27797  0.22417  0.05432  1.0000
  H   H1062     1.0  0.25145  0.21961  0.31954  1.0000
  H   H1063     1.0  0.18576  0.20016  0.15330  1.0000
  H   H1064     1.0  0.31632  0.37563  0.46887  1.0000
  H   H1065     1.0  0.21860  0.43662  0.16762  1.0000
  H   H1066     1.0  0.50456  0.37041  0.06095  1.0000
  C   C592      1.0  0.48188  0.19832  0.46230  1.0000
  C   C593      1.0  0.48284  0.21868  0.47314  1.0000
  H   H1067     1.0  0.10390  0.27482  0.47432  1.0000
  H   H1068     1.0  0.50359  0.41305  0.11649  1.0000
  H   H1069     1.0  0.36013  0.19635  0.37544  1.0000
  H   H1070     1.0  0.41857  0.19225  0.06545  1.0000
  C   C594      1.0  0.46669  0.21580  0.98417  1.0000
  C   C595      1.0  0.49119  0.19375  0.33154  1.0000
  H   H1071     1.0  0.40785  0.43651  0.01864  1.0000
  C   C596      1.0  0.39539  0.23427  0.98483  1.0000
  H   H1072     1.0  0.42083  0.31413  0.99021  1.0000
  H   H1073     1.0  0.25967  0.32964  0.47320  1.0000
  C   C597      1.0  0.39493  0.43775  0.28361  1.0000
  C   C598      1.0  0.40325  0.43835  0.38177  1.0000
  C   C599      1.0  0.24456  0.31061  0.47666  1.0000
  H   H1074     1.0  0.22134  0.19114  0.27536  1.0000
  H   H1075     1.0  0.37961  0.59650  0.60812  1.0000
  H   H1076     1.0  0.48540  0.57586  0.97252  1.0000
  C   C600      1.0  0.19808  0.64881  0.48968  1.0000
  H   H1077     1.0  0.47939  0.62552  0.57451  1.0000
  H   H1078     1.0  0.04618  0.58246  0.48981  1.0000
  H   H1079     1.0  0.20578  0.46755  0.81438  1.0000
  C   C601      1.0  0.33597  0.48142  0.91612  1.0000
  C   C602      1.0  0.02457  0.51052  0.69628  1.0000
  H   H1080     1.0  0.03833  0.62298  0.57189  1.0000
  H   H1081     1.0  0.19083  0.45161  0.88183  1.0000
  H   H1082     1.0  0.39960  0.52399  0.59222  1.0000
  C   C603      1.0  0.17359  0.62176  0.50404  1.0000
  H   H1083     1.0  0.34250  0.48134  0.66246  1.0000
  C   C604      1.0  0.42332  0.59794  0.97968  1.0000
  H   H1084     1.0  0.02267  0.67439  0.91472  1.0000
  C   C605      1.0  0.28357  0.47489  0.64408  1.0000
  C   C606      1.0  0.39158  0.46633  0.95599  1.0000
  H   H1085     1.0  0.15295  0.46474  0.48952  1.0000
  C   C607      1.0  0.19508  0.55104  0.72321  1.0000
  H   H1086     1.0  0.08846  0.47811  0.80830  1.0000
  H   H1087     1.0  0.03682  0.68186  0.59890  1.0000
  H   H1088     1.0  0.08953  0.45492  0.67407  1.0000
  H   H1089     1.0  0.08169  0.63904  0.69381  1.0000
  C   C608      1.0  0.35281  0.50064  0.82476  1.0000
  H   H1090     1.0  0.02284  0.66688  0.76368  1.0000
  H   H1091     1.0  0.24049  0.62734  0.52822  1.0000
  C   C609      1.0  0.11889  0.50022  0.82893  1.0000
  H   H1092     1.0  0.16936  0.52591  0.62468  1.0000
  S   S131      1.0  0.28987  0.50135  0.58678  1.0000
  H   H1093     1.0  0.12099  0.51568  0.72987  1.0000
  Fe  Fe63      1.0  0.12603  0.61190  0.65892  1.0000
  H   H1094     1.0  0.45459  0.59610  0.57565  1.0000
  C   C610      1.0  0.45313  0.53796  0.88578  1.0000
  Fe  Fe64      1.0  0.27155  0.57687  0.56040  1.0000
  H   H1095     1.0  0.43048  0.67269  0.86495  1.0000
  Fe  Fe65      1.0  0.40222  0.62080  0.74220  1.0000
  H   H1096     1.0  0.25264  0.50110  0.77179  1.0000
  C   C611      1.0  0.26809  0.55050  0.80078  1.0000
  H   H1097     1.0  0.34954  0.66498  0.67198  1.0000
  H   H1098     1.0  0.01228  0.58852  0.49899  1.0000
  N   N35       1.0  0.28280  0.51601  0.80151  1.0000
  Fe  Fe66      1.0  0.26727  0.52206  0.59383  1.0000
  Fe  Fe67      1.0  0.39392  0.56496  0.77090  1.0000
  C   C612      1.0  0.08412  0.57024  0.94203  1.0000
  N   N36       1.0  0.21730  0.64688  0.51555  1.0000
  C   C613      1.0  0.22971  0.46463  0.54868  1.0000
  H   H1099     1.0  0.22907  0.47108  0.57796  1.0000
  S   S132      1.0  0.37583  0.58089  0.81161  1.0000
  C   C614      1.0  0.30890  0.53108  0.85504  1.0000
  H   H1100     1.0  0.29470  0.66733  0.85223  1.0000
  H   H1101     1.0  0.30811  0.46416  0.60745  1.0000
  H   H1102     1.0  0.31204  0.67312  0.51874  1.0000
  C   C615      1.0  0.48107  0.55836  0.68947  1.0000
  C   C616      1.0  0.25763  0.49376  0.80581  1.0000
  H   H1103     1.0  0.30261  0.50447  0.93239  1.0000
  C   C617      1.0  0.08764  0.44301  0.71325  1.0000
  H   H1104     1.0  0.37164  0.48510  0.67591  1.0000
  H   H1105     1.0  0.04033  0.58122  0.92236  1.0000
  C   C618      1.0  0.28883  0.63065  0.56996  1.0000
  C   C619      1.0  0.10926  0.48349  0.80286  1.0000
  C   C620      1.0  0.06047  0.55008  0.93612  1.0000
  H   H1106     1.0  0.36167  0.55837  0.59078  1.0000
  C   C621      1.0  0.06466  0.54681  0.62553  1.0000
  H   H1107     1.0  0.13990  0.49832  0.53581  1.0000
  H   H1108     1.0  0.45307  0.62978  0.85183  1.0000
  H   H1109     1.0  0.07058  0.62309  0.51104  1.0000
  H   H1110     1.0  0.02621  0.61315  0.82074  1.0000
  H   H1111     1.0  0.46630  0.53718  0.71079  1.0000
  H   H1112     1.0  0.48608  0.54633  0.82692  1.0000
  H   H1113     1.0  0.31482  0.64926  0.68496  1.0000
  S   S133      1.0  0.30588  0.64834  0.98297  1.0000
  H   H1114     1.0  0.40481  0.46429  0.88658  1.0000
  C   C622      1.0  0.37546  0.44760  0.79558  1.0000
  H   H1115     1.0  0.15678  0.54114  0.65419  1.0000
  H   H1116     1.0  0.05275  0.60408  0.60346  1.0000
  C   C623      1.0  0.23223  0.66146  0.98244  1.0000
  H   H1117     1.0  0.37524  0.66269  0.61487  1.0000
  C   C624      1.0  0.36564  0.55711  0.49060  1.0000
  H   H1118     1.0  0.24835  0.64926  0.91096  1.0000
  C   C625      1.0  0.16796  0.46649  0.60211  1.0000
  H   H1119     1.0  0.50858  0.61137  0.94444  1.0000
  H   H1120     1.0  0.30649  0.68641  0.78593  1.0000
  H   H1121     1.0  0.17936  0.60878  0.49390  1.0000
  H   H1122     1.0  0.27374  0.58282  0.73105  1.0000
  C   C626      1.0  0.22520  0.62719  0.51143  1.0000
  H   H1123     1.0  0.13900  0.50439  0.82722  1.0000
  C   C627      1.0  0.08339  0.61468  0.82599  1.0000
  S   S134      1.0  0.08308  0.58284  0.68648  1.0000
  C   C628      1.0  0.08083  0.65779  0.68320  1.0000
  H   H1124     1.0  0.41513  0.52352  0.52260  1.0000
  H   H1125     1.0  0.32465  0.53134  0.76767  1.0000
  H   H1126     1.0  0.48684  0.59922  0.91376  1.0000
  H   H1127     1.0  0.31136  0.67825  0.72012  1.0000
  C   C629      1.0  0.26412  0.44870  0.73590  1.0000
  S   S135      1.0  0.40367  0.57961  0.91821  1.0000
  H   H1128     1.0  0.16510  0.44346  0.72106  1.0000
  S   S136      1.0  0.09382  0.67642  0.85208  1.0000
  H   H1129     1.0  0.17254  0.56550  0.56009  1.0000
  H   H1130     1.0  0.22181  0.61570  0.61212  1.0000
  H   H1131     1.0  0.22332  0.52626  0.90539  1.0000
  H   H1132     1.0  0.28148  0.54558  0.73760  1.0000
  H   H1133     1.0  0.11240  0.64180  0.84236  1.0000
  C   C630      1.0  0.24940  0.48972  0.49842  1.0000
  H   H1134     1.0  0.40030  0.58180  0.61161  1.0000
  H   H1135     1.0  0.08065  0.46759  0.74247  1.0000
  C   C631      1.0  0.37859  0.51783  0.60543  1.0000
  S   S137      1.0  0.12358  0.61281  0.73189  1.0000
  C   C632      1.0  0.11003  0.57320  0.91539  1.0000
  H   H1136     1.0  0.14713  0.51042  0.74068  1.0000
  H   H1137     1.0  0.34611  0.52601  0.69216  1.0000
  H   H1138     1.0  0.25179  0.44424  0.77175  1.0000
  C   C633      1.0  0.46811  0.61823  0.55251  1.0000
  C   C634      1.0  0.39330  0.59328  0.58562  1.0000
  H   H1139     1.0  0.41075  0.56925  0.54764  1.0000
  H   H1140     1.0  0.18640  0.47037  0.60708  1.0000
  H   H1141     1.0  0.45676  0.57082  0.72116  1.0000
  H   H1142     1.0  0.14534  0.65354  0.97169  1.0000
  C   C635      1.0  0.24162  0.67442  0.49036  1.0000
  C   C636      1.0  0.26731  0.46904  0.69033  1.0000
  H   H1143     1.0  0.18433  0.46859  0.49245  1.0000
  H   H1144     1.0  0.12328  0.68121  0.65886  1.0000
  C   C637      1.0  0.42965  0.51105  0.89605  1.0000
  C   C638      1.0  0.01166  0.44125  0.67680  1.0000
  C   C639      1.0  0.23805  0.44286  0.56220  1.0000
  H   H1145     1.0  0.17502  0.57337  0.70811  1.0000
  H   H1146     1.0  0.49039  0.58981  0.53143  1.0000
  C   C640      1.0  0.42732  0.60274  0.92982  1.0000
  C   C641      1.0  0.34607  0.63465  0.60213  1.0000
  C   C642      1.0  0.31717  0.45473  0.87676  1.0000
  C   C643      1.0  0.46334  0.64013  0.95038  1.0000
  C   C644      1.0  0.20428  0.63741  0.57072  1.0000
  H   H1147     1.0  0.33718  0.59131  0.91357  1.0000
  H   H1148     1.0  0.07821  0.65998  0.71789  1.0000
  H   H1149     1.0  0.27471  0.63785  0.79243  1.0000
  C   C645      1.0  0.20938  0.63276  0.65415  1.0000
  H   H1150     1.0  0.29327  0.61589  0.86414  1.0000
  S   S138      1.0  0.22401  0.49962  0.63744  1.0000
  C   C646      1.0  0.03292  0.56661  0.96317  1.0000
  C   C647      1.0  0.47253  0.55416  0.83113  1.0000
  H   H1151     1.0  0.09405  0.60442  0.82291  1.0000
  H   H1152     1.0  0.48416  0.57567  0.82096  1.0000
  C   C648      1.0  0.31735  0.45733  0.92022  1.0000
  H   H1153     1.0  0.33686  0.61684  0.68355  1.0000
  C   C649      1.0  0.05019  0.55709  0.60208  1.0000
  C   C650      1.0  0.33185  0.62263  0.86249  1.0000
  H   H1154     1.0  0.45576  0.49394  0.95196  1.0000
  H   H1155     1.0  0.19032  0.66104  0.49821  1.0000
  H   H1156     1.0  0.36523  0.47545  0.62834  1.0000
  S   S139      1.0  0.47441  0.50159  0.80052  1.0000
  H   H1157     1.0  0.40111  0.52578  0.94528  1.0000
  C   C651      1.0  0.10762  0.68166  0.64382  1.0000
  H   H1158     1.0  0.40245  0.63269  0.95021  1.0000
  S   S140      1.0  0.04674  0.58060  0.80505  1.0000
  H   H1159     1.0  0.33389  0.64416  0.60442  1.0000
  H   H1160     1.0  0.23517  0.46945  0.88788  1.0000
  Fe  Fe68      1.0  0.50566  0.50276  0.83325  1.0000
  H   H1161     1.0  0.07399  0.46343  0.95501  1.0000
  C   C652      1.0  0.16889  0.67820  0.58144  1.0000
  H   H1162     1.0  0.21531  0.65326  0.64907  1.0000
  H   H1163     1.0  0.22761  0.49506  0.85596  1.0000
  H   H1164     1.0  0.36260  0.67885  0.79368  1.0000
  H   H1165     1.0  0.32574  0.51628  0.65743  1.0000
  N   N37       1.0  0.38380  0.55074  0.51554  1.0000
  H   H1166     1.0  0.13707  0.45307  0.94834  1.0000
  C   C653      1.0  0.33483  0.47630  0.82920  1.0000
  S   S141      1.0  0.22838  0.55860  0.59954  1.0000
  H   H1167     1.0  0.33416  0.47423  0.79573  1.0000
  H   H1168     1.0  0.20847  0.44742  0.97961  1.0000
  C   C654      1.0  0.49882  0.59464  0.93616  1.0000
  H   H1169     1.0  0.09442  0.46205  0.50235  1.0000
  H   H1170     1.0  0.25755  0.48044  0.69106  1.0000
  C   C655      1.0  0.47570  0.57740  0.69552  1.0000
  Fe  Fe69      1.0  0.46257  0.45838  0.82454  1.0000
  H   H1171     1.0  0.33477  0.61674  0.83277  1.0000
  S   S142      1.0  0.14380  0.64962  0.58429  1.0000
  H   H1172     1.0  0.31451  0.59619  0.66362  1.0000
  H   H1173     1.0  0.02808  0.47265  0.81654  1.0000
  C   C656      1.0  0.32582  0.51337  0.69540  1.0000
  H   H1174     1.0  0.38309  0.64754  0.96185  1.0000
  H   H1175     1.0  0.21669  0.62326  0.68233  1.0000
  C   C657      1.0  0.31167  0.63259  0.86016  1.0000
  Fe  Fe70      1.0  0.23306  0.53040  0.66397  1.0000
  H   H1176     1.0  0.41075  0.59242  0.49266  1.0000
  C   C658      1.0  0.26474  0.61808  0.65561  1.0000
  H   H1177     1.0  0.18242  0.46668  0.74252  1.0000
  H   H1178     1.0  0.09084  0.44611  0.77930  1.0000
  H   H1179     1.0  0.33612  0.48352  0.94967  1.0000
  C   C659      1.0  0.03498  0.60865  0.69436  1.0000
  H   H1180     1.0  0.16524  0.47749  0.89055  1.0000
  H   H1181     1.0  0.14009  0.48481  0.90943  1.0000
  C   C660      1.0  0.40673  0.67640  0.75153  1.0000
  C   C661      1.0  0.15285  0.52962  0.63316  1.0000
  H   H1182     1.0  0.06433  0.67764  0.63528  1.0000
  N   N38       1.0  0.32038  0.65829  0.81291  1.0000
  C   C662      1.0  0.16571  0.48753  0.56849  1.0000
  H   H1183     1.0  0.26037  0.47682  0.80644  1.0000
  H   H1184     1.0  0.37485  0.63190  0.52089  1.0000
  C   C663      1.0  0.32241  0.59798  0.91340  1.0000
  C   C664      1.0  0.27249  0.64591  0.81867  1.0000
  C   C665      1.0  0.07979  0.64875  0.84227  1.0000
  H   H1185     1.0  0.32983  0.68787  0.86732  1.0000
  S   S143      1.0  0.15580  0.57356  0.80115  1.0000
  H   H1186     1.0  0.23562  0.49570  0.95459  1.0000
  H   H1187     1.0  0.13823  0.60709  0.48687  1.0000
  H   H1188     1.0  0.20328  0.52448  0.83428  1.0000
  H   H1189     1.0  0.24658  0.53992  0.93177  1.0000
  C   C666      1.0  0.18090  0.67570  0.61733  1.0000
  H   H1190     1.0  0.20578  0.55648  0.90752  1.0000
  S   S144      1.0  0.26591  0.55052  0.52410  1.0000
  H   H1191     1.0  0.20263  0.63047  0.97169  1.0000
  C   C667      1.0  0.27498  0.57958  0.76854  1.0000
  C   C668      1.0  0.19753  0.53556  0.80639  1.0000
  S   S145      1.0  0.27666  0.55015  0.62620  1.0000
  H   H1192     1.0  0.02526  0.46219  0.64561  1.0000
  H   H1193     1.0  0.41684  0.66643  0.51462  1.0000
  C   C669      1.0  0.49505  0.60466  0.66957  1.0000
  C   C670      1.0  0.06549  0.64203  0.60496  1.0000
  C   C671      1.0  0.29572  0.45982  0.64314  1.0000
  C   C672      1.0  0.22518  0.56057  0.91077  1.0000
  C   C673      1.0  0.15120  0.47482  0.92348  1.0000
  H   H1194     1.0  0.24305  0.50496  0.48991  1.0000
  H   H1195     1.0  0.11027  0.55418  0.93434  1.0000
  H   H1196     1.0  0.34749  0.51867  0.57902  1.0000
  H   H1197     1.0  0.34658  0.59957  0.65489  1.0000
  C   C674      1.0  0.22112  0.63449  0.60379  1.0000
  H   H1198     1.0  0.08216  0.65674  0.50206  1.0000
  H   H1199     1.0  0.14829  0.53645  0.56063  1.0000
  H   H1200     1.0  0.19178  0.66443  0.95566  1.0000
  Fe  Fe71      1.0  0.22293  0.52962  0.56955  1.0000
  H   H1201     1.0  0.31263  0.55189  0.83383  1.0000
  C   C675      1.0  0.50406  0.61197  0.51189  1.0000
  Fe  Fe72      1.0  0.08113  0.58128  0.76105  1.0000
  H   H1202     1.0  0.18762  0.62043  0.66994  1.0000
  H   H1203     1.0  0.31511  0.54306  0.69206  1.0000
  S   S146      1.0  0.08827  0.54675  0.78961  1.0000
  H   H1204     1.0  0.36498  0.50728  0.55032  1.0000
  S   S147      1.0  0.49149  0.45882  0.86291  1.0000
  H   H1205     1.0  0.24069  0.57527  0.87266  1.0000
  H   H1206     1.0  0.38646  0.64435  0.59477  1.0000
  H   H1207     1.0  0.21018  0.45729  0.54513  1.0000
  H   H1208     1.0  0.43444  0.55748  0.51235  1.0000
  C   C676      1.0  0.42477  0.54529  0.49509  1.0000
  S   S148      1.0  0.48998  0.62827  0.68160  1.0000
  H   H1209     1.0  0.28298  0.49027  0.87184  1.0000
  H   H1210     1.0  0.03028  0.50484  0.93087  1.0000
  C   C677      1.0  0.05738  0.65708  0.66591  1.0000
  H   H1211     1.0  0.43631  0.50492  0.86892  1.0000
  C   C678      1.0  0.22640  0.53458  0.93179  1.0000
  H   H1212     1.0  0.04235  0.65412  0.69785  1.0000
  H   H1213     1.0  0.34998  0.55629  0.51769  1.0000
  C   C679      1.0  0.34558  0.68126  0.80595  1.0000
  C   C680      1.0  0.28569  0.54338  0.77273  1.0000
  C   C681      1.0  0.35377  0.50318  0.86820  1.0000
  Fe  Fe73      1.0  0.09298  0.55017  0.71303  1.0000
  S   S149      1.0  0.48513  0.66364  0.96381  1.0000
  H   H1214     1.0  0.35465  0.66972  0.51356  1.0000
  H   H1215     1.0  0.01635  0.54109  0.91307  1.0000
  N   N39       1.0  0.03359  0.54138  0.96987  1.0000
  H   H1216     1.0  0.37028  0.46190  0.80150  1.0000
  H   H1217     1.0  0.31912  0.49178  0.71988  1.0000
  C   C682      1.0  0.27541  0.64522  0.64273  1.0000
  C   C683      1.0  0.30738  0.52127  0.71708  1.0000
  H   H1218     1.0  0.25060  0.60266  0.69326  1.0000
  C   C684      1.0  0.38685  0.65159  0.48606  1.0000
  H   H1219     1.0  0.34330  0.65214  0.76109  1.0000
  C   C685      1.0  0.14185  0.48211  0.56139  1.0000
  C   C686      1.0  0.29930  0.65779  0.55702  1.0000
  H   H1220     1.0  0.38439  0.44105  0.82332  1.0000
  H   H1221     1.0  0.19697  0.65069  0.57504  1.0000
  S   S150      1.0  0.26600  0.65404  0.68788  1.0000
  Fe  Fe74      1.0  0.13109  0.57816  0.75415  1.0000
  C   C687      1.0  0.33256  0.66817  0.67570  1.0000
  H   H1222     1.0  0.10194  0.45171  0.58222  1.0000
  H   H1223     1.0  0.24737  0.53753  0.80759  1.0000
  C   C688      1.0  0.17555  0.56129  0.78324  1.0000
  C   C689      1.0  0.39575  0.64690  0.93205  1.0000
  H   H1224     1.0  0.14328  0.46859  0.68371  1.0000
  H   H1225     1.0  0.26381  0.58978  0.63059  1.0000
  H   H1226     1.0  0.32003  0.60300  0.94456  1.0000
  C   C690      1.0  0.16363  0.44867  0.75207  1.0000
  S   S151      1.0  0.29719  0.62167  0.52420  1.0000
  C   C691      1.0  0.02288  0.54403  0.62573  1.0000
  H   H1227     1.0  0.23674  0.64453  0.80880  1.0000
  N   N40       1.0  0.04476  0.63610  0.65008  1.0000
  H   H1228     1.0  0.01490  0.49357  0.73385  1.0000
  C   C692      1.0  0.05923  0.60671  0.81957  1.0000
  H   H1229     1.0  0.35125  0.63842  0.85697  1.0000
  H   H1230     1.0  0.09592  0.63697  0.53385  1.0000
  N   N41       1.0  0.41766  0.48803  0.94931  1.0000
  N   N42       1.0  0.12263  0.48411  0.71606  1.0000
  H   H1231     1.0  0.48662  0.67449  0.62286  1.0000
  H   H1232     1.0  0.11311  0.57874  0.87505  1.0000
  H   H1233     1.0  0.30931  0.63395  0.77567  1.0000
  C   C693      1.0  0.23252  0.48017  0.85272  1.0000
  H   H1234     1.0  0.01853  0.60548  0.95091  1.0000
  C   C694      1.0  0.09402  0.49797  0.96356  1.0000
  H   H1235     1.0  0.32422  0.53972  0.91008  1.0000
  C   C695      1.0  0.33548  0.61035  0.65426  1.0000
  H   H1236     1.0  0.06294  0.53257  0.94135  1.0000
  H   H1237     1.0  0.25523  0.63164  0.96395  1.0000
  H   H1238     1.0  0.45266  0.68420  0.68271  1.0000
  H   H1239     1.0  0.01412  0.58354  0.66192  1.0000
  S   S152      1.0  0.19247  0.52062  0.53429  1.0000
  S   S153      1.0  0.13630  0.57912  0.67866  1.0000
  H   H1240     1.0  0.37668  0.52939  0.62473  1.0000
  H   H1241     1.0  0.49244  0.67876  0.69246  1.0000
  H   H1242     1.0  0.10962  0.46466  0.82271  1.0000
  S   S154      1.0  0.42599  0.57112  0.80179  1.0000
  N   N43       1.0  0.38950  0.67916  0.53367  1.0000
  H   H1243     1.0  0.29517  0.59387  0.76315  1.0000
  H   H1244     1.0  0.20836  0.60626  0.53450  1.0000
  H   H1245     1.0  0.21135  0.44167  0.85396  1.0000
  H   H1246     1.0  0.06263  0.55974  0.89570  1.0000
  H   H1247     1.0  0.04191  0.66828  0.55754  1.0000
  C   C696      1.0  0.05549  0.64073  0.83615  1.0000
  C   C697      1.0  0.43831  0.68700  0.91931  1.0000
  H   H1248     1.0  0.22941  0.61299  0.94701  1.0000
  Fe  Fe75      1.0  0.41035  0.59071  0.83658  1.0000
  C   C698      1.0  0.12040  0.45576  0.58746  1.0000
  C   C699      1.0  0.27179  0.61080  0.61959  1.0000
  H   H1249     1.0  0.11923  0.51959  0.81031  1.0000
  H   H1250     1.0  0.25704  0.45207  0.56737  1.0000
  C   C700      1.0  0.20291  0.53698  0.75879  1.0000
  H   H1251     1.0  0.23491  0.67666  0.94501  1.0000
  C   C701      1.0  0.36353  0.48808  0.64529  1.0000
  S   S155      1.0  0.41760  0.60407  0.69937  1.0000
  H   H1252     1.0  0.30437  0.49607  0.79250  1.0000
  H   H1253     1.0  0.39029  0.45844  0.75678  1.0000
  C   C702      1.0  0.50548  0.56670  0.65600  1.0000
  C   C703      1.0  0.30544  0.51579  0.77174  1.0000
  C   C704      1.0  0.40401  0.67330  0.49843  1.0000
  H   H1254     1.0  0.26087  0.58386  0.78709  1.0000
  H   H1255     1.0  0.26927  0.49867  0.50032  1.0000
  H   H1256     1.0  0.11018  0.50715  0.66377  1.0000
  H   H1257     1.0  0.33996  0.51668  0.50071  1.0000
  H   H1258     1.0  0.37170  0.58943  0.53655  1.0000
  H   H1259     1.0  0.43461  0.67045  0.95610  1.0000
  H   H1260     1.0  0.16321  0.49361  0.69725  1.0000
  H   H1261     1.0  0.41023  0.61325  0.55648  1.0000
  H   H1262     1.0  0.06021  0.57527  0.56597  1.0000
  H   H1263     1.0  0.17399  0.65610  0.64861  1.0000
  C   C705      1.0  0.37026  0.68655  0.51529  1.0000
  H   H1264     1.0  0.30649  0.55952  0.75939  1.0000
  H   H1265     1.0  0.41466  0.51575  0.88449  1.0000
  H   H1266     1.0  0.04472  0.65083  0.83996  1.0000
  H   H1267     1.0  0.33607  0.68449  0.63909  1.0000
  H   H1268     1.0  0.22823  0.56983  0.93570  1.0000
  H   H1269     1.0  0.02818  0.44268  0.53176  1.0000
  H   H1270     1.0  0.12668  0.58933  0.91677  1.0000
  H   H1271     1.0  0.26645  0.67548  0.76377  1.0000
  C   C706      1.0  0.37904  0.57761  0.56075  1.0000
  C   C707      1.0  0.18419  0.54804  0.81834  1.0000
  C   C708      1.0  0.14321  0.47588  0.71188  1.0000
  S   S156      1.0  0.21833  0.52006  0.74539  1.0000
  H   H1272     1.0  0.25257  0.66676  0.98154  1.0000
  H   H1273     1.0  0.08152  0.63935  0.61587  1.0000
  H   H1274     1.0  0.26702  0.50852  0.87778  1.0000
  C   C709      1.0  0.05181  0.52351  0.67268  1.0000
  H   H1275     1.0  0.10568  0.48900  0.86911  1.0000
  H   H1276     1.0  0.44550  0.55048  0.89324  1.0000
  H   H1277     1.0  0.45624  0.62821  0.54485  1.0000
  C   C710      1.0  0.14082  0.45400  0.76101  1.0000
  C   C711      1.0  0.32525  0.65372  0.76798  1.0000
  C   C712      1.0  0.09345  0.44544  0.49509  1.0000
  C   C713      1.0  0.05637  0.62453  0.57918  1.0000
  C   C714      1.0  0.16571  0.48736  0.95220  1.0000
  H   H1278     1.0  0.14141  0.46034  0.79041  1.0000
  H   H1279     1.0  0.34523  0.66780  0.88381  1.0000
  H   H1280     1.0  0.35704  0.44298  0.91135  1.0000
  H   H1281     1.0  0.27029  0.54840  0.83715  1.0000
  H   H1282     1.0  0.50836  0.57434  0.89925  1.0000
  H   H1283     1.0  0.19884  0.55204  0.68675  1.0000
  H   H1284     1.0  0.28810  0.50988  0.71534  1.0000
  C   C715      1.0  0.18121  0.56292  0.73560  1.0000
  H   H1285     1.0  0.24157  0.65162  0.58485  1.0000
  C   C716      1.0  0.39849  0.67616  0.71137  1.0000
  H   H1286     1.0  0.30343  0.58104  0.92015  1.0000
  Fe  Fe76      1.0  0.50313  0.51105  0.72949  1.0000
  S   S157      1.0  0.43582  0.63195  0.76929  1.0000
  H   H1287     1.0  0.38373  0.63900  0.91162  1.0000
  C   C717      1.0  0.37547  0.65541  0.58679  1.0000
  H   H1288     1.0  0.08586  0.55738  0.60784  1.0000
  S   S158      1.0  0.38654  0.64709  0.70485  1.0000
  C   C718      1.0  0.29318  0.66510  0.59362  1.0000
  C   C719      1.0  0.20878  0.45903  0.85032  1.0000
  H   H1289     1.0  0.18640  0.61723  0.58877  1.0000
  S   S159      1.0  0.07022  0.51367  0.70604  1.0000
  H   H1290     1.0  0.34273  0.62712  0.57481  1.0000
  C   C720      1.0  0.04499  0.61939  0.82546  1.0000
  C   C721      1.0  0.15282  0.54737  0.58268  1.0000
  C   C722      1.0  0.28413  0.51020  0.85316  1.0000
  H   H1291     1.0  0.16175  0.61050  0.54508  1.0000
  H   H1292     1.0  0.46456  0.53498  0.91029  1.0000
  H   H1293     1.0  0.41886  0.68303  0.60025  1.0000
  H   H1294     1.0  0.32644  0.53040  0.83879  1.0000
  H   H1295     1.0  0.19640  0.47866  0.93641  1.0000
  H   H1296     1.0  0.05114  0.60415  0.69491  1.0000
  H   H1297     1.0  0.13810  0.55371  0.58896  1.0000
  H   H1298     1.0  0.28931  0.52663  0.92743  1.0000
  C   C723      1.0  0.29925  0.66580  0.81715  1.0000
  H   H1299     1.0  0.40548  0.65849  0.77929  1.0000
  H   H1300     1.0  0.11197  0.68072  0.60813  1.0000
  H   H1301     1.0  0.12550  0.49257  0.63929  1.0000
  C   C724      1.0  0.39288  0.45048  0.92745  1.0000
  H   H1302     1.0  0.08909  0.50999  0.93363  1.0000
  C   C725      1.0  0.48672  0.62516  0.50247  1.0000
  C   C726      1.0  0.39750  0.57286  0.52813  1.0000
  C   C727      1.0  0.25642  0.65961  0.80409  1.0000
  H   H1303     1.0  0.02862  0.60850  0.73089  1.0000
  C   C728      1.0  0.09356  0.63551  0.83787  1.0000
  H   H1304     1.0  0.04635  0.57707  0.97906  1.0000
  H   H1305     1.0  0.25829  0.67324  0.50092  1.0000
  C   C729      1.0  0.07765  0.63616  0.52843  1.0000
  H   H1306     1.0  0.30225  0.68610  0.58373  1.0000
  Fe  Fe77      1.0  0.44889  0.61148  0.73236  1.0000
  C   C730      1.0  0.41941  0.67488  0.89452  1.0000
  C   C731      1.0  0.23940  0.63180  0.94933  1.0000
  C   C732      1.0  0.43672  0.47787  0.95661  1.0000
  C   C733      1.0  0.30595  0.52502  0.90959  1.0000
  C   C734      1.0  0.02174  0.63796  0.63818  1.0000
  S   S160      1.0  0.37265  0.52807  0.76448  1.0000
  S   S161      1.0  0.48885  0.46764  0.75090  1.0000
  C   C735      1.0  0.09498  0.46036  0.73989  1.0000
  C   C736      1.0  0.46770  0.64474  0.90058  1.0000
  H   H1307     1.0  0.17967  0.54664  0.85530  1.0000
  H   H1308     1.0  0.36771  0.52205  0.86486  1.0000
  H   H1309     1.0  0.08615  0.59052  0.92474  1.0000
  H   H1310     1.0  0.46232  0.55279  0.80426  1.0000
  H   H1311     1.0  0.37933  0.47519  0.94312  1.0000
  H   H1312     1.0  0.44205  0.47296  0.92628  1.0000
  C   C737      1.0  0.36782  0.52308  0.56171  1.0000
  H   H1313     1.0  0.25385  0.66907  0.82756  1.0000
  C   C738      1.0  0.02815  0.66432  0.59232  1.0000
  H   H1314     1.0  0.17836  0.50919  0.92556  1.0000
  C   C739      1.0  0.12641  0.50254  0.66308  1.0000
  C   C740      1.0  0.44966  0.62605  0.89031  1.0000
  C   C741      1.0  0.12612  0.49960  0.74537  1.0000
  H   H1315     1.0  0.07532  0.66362  0.57594  1.0000
  H   H1316     1.0  0.26091  0.62842  0.85738  1.0000
  H   H1317     1.0  0.11419  0.50226  0.94589  1.0000
  H   H1318     1.0  0.30620  0.63455  0.89454  1.0000
  H   H1319     1.0  0.48469  0.66293  0.86981  1.0000
  C   C742      1.0  0.02020  0.45296  0.85080  1.0000
  H   H1320     1.0  0.41223  0.68829  0.87505  1.0000
  C   C743      1.0  0.32885  0.67578  0.71730  1.0000
  H   H1321     1.0  0.25608  0.46620  0.95687  1.0000
  C   C744      1.0  0.34635  0.68531  0.85294  1.0000
  H   H1322     1.0  0.19131  0.69028  0.85010  1.0000
  H   H1323     1.0  0.02441  0.55521  0.72955  1.0000
  C   C745      1.0  0.01576  0.68563  0.69664  1.0000
  H   H1324     1.0  0.03704  0.45137  0.85946  1.0000
  C   C746      1.0  0.18247  0.47475  0.97111  1.0000
  H   H1325     1.0  0.01579  0.45412  0.73263  1.0000
  H   H1326     1.0  0.07136  0.67726  0.95918  1.0000
  H   H1327     1.0  0.35974  0.69030  0.54288  1.0000
  C   C747      1.0  0.01142  0.58398  0.69805  1.0000
  C   C748      1.0  0.01309  0.52695  0.95216  1.0000
  H   H1328     1.0  0.15110  0.48510  0.98337  1.0000
  H   H1329     1.0  0.14836  0.63882  0.48646  1.0000
  H   H1330     1.0  0.08139  0.56399  0.98239  1.0000
  H   H1331     1.0  0.26515  0.53876  0.39408  1.0000
  N   N44       1.0  0.19729  0.48461  0.00174  1.0000
  Fe  Fe78      1.0  0.24175  0.56191  0.13739  1.0000
  H   H1332     1.0  0.16797  0.52240  0.13273  1.0000
  H   H1333     1.0  0.24055  0.63486  0.25254  1.0000
  H   H1334     1.0  0.09306  0.49834  0.07449  1.0000
  C   C749      1.0  0.17310  0.52044  0.41591  1.0000
  C   C750      1.0  0.30329  0.48486  0.39942  1.0000
  C   C751      1.0  0.08585  0.59755  0.44538  1.0000
  H   H1335     1.0  0.34338  0.58870  0.03368  1.0000
  C   C752      1.0  0.46960  0.57425  0.17854  1.0000
  H   H1336     1.0  0.04827  0.65429  0.38061  1.0000
  H   H1337     1.0  0.04045  0.50136  0.33435  1.0000
  H   H1338     1.0  0.22837  0.67370  0.11032  1.0000
  H   H1339     1.0  0.27199  0.53918  0.24017  1.0000
  H   H1340     1.0  0.22949  0.63085  0.16122  1.0000
  C   C753      1.0  0.25163  0.46687  0.19995  1.0000
  H   H1341     1.0  0.07039  0.66098  0.19341  1.0000
  H   H1342     1.0  0.37082  0.56359  0.22223  1.0000
  H   H1343     1.0  0.22524  0.49644  0.40822  1.0000
  C   C754      1.0  0.21541  0.50861  0.39878  1.0000
  H   H1344     1.0  0.22045  0.58359  0.27208  1.0000
  H   H1345     1.0  0.30625  0.50104  0.23363  1.0000
  H   H1346     1.0  0.32010  0.53030  0.43929  1.0000
  C   C755      1.0  0.28874  0.67296  0.10170  1.0000
  H   H1347     1.0  0.08661  0.54077  0.25744  1.0000
  H   H1348     1.0  0.06591  0.53648  0.16224  1.0000
  H   H1349     1.0  0.07944  0.48471  0.23772  1.0000
  C   C756      1.0  0.21722  0.45360  0.00521  1.0000
  C   C757      1.0  0.26174  0.45021  0.19783  1.0000
  H   H1350     1.0  0.32829  0.68422  0.22205  1.0000
  H   H1351     1.0  0.25564  0.65167  0.43514  1.0000
  C   C758      1.0  0.50188  0.55166  0.19155  1.0000
  H   H1352     1.0  0.27305  0.64080  0.31997  1.0000
  C   C759      1.0  0.22164  0.48199  0.99426  1.0000
  H   H1353     1.0  0.41607  0.48060  0.25907  1.0000
  H   H1354     1.0  0.33510  0.44303  0.22582  1.0000
  C   C760      1.0  0.15480  0.46691  0.07552  1.0000
  C   C761      1.0  0.06951  0.48047  0.31315  1.0000
  C   C762      1.0  0.27961  0.47593  0.10605  1.0000
  H   H1355     1.0  0.13865  0.64024  0.03865  1.0000
  H   H1356     1.0  0.21225  0.61685  0.02286  1.0000
  C   C763      1.0  0.10664  0.54997  0.15583  1.0000
  H   H1357     1.0  0.02652  0.68576  0.99642  1.0000
  C   C764      1.0  0.07922  0.49755  0.25517  1.0000
  C   C765      1.0  0.44680  0.44252  0.00824  1.0000
  Fe  Fe79      1.0  0.27647  0.60390  0.02813  1.0000
  C   C766      1.0  0.02710  0.55680  0.17094  1.0000
  H   H1358     1.0  0.45124  0.52428  0.36130  1.0000
  C   C767      1.0  0.33822  0.46021  0.19096  1.0000
  C   C768      1.0  0.46158  0.65415  0.09461  1.0000
  C   C769      1.0  0.15178  0.51704  0.11974  1.0000
  H   H1359     1.0  0.10025  0.51245  0.24361  1.0000
  H   H1360     1.0  0.34902  0.52201  0.23138  1.0000
  H   H1361     1.0  0.08511  0.45792  0.05266  1.0000
  H   H1362     1.0  0.24797  0.53628  0.32512  1.0000
  H   H1363     1.0  0.18833  0.45507  0.42261  1.0000
  C   C770      1.0  0.04000  0.64951  0.35337  1.0000
  H   H1364     1.0  0.16496  0.48322  0.32301  1.0000
  C   C771      1.0  0.18847  0.64976  0.03565  1.0000
  H   H1365     1.0  0.12224  0.44857  0.14527  1.0000
  H   H1366     1.0  0.07386  0.61470  0.16092  1.0000
  C   C772      1.0  0.47910  0.53898  0.18276  1.0000
  C   C773      1.0  0.15110  0.64370  0.00273  1.0000
  H   H1367     1.0  0.27345  0.60831  0.28988  1.0000
  H   H1368     1.0  0.50763  0.57945  0.38215  1.0000
  C   C774      1.0  0.05575  0.59572  0.17712  1.0000
  H   H1369     1.0  0.27307  0.57079  0.34531  1.0000
  H   H1370     1.0  0.04785  0.64135  0.06644  1.0000
  H   H1371     1.0  0.45909  0.63942  0.08064  1.0000
  C   C775      1.0  0.20730  0.56317  0.22980  1.0000
  H   H1372     1.0  0.32961  0.56704  0.00741  1.0000
  H   H1373     1.0  0.36260  0.57726  0.00625  1.0000
  H   H1374     1.0  0.36006  0.67197  0.27058  1.0000
  C   C776      1.0  0.36909  0.56521  0.18564  1.0000
  C   C777      1.0  0.46317  0.55054  0.17539  1.0000
  S   S162      1.0  0.23639  0.56264  0.21098  1.0000
  H   H1375     1.0  0.02955  0.49780  0.11665  1.0000
  N   N45       1.0  0.34009  0.52849  0.16344  1.0000
  S   S163      1.0  0.27482  0.44284  0.34659  1.0000
  H   H1376     1.0  0.33010  0.44557  0.31645  1.0000
  H   H1377     1.0  0.24871  0.68274  0.44855  1.0000
  S   S164      1.0  0.44945  0.63457  0.38207  1.0000
  H   H1378     1.0  0.31592  0.63808  0.16128  1.0000
  C   C778      1.0  0.11548  0.56754  0.09886  1.0000
  C   C779      1.0  0.33678  0.48149  0.20347  1.0000
  H   H1379     1.0  0.50368  0.62276  0.41621  1.0000
  H   H1380     1.0  0.37676  0.57807  0.45821  1.0000
  H   H1381     1.0  0.36929  0.55805  0.08877  1.0000
  H   H1382     1.0  0.40510  0.45409  0.43628  1.0000
  S   S165      1.0  0.14221  0.66047  0.33524  1.0000
  H   H1383     1.0  0.31141  0.54122  0.10002  1.0000
  H   H1384     1.0  0.34884  0.62405  0.14948  1.0000
  C   C780      1.0  0.18016  0.66178  0.99128  1.0000
  C   C781      1.0  0.20229  0.49572  0.33666  1.0000
  S   S166      1.0  0.22005  0.52956  0.11808  1.0000
  H   H1385     1.0  0.41275  0.53712  0.01118  1.0000
  S   S167      1.0  0.25824  0.57550  0.99903  1.0000
  H   H1386     1.0  0.50090  0.68183  0.04114  1.0000
  H   H1387     1.0  0.24706  0.55499  0.40534  1.0000
  H   H1388     1.0  0.33398  0.47762  0.30756  1.0000
  S   S168      1.0  0.02142  0.53808  0.13846  1.0000
  Fe  Fe80      1.0  0.08728  0.61616  0.25078  1.0000
  H   H1389     1.0  0.21260  0.51684  0.30566  1.0000
  H   H1390     1.0  0.15419  0.49148  0.39098  1.0000
  H   H1391     1.0  0.06162  0.51857  0.02722  1.0000
  H   H1392     1.0  0.18104  0.52267  0.34321  1.0000
  S   S169      1.0  0.39830  0.59458  0.33631  1.0000
  N   N46       1.0  0.02473  0.60058  0.41944  1.0000
  H   H1393     1.0  0.24687  0.50025  0.15662  1.0000
  H   H1394     1.0  0.17885  0.58367  0.29997  1.0000
  H   H1395     1.0  0.03024  0.61512  0.34039  1.0000
  C   C782      1.0  0.36741  0.47275  0.31523  1.0000
  H   H1396     1.0  0.36569  0.45275  0.39037  1.0000
  C   C783      1.0  0.08439  0.46541  0.32767  1.0000
  C   C784      1.0  0.12706  0.49456  0.15340  1.0000
  H   H1397     1.0  0.03696  0.49380  0.01858  1.0000
  H   H1398     1.0  0.15423  0.46247  0.14991  1.0000
  C   C785      1.0  0.41231  0.66849  0.19426  1.0000
  H   H1399     1.0  0.14749  0.62404  0.00568  1.0000
  H   H1400     1.0  0.45825  0.57294  0.42426  1.0000
  H   H1401     1.0  0.15171  0.53840  0.37954  1.0000
  H   H1402     1.0  0.08035  0.45074  0.31325  1.0000
  C   C786      1.0  0.03068  0.69016  0.02731  1.0000
  H   H1403     1.0  0.20936  0.51008  0.43333  1.0000
  H   H1404     1.0  0.40771  0.48813  0.37087  1.0000
  S   S170      1.0  0.49905  0.61473  0.19704  1.0000
  Fe  Fe81      1.0  0.12841  0.59862  0.26043  1.0000
  C   C787      1.0  0.48354  0.65653  0.35487  1.0000
  H   H1405     1.0  0.49819  0.65859  0.10130  1.0000
  H   H1406     1.0  0.42356  0.44155  0.37120  1.0000
  S   S171      1.0  0.27283  0.51748  0.05129  1.0000
  H   H1407     1.0  0.05440  0.46486  0.00462  1.0000
  H   H1408     1.0  0.11164  0.55500  0.07975  1.0000
  H   H1409     1.0  0.39627  0.59052  0.10627  1.0000
  H   H1410     1.0  0.16607  0.63738  0.43450  1.0000
  C   C788      1.0  0.25521  0.48783  0.15493  1.0000
  C   C789      1.0  0.07735  0.52731  0.17839  1.0000
  S   S172      1.0  0.47022  0.50848  0.18186  1.0000
  C   C790      1.0  0.50834  0.57533  0.19471  1.0000
  S   S173      1.0  0.16037  0.68323  0.09088  1.0000
  H   H1411     1.0  0.03897  0.53289  0.36277  1.0000
  H   H1412     1.0  0.03131  0.56839  0.37832  1.0000
  C   C791      1.0  0.03441  0.64943  0.05857  1.0000
  H   H1413     1.0  0.21502  0.51949  0.01264  1.0000
  H   H1414     1.0  0.33919  0.61960  0.36927  1.0000
  C   C792      1.0  0.44657  0.55099  0.45127  1.0000
  C   C793      1.0  0.30562  0.53779  0.20445  1.0000
  S   S174      1.0  0.42199  0.58428  0.24535  1.0000
  C   C794      1.0  0.06101  0.66691  0.12598  1.0000
  C   C795      1.0  0.46039  0.52446  0.32642  1.0000
  Fe  Fe82      1.0  0.21950  0.56209  0.05401  1.0000
  S   S175      1.0  0.47521  0.44507  0.26303  1.0000
  H   H1415     1.0  0.22338  0.59007  0.47848  1.0000
  C   C796      1.0  0.07397  0.46803  0.98673  1.0000
  C   C797      1.0  0.20604  0.51378  0.98654  1.0000
  C   C798      1.0  0.14221  0.45136  0.13315  1.0000
  C   C799      1.0  0.30212  0.65919  0.02777  1.0000
  H   H1416     1.0  0.23514  0.64346  0.30183  1.0000
  S   S176      1.0  0.07570  0.45822  0.17607  1.0000
  H   H1417     1.0  0.02739  0.52005  0.29853  1.0000
  H   H1418     1.0  0.32728  0.45227  0.36914  1.0000
  H   H1419     1.0  0.05246  0.64532  0.13644  1.0000
  H   H1420     1.0  0.45739  0.58325  0.17241  1.0000
  H   H1421     1.0  0.13119  0.50673  0.43710  1.0000
  H   H1422     1.0  0.18879  0.54288  0.19082  1.0000
  C   C800      1.0  0.13420  0.52575  0.05320  1.0000
  H   H1423     1.0  0.35566  0.57324  0.17987  1.0000
  H   H1424     1.0  0.31718  0.47154  0.23300  1.0000
  C   C801      1.0  0.03737  0.58578  0.22444  1.0000
  H   H1425     1.0  0.31979  0.60383  0.14136  1.0000
  C   C802      1.0  0.17460  0.50679  0.38276  1.0000
  C   C803      1.0  0.27593  0.52599  0.22735  1.0000
  H   H1426     1.0  0.11022  0.56342  0.17296  1.0000
  H   H1427     1.0  0.03806  0.65667  0.20109  1.0000
  Fe  Fe83      1.0  0.41505  0.61617  0.25159  1.0000
  H   H1428     1.0  0.35778  0.46875  0.16247  1.0000
  C   C804      1.0  0.26901  0.49219  0.10797  1.0000
  H   H1429     1.0  0.15743  0.48729  0.06313  1.0000
  C   C805      1.0  0.24313  0.45344  0.99720  1.0000
  N   N47       1.0  0.04667  0.67824  0.04860  1.0000
  C   C806      1.0  0.35598  0.68171  0.17117  1.0000
  H   H1430     1.0  0.33056  0.52999  0.07236  1.0000
  S   S177      1.0  0.23744  0.59281  0.07806  1.0000
  H   H1431     1.0  0.22815  0.54985  0.34050  1.0000
  Fe  Fe84      1.0  0.14261  0.65289  0.17365  1.0000
  H   H1432     1.0  0.03375  0.53667  0.04384  1.0000
  S   S178      1.0  0.39815  0.63609  0.20109  1.0000
  H   H1433     1.0  0.21139  0.62685  0.08588  1.0000
  C   C807      1.0  0.44114  0.61673  0.98990  1.0000
  H   H1434     1.0  0.32251  0.54778  0.30803  1.0000
  H   H1435     1.0  0.24312  0.65474  0.06363  1.0000
  H   H1436     1.0  0.45688  0.49743  0.29645  1.0000
  H   H1437     1.0  0.02638  0.50394  0.23316  1.0000
  H   H1438     1.0  0.49782  0.59003  0.45299  1.0000
  H   H1439     1.0  0.08229  0.67756  0.10322  1.0000
  H   H1440     1.0  0.36060  0.51403  0.12694  1.0000
  H   H1441     1.0  0.31322  0.55666  0.16891  1.0000
  H   H1442     1.0  0.10102  0.45486  0.00346  1.0000
  H   H1443     1.0  0.37990  0.45139  0.99673  1.0000
  C   C808      1.0  0.31248  0.61915  0.19209  1.0000
  C   C809      1.0  0.34804  0.64967  0.29315  1.0000
  H   H1444     1.0  0.07706  0.51370  0.16260  1.0000
  C   C810      1.0  0.40417  0.55163  0.47723  1.0000
  C   C811      1.0  0.41215  0.46170  0.29119  1.0000
  H   H1445     1.0  0.20915  0.69002  0.34991  1.0000
  H   H1446     1.0  0.21004  0.48105  0.26240  1.0000
  C   C812      1.0  0.30929  0.68607  0.01370  1.0000
  H   H1447     1.0  0.10492  0.57899  0.09087  1.0000
  H   H1448     1.0  0.37412  0.49337  0.99308  1.0000
  H   H1449     1.0  0.07785  0.45420  0.36950  1.0000
  C   C813      1.0  0.24193  0.60989  0.45788  1.0000
  C   C814      1.0  0.49878  0.65388  0.31958  1.0000
  C   C815      1.0  0.10610  0.48747  0.13660  1.0000
  H   H1450     1.0  0.50494  0.61471  0.05672  1.0000
  C   C816      1.0  0.32384  0.53145  0.33491  1.0000
  H   H1451     1.0  0.43785  0.61309  0.02841  1.0000
  H   H1452     1.0  0.02642  0.67051  0.12275  1.0000
  H   H1453     1.0  0.20023  0.50603  0.23944  1.0000
  H   H1454     1.0  0.41424  0.65521  0.26869  1.0000
  Fe  Fe85      1.0  0.25003  0.45712  0.37565  1.0000
  C   C817      1.0  0.35866  0.53664  0.19010  1.0000
  H   H1455     1.0  0.40624  0.57984  0.01031  1.0000
  C   C818      1.0  0.34121  0.50604  0.15572  1.0000
  S   S179      1.0  0.27743  0.67930  0.14940  1.0000
  C   C819      1.0  0.32101  0.62369  0.23467  1.0000
  S   S180      1.0  0.50797  0.49861  0.27419  1.0000
  H   H1456     1.0  0.01931  0.59208  0.01401  1.0000
  H   H1457     1.0  0.02526  0.48111  0.29063  1.0000
  H   H1458     1.0  0.02697  0.65823  0.34823  1.0000
  C   C820      1.0  0.06708  0.53182  0.25422  1.0000
  C   C821      1.0  0.49198  0.58642  0.18895  1.0000
  H   H1459     1.0  0.29117  0.60402  0.20762  1.0000
  H   H1460     1.0  0.29849  0.50833  0.17871  1.0000
  H   H1461     1.0  0.18898  0.51702  0.99121  1.0000
  H   H1462     1.0  0.19446  0.61257  0.17704  1.0000
  H   H1463     1.0  0.23160  0.61080  0.31755  1.0000
  H   H1464     1.0  0.34073  0.65018  0.36518  1.0000
  S   S181      1.0  0.11629  0.65942  0.22209  1.0000
  H   H1465     1.0  0.48396  0.67826  0.39618  1.0000
  C   C822      1.0  0.34261  0.57151  0.02879  1.0000
  H   H1466     1.0  0.32531  0.59013  0.19941  1.0000
  C   C823      1.0  0.28439  0.63013  0.26181  1.0000
  H   H1467     1.0  0.03887  0.47945  0.19110  1.0000
  C   C824      1.0  0.05682  0.58644  0.45201  1.0000
  C   C825      1.0  0.22203  0.64897  0.07198  1.0000
  S   S182      1.0  0.27147  0.50018  0.35720  1.0000
  C   C826      1.0  0.27218  0.64408  0.28225  1.0000
  H   H1468     1.0  0.35061  0.56978  0.11348  1.0000
  C   C827      1.0  0.15556  0.62668  0.47613  1.0000
  H   H1469     1.0  0.42742  0.44183  0.23019  1.0000
  C   C828      1.0  0.49079  0.67200  0.08261  1.0000
  H   H1470     1.0  0.37377  0.65705  0.46825  1.0000
  C   C829      1.0  0.01357  0.56182  0.24427  1.0000
  H   H1471     1.0  0.28494  0.61941  0.09054  1.0000
  H   H1472     1.0  0.31220  0.60341  0.26816  1.0000
  H   H1473     1.0  0.06678  0.69014  0.16659  1.0000
  C   C830      1.0  0.02741  0.52399  0.02528  1.0000
  C   C831      1.0  0.39314  0.52001  0.02098  1.0000
  H   H1474     1.0  0.09749  0.60062  0.40928  1.0000
  H   H1475     1.0  0.39116  0.63200  0.44165  1.0000
  H   H1476     1.0  0.18294  0.68171  0.98519  1.0000
  N   N48       1.0  0.06470  0.51179  0.23545  1.0000
  C   C832      1.0  0.32771  0.67035  0.20660  1.0000
  C   C833      1.0  0.27601  0.45503  0.15083  1.0000
  C   C834      1.0  0.41289  0.49703  0.98775  1.0000
  Fe  Fe86      1.0  0.43968  0.61635  0.33150  1.0000
  C   C835      1.0  0.16015  0.56276  0.26198  1.0000
  C   C836      1.0  0.06259  0.66426  0.30286  1.0000
  H   H1477     1.0  0.26646  0.50552  0.26035  1.0000
  Fe  Fe87      1.0  0.49318  0.45429  0.31721  1.0000
  H   H1478     1.0  0.19290  0.47427  0.07958  1.0000
  H   H1479     1.0  0.43170  0.46308  0.28574  1.0000
  H   H1480     1.0  0.14695  0.68516  0.39839  1.0000
  C   C837      1.0  0.16761  0.45860  0.48218  1.0000
  C   C838      1.0  0.18669  0.55175  0.21465  1.0000
  C   C839      1.0  0.23687  0.53734  0.35645  1.0000
  H   H1481     1.0  0.41616  0.66684  0.41290  1.0000
  C   C840      1.0  0.40838  0.44123  0.23253  1.0000
  H   H1482     1.0  0.50914  0.45590  0.11895  1.0000
  H   H1483     1.0  0.07249  0.54208  0.33496  1.0000
  C   C841      1.0  0.34907  0.55172  0.11159  1.0000
  H   H1484     1.0  0.40337  0.60537  0.14620  1.0000
  C   C842      1.0  0.28233  0.64650  0.11529  1.0000
  H   H1485     1.0  0.45995  0.54450  0.46582  1.0000
  H   H1486     1.0  0.38643  0.50395  0.06034  1.0000
  H   H1487     1.0  0.37053  0.65002  0.34228  1.0000
  H   H1488     1.0  0.03168  0.64846  0.02403  1.0000
  C   C843      1.0  0.41722  0.48724  0.33758  1.0000
  H   H1489     1.0  0.50713  0.52162  0.07790  1.0000
  H   H1490     1.0  0.12435  0.48264  0.19211  1.0000
  C   C844      1.0  0.19327  0.48478  0.26667  1.0000
  H   H1491     1.0  0.35712  0.64066  0.27650  1.0000
  C   C845      1.0  0.35009  0.51453  0.37314  1.0000
  H   H1492     1.0  0.40392  0.67985  0.99646  1.0000
  H   H1493     1.0  0.41753  0.50326  0.30449  1.0000
  H   H1494     1.0  0.14697  0.54176  0.22048  1.0000
  C   C846      1.0  0.04684  0.67976  0.09663  1.0000
  C   C847      1.0  0.44637  0.49639  0.33120  1.0000
  H   H1495     1.0  0.17322  0.45705  0.34559  1.0000
  C   C848      1.0  0.02362  0.61875  0.37182  1.0000
  H   H1496     1.0  0.04825  0.46536  0.32940  1.0000
  H   H1497     1.0  0.08561  0.68343  0.02672  1.0000
  S   S183      1.0  0.38058  0.52003  0.37805  1.0000
  C   C849      1.0  0.39647  0.58619  0.14466  1.0000
  C   C850      1.0  0.02901  0.48673  0.09501  1.0000
  H   H1498     1.0  0.31652  0.67267  0.18112  1.0000
  H   H1499     1.0  0.09412  0.61709  0.44571  1.0000
  S   S184      1.0  0.10061  0.60131  0.31423  1.0000
  C   C851      1.0  0.18099  0.46762  0.05765  1.0000
  H   H1500     1.0  0.31665  0.54365  0.48153  1.0000
  C   C852      1.0  0.31444  0.69011  0.36006  1.0000
  S   S185      1.0  0.44861  0.58449  0.33091  1.0000
  C   C853      1.0  0.18134  0.47887  0.32076  1.0000
  H   H1501     1.0  0.23244  0.48847  0.01768  1.0000
  H   H1502     1.0  0.04953  0.56691  0.45171  1.0000
  C   C854      1.0  0.34819  0.53560  0.33858  1.0000
  S   S186      1.0  0.16078  0.64097  0.23114  1.0000
  Fe  Fe88      1.0  0.25990  0.54467  0.06434  1.0000
  H   H1503     1.0  0.19565  0.68815  0.14349  1.0000
  Fe  Fe89      1.0  0.46173  0.60724  0.24661  1.0000
  H   H1504     1.0  0.28257  0.66610  0.25593  1.0000
  C   C855      1.0  0.30143  0.50598  0.36491  1.0000
  C   C856      1.0  0.33790  0.46130  0.32798  1.0000
  C   C857      1.0  0.15547  0.53227  0.06935  1.0000
  H   H1505     1.0  0.44570  0.54101  0.16790  1.0000
  N   N49       1.0  0.19201  0.49435  0.38674  1.0000
  H   H1506     1.0  0.44811  0.48240  0.36409  1.0000
  H   H1507     1.0  0.17814  0.47151  0.25731  1.0000
  S   S187      1.0  0.12967  0.55998  0.28545  1.0000
  C   C858      1.0  0.32759  0.60862  0.16919  1.0000
  H   H1508     1.0  0.46702  0.45857  0.99876  1.0000
  H   H1509     1.0  0.35605  0.67094  0.14918  1.0000
  H   H1510     1.0  0.37626  0.47697  0.27619  1.0000
  H   H1511     1.0  0.30331  0.67053  0.36098  1.0000
  H   H1512     1.0  0.06656  0.54922  0.22616  1.0000
  H   H1513     1.0  0.31393  0.65309  0.30769  1.0000
  H   H1514     1.0  0.20809  0.65990  0.44779  1.0000
  H   H1515     1.0  0.36644  0.68639  0.03669  1.0000
  C   C859      1.0  0.13519  0.68552  0.33527  1.0000
  H   H1516     1.0  0.41481  0.57174  0.44248  1.0000
  H   H1517     1.0  0.32263  0.45237  0.17635  1.0000
  H   H1518     1.0  0.14068  0.45612  0.06138  1.0000
  H   H1519     1.0  0.17521  0.44616  0.07089  1.0000
  C   C860      1.0  0.18097  0.57468  0.27635  1.0000
  C   C861      1.0  0.33107  0.54489  0.45142  1.0000
  N   N50       1.0  0.31374  0.64158  0.24892  1.0000
  H   H1520     1.0  0.36549  0.55510  0.31419  1.0000
  C   C862      1.0  0.03604  0.49239  0.24922  1.0000
  H   H1521     1.0  0.05491  0.66112  0.27377  1.0000
  H   H1522     1.0  0.07660  0.65672  0.30670  1.0000
  H   H1523     1.0  0.15055  0.53691  0.43988  1.0000
  C   C863      1.0  0.41853  0.67225  0.23396  1.0000
  H   H1524     1.0  0.10592  0.47970  0.31214  1.0000
  H   H1525     1.0  0.11949  0.54103  0.16178  1.0000
  C   C864      1.0  0.49572  0.67611  0.36897  1.0000
  H   H1526     1.0  0.31408  0.54232  0.23183  1.0000
  H   H1527     1.0  0.19440  0.65265  0.12336  1.0000
  H   H1528     1.0  0.37544  0.49218  0.31589  1.0000
  N   N51       1.0  0.21766  0.66327  0.02498  1.0000
  C   C865      1.0  0.35079  0.53808  0.47069  1.0000
  C   C866      1.0  0.16301  0.55114  0.23143  1.0000
  H   H1529     1.0  0.26690  0.52483  0.19873  1.0000
  S   S188      1.0  0.11265  0.61025  0.19922  1.0000
  C   C867      1.0  0.21145  0.63238  0.16591  1.0000
  C   C868      1.0  0.20443  0.57459  0.26072  1.0000
  C   C869      1.0  0.31922  0.64023  0.29611  1.0000
  C   C870      1.0  0.25667  0.55131  0.37670  1.0000
  H   H1530     1.0  0.10399  0.45394  0.45408  1.0000
  C   C871      1.0  0.05073  0.58114  0.15054  1.0000
  Fe  Fe90      1.0  0.49253  0.48970  0.21706  1.0000
  H   H1531     1.0  0.41085  0.57935  0.15097  1.0000
  C   C872      1.0  0.31209  0.51765  0.19533  1.0000
  H   H1532     1.0  0.09378  0.50449  0.99278  1.0000
  C   C873      1.0  0.34960  0.64189  0.34577  1.0000
  H   H1533     1.0  0.41362  0.68779  0.11825  1.0000
  H   H1534     1.0  0.20849  0.63764  0.19652  1.0000
  H   H1535     1.0  0.39469  0.53664  0.46478  1.0000
  H   H1536     1.0  0.41197  0.46015  0.20116  1.0000
  S   S189      1.0  0.28174  0.57421  0.08877  1.0000
  C   C874      1.0  0.17654  0.46494  0.42634  1.0000
  H   H1537     1.0  0.29026  0.47920  0.06984  1.0000
  Fe  Fe91      1.0  0.13193  0.64446  0.28151  1.0000
  H   H1538     1.0  0.45323  0.66653  0.07583  1.0000
  H   H1539     1.0  0.35213  0.48776  0.21940  1.0000
  H   H1540     1.0  0.06581  0.62692  0.40250  1.0000
  H   H1541     1.0  0.30654  0.61921  0.32803  1.0000
  H   H1542     1.0  0.04099  0.47708  0.10436  1.0000
  H   H1543     1.0  0.17785  0.65079  0.06741  1.0000
  C   C875      1.0  0.32757  0.48920  0.40388  1.0000
  H   H1544     1.0  0.15825  0.45404  0.42044  1.0000
  C   C876      1.0  0.01651  0.60546  0.46269  1.0000
  Fe  Fe92      1.0  0.40834  0.56429  0.32973  1.0000
  H   H1545     1.0  0.37625  0.53498  0.17745  1.0000
  C   C877      1.0  0.37305  0.45303  0.35422  1.0000
  C   C878      1.0  0.33161  0.54647  0.08007  1.0000
  H   H1546     1.0  0.13693  0.58205  0.08317  1.0000
  S   S190      1.0  0.18662  0.55874  0.02530  1.0000
  H   H1547     1.0  0.25360  0.46094  0.01989  1.0000
  H   H1548     1.0  0.48103  0.68160  0.14062  1.0000
  H   H1549     1.0  0.19148  0.54005  0.39997  1.0000
  C   C879      1.0  0.21367  0.65364  0.11699  1.0000
  C   C880      1.0  0.05885  0.66888  0.17463  1.0000
  H   H1550     1.0  0.05884  0.56084  0.29978  1.0000
  H   H1551     1.0  0.40362  0.47968  0.02668  1.0000
  H   H1552     1.0  0.18002  0.62777  0.04914  1.0000
  H   H1553     1.0  0.28372  0.44212  0.14895  1.0000
  C   C881      1.0  0.28967  0.63987  0.07877  1.0000
  H   H1554     1.0  0.06070  0.60641  0.37371  1.0000
  H   H1555     1.0  0.45943  0.53936  0.29359  1.0000
  H   H1556     1.0  0.06515  0.58871  0.11430  1.0000
  C   C882      1.0  0.10946  0.50351  0.08699  1.0000
  H   H1557     1.0  0.36889  0.67988  0.19255  1.0000
  C   C883      1.0  0.03004  0.47050  0.23256  1.0000
  H   H1558     1.0  0.48142  0.53094  0.32040  1.0000
  H   H1559     1.0  0.34251  0.63157  0.22291  1.0000
  H   H1560     1.0  0.07350  0.49384  0.33055  1.0000
  H   H1561     1.0  0.32610  0.49766  0.14051  1.0000
  H   H1562     1.0  0.22311  0.63317  0.43645  1.0000
  H   H1563     1.0  0.36465  0.54044  0.43822  1.0000
  S   S191      1.0  0.45592  0.64073  0.24696  1.0000
  C   C884      1.0  0.08147  0.45035  0.02523  1.0000
  H   H1564     1.0  0.13696  0.53769  0.01437  1.0000
  H   H1565     1.0  0.22139  0.45084  0.10289  1.0000
  H   H1566     1.0  0.27125  0.63080  0.15423  1.0000
  H   H1567     1.0  0.48959  0.63890  0.30838  1.0000
  C   C885      1.0  0.24311  0.63251  0.28891  1.0000
  H   H1568     1.0  0.37900  0.52748  0.01884  1.0000
  H   H1569     1.0  0.43818  0.53971  0.43145  1.0000
  C   C886      1.0  0.15023  0.52593  0.41810  1.0000
  C   C887      1.0  0.23670  0.63232  0.45699  1.0000
  C   C888      1.0  0.05267  0.60619  0.40941  1.0000
  H   H1570     1.0  0.45049  0.64276  0.13609  1.0000
  H   H1571     1.0  0.21737  0.48937  0.33649  1.0000
  H   H1572     1.0  0.27938  0.63134  0.22780  1.0000
  S   S192      1.0  0.04484  0.60180  0.26104  1.0000
  H   H1573     1.0  0.25026  0.61401  0.41861  1.0000
  C   C889      1.0  0.04563  0.52147  0.30501  1.0000
  H   H1574     1.0  0.04862  0.44189  0.11428  1.0000
  H   H1575     1.0  0.34142  0.56548  0.41848  1.0000
  H   H1576     1.0  0.42723  0.45910  0.03877  1.0000
  H   H1577     1.0  0.41706  0.64176  0.46571  1.0000
  C   C890      1.0  0.04010  0.50597  0.03825  1.0000
  C   C891      1.0  0.05458  0.54057  0.32684  1.0000
  H   H1578     1.0  0.08795  0.58305  0.47684  1.0000
  H   H1579     1.0  0.32890  0.47286  0.43074  1.0000
  H   H1580     1.0  0.07302  0.68620  0.28999  1.0000
  C   C892      1.0  0.40390  0.64792  0.44942  1.0000
  C   C893      1.0  0.42768  0.45323  0.00857  1.0000
  H   H1581     1.0  0.28602  0.46514  0.42286  1.0000
  H   H1582     1.0  0.03281  0.62345  0.46037  1.0000
  H   H1583     1.0  0.31815  0.68607  0.39591  1.0000
  C   C894      1.0  0.21961  0.63363  0.98423  1.0000
  H   H1584     1.0  0.24040  0.46313  0.23605  1.0000
  H   H1585     1.0  0.43178  0.51173  0.98656  1.0000
  N   N52       1.0  0.40141  0.46008  0.34124  1.0000
  H   H1586     1.0  0.17059  0.50804  0.45509  1.0000
  H   H1587     1.0  0.03744  0.45705  0.25106  1.0000
  H   H1588     1.0  0.25049  0.48461  0.46724  1.0000
  H   H1589     1.0  0.50443  0.60824  0.34776  1.0000
  H   H1590     1.0  0.16949  0.45239  0.99269  1.0000
  H   H1591     1.0  0.25624  0.60879  0.47654  1.0000
  H   H1592     1.0  0.47458  0.61779  0.48171  1.0000
  H   H1593     1.0  0.49869  0.64742  0.48015  1.0000
  C   C895      1.0  0.39445  0.50909  0.98379  1.0000
  C   C896      1.0  0.08611  0.74873  0.49860  1.0000
  H   H1594     1.0  0.43252  0.85974  0.93110  1.0000
  H   H1595     1.0  0.24506  0.77766  0.71843  1.0000
  H   H1596     1.0  0.17218  0.72454  0.79288  1.0000
  H   H1597     1.0  0.02413  0.82095  0.66340  1.0000
  H   H1598     1.0  0.42400  0.89855  0.91043  1.0000
  H   H1599     1.0  0.19255  0.80198  0.80549  1.0000
  H   H1600     1.0  0.45474  0.72614  0.81465  1.0000
  S   S193      1.0  0.26025  0.71792  0.67745  1.0000
  H   H1601     1.0  0.34241  0.73282  0.86864  1.0000
  C   C897      1.0  0.04109  0.90855  0.76962  1.0000
  Fe  Fe93      1.0  0.11920  0.76508  0.70890  1.0000
  H   H1602     1.0  0.37444  0.72854  0.80945  1.0000
  S   S194      1.0  0.04982  0.70390  0.79591  1.0000
  C   C898      1.0  0.37765  0.81180  0.58058  1.0000
  H   H1603     1.0  0.16843  0.70580  0.51371  1.0000
  C   C899      1.0  0.13745  0.76506  0.51440  1.0000
  H   H1604     1.0  0.09693  0.76992  0.56859  1.0000
  C   C900      1.0  0.40460  0.71766  0.97651  1.0000
  H   H1605     1.0  0.19424  0.77741  0.66171  1.0000
  H   H1606     1.0  0.32408  0.74299  0.90061  1.0000
  C   C901      1.0  0.23839  0.69584  0.50123  1.0000
  H   H1607     1.0  0.38527  0.83443  0.76300  1.0000
  H   H1608     1.0  0.08272  0.83269  0.61413  1.0000
  H   H1609     1.0  0.41115  0.81366  0.83322  1.0000
  H   H1610     1.0  0.11923  0.70617  0.93989  1.0000
  C   C902      1.0  0.49447  0.69740  0.66296  1.0000
  H   H1611     1.0  0.11726  0.80565  0.72744  1.0000
  C   C903      1.0  0.11467  0.84187  0.70931  1.0000
  C   C904      1.0  0.48197  0.87133  0.64800  1.0000
  H   H1612     1.0  0.47377  0.71999  0.65721  1.0000
  H   H1613     1.0  0.48071  0.85857  0.72453  1.0000
  H   H1614     1.0  0.48961  0.87481  0.92286  1.0000
  H   H1615     1.0  0.04406  0.79780  0.85484  1.0000
  H   H1616     1.0  0.37161  0.71284  0.87461  1.0000
  S   S195      1.0  0.10706  0.92723  0.77899  1.0000
  H   H1617     1.0  0.18648  0.85708  0.63015  1.0000
  C   C905      1.0  0.32856  0.74055  0.86670  1.0000
  S   S196      1.0  0.04861  0.71160  0.66177  1.0000
  C   C906      1.0  0.02886  0.88107  0.78421  1.0000
  H   H1618     1.0  0.23925  0.81099  0.64224  1.0000
  C   C907      1.0  0.19791  0.87995  0.77379  1.0000
  C   C908      1.0  0.37191  0.71016  0.84061  1.0000
  H   H1619     1.0  0.36406  0.80515  0.52359  1.0000
  H   H1620     1.0  0.49231  0.75120  0.89074  1.0000
  H   H1621     1.0  0.43814  0.79770  0.76633  1.0000
  H   H1622     1.0  0.36141  0.90236  0.94372  1.0000
  H   H1623     1.0  0.39937  0.71050  0.55525  1.0000
  C   C909      1.0  0.07844  0.69710  0.95810  1.0000
  C   C910      1.0  0.38857  0.76395  0.52781  1.0000
  H   H1624     1.0  0.11530  0.73558  0.92019  1.0000
  H   H1625     1.0  0.20395  0.84882  0.76704  1.0000
  S   S197      1.0  0.35618  0.86413  0.75059  1.0000
  H   H1626     1.0  0.25881  0.83674  0.68687  1.0000
  S   S198      1.0  0.08910  0.87593  0.88935  1.0000
  C   C911      1.0  0.17117  0.86934  0.76823  1.0000
  H   H1627     1.0  0.21112  0.74998  0.81965  1.0000
  H   H1628     1.0  0.08438  0.74025  0.53877  1.0000
  H   H1629     1.0  0.22067  0.69647  0.49602  1.0000
  H   H1630     1.0  0.29291  0.92006  0.73696  1.0000
  H   H1631     1.0  0.41887  0.76763  0.55941  1.0000
  C   C912      1.0  0.21168  0.72394  0.57122  1.0000
  Fe  Fe94      1.0  0.30198  0.74892  0.65691  1.0000
  C   C913      1.0  0.47607  0.76874  0.78743  1.0000
  H   H1632     1.0  0.05443  0.83354  0.70677  1.0000
  H   H1633     1.0  0.15952  0.76186  0.77410  1.0000
  C   C914      1.0  0.47189  0.93329  0.80338  1.0000
  H   H1634     1.0  0.19500  0.71937  0.75991  1.0000
  H   H1635     1.0  0.13367  0.77215  0.54155  1.0000
  C   C915      1.0  0.19298  0.87237  0.55101  1.0000
  C   C916      1.0  0.07947  0.84477  0.63112  1.0000
  H   H1636     1.0  0.15732  0.78538  0.82236  1.0000
  H   H1637     1.0  0.10196  0.92544  0.66010  1.0000
  H   H1638     1.0  0.08473  0.81603  0.53915  1.0000
  C   C917      1.0  0.28680  0.80601  0.77462  1.0000
  H   H1639     1.0  0.22198  0.93804  0.54660  1.0000
  H   H1640     1.0  0.05601  0.91704  0.78353  1.0000
  Fe  Fe95      1.0  0.48315  0.84548  0.57114  1.0000
  C   C918      1.0  0.27378  0.77781  0.80065  1.0000
  C   C919      1.0  0.16284  0.81851  0.57490  1.0000
  N   N53       1.0  0.10516  0.86479  0.62900  1.0000
  H   H1641     1.0  0.46915  0.89247  0.97115  1.0000
  H   H1642     1.0  0.14107  0.90052  0.57147  1.0000
  H   H1643     1.0  0.06678  0.74766  0.50064  1.0000
  H   H1644     1.0  0.15456  0.93035  0.95324  1.0000
  C   C920      1.0  0.21490  0.87114  0.74887  1.0000
  H   H1645     1.0  0.41999  0.82713  0.76622  1.0000
  C   C921      1.0  0.30148  0.77807  0.73245  1.0000
  H   H1646     1.0  0.24143  0.93146  0.92020  1.0000
  H   H1647     1.0  0.35888  0.86973  0.96948  1.0000
  C   C922      1.0  0.17667  0.77064  0.78429  1.0000
  H   H1648     1.0  0.49044  0.93396  0.80102  1.0000
  H   H1649     1.0  0.30628  0.71633  0.83576  1.0000
  C   C923      1.0  0.03196  0.80767  0.68064  1.0000
  C   C924      1.0  0.39969  0.69927  0.67617  1.0000
  C   C925      1.0  0.18246  0.85196  0.60099  1.0000
  C   C926      1.0  0.35821  0.79659  0.85545  1.0000
  H   H1650     1.0  0.23175  0.83211  0.83411  1.0000
  H   H1651     1.0  0.32912  0.81720  0.66871  1.0000
  C   C927      1.0  0.17424  0.83903  0.52430  1.0000
  C   C928      1.0  0.17779  0.70373  0.54132  1.0000
  H   H1652     1.0  0.48512  0.70377  0.59503  1.0000
  C   C929      1.0  0.42353  0.93083  0.80994  1.0000
  H   H1653     1.0  0.06770  0.70650  0.94001  1.0000
  H   H1654     1.0  0.11476  0.83274  0.64715  1.0000
  C   C930      1.0  0.09076  0.80245  0.56284  1.0000
  C   C931      1.0  0.20283  0.78100  0.74256  1.0000
  H   H1655     1.0  0.16679  0.75094  0.71631  1.0000
  H   H1656     1.0  0.45371  0.73230  0.96423  1.0000
  C   C932      1.0  0.10091  0.78744  0.88528  1.0000
  C   C933      1.0  0.12647  0.82433  0.73034  1.0000
  H   H1657     1.0  0.49879  0.75098  0.96828  1.0000
  C   C934      1.0  0.08887  0.78146  0.54647  1.0000
  Fe  Fe96      1.0  0.27837  0.69776  0.64919  1.0000
  S   S199      1.0  0.38504  0.92549  0.73072  1.0000
  N   N54       1.0  0.43748  0.70960  0.92654  1.0000
  C   C935      1.0  0.11936  0.85074  0.65249  1.0000
  Fe  Fe97      1.0  0.26646  0.74229  0.59617  1.0000
  H   H1658     1.0  0.41078  0.74074  0.65282  1.0000
  C   C936      1.0  0.24444  0.79551  0.64327  1.0000
  H   H1659     1.0  0.44150  0.81656  0.87946  1.0000
  H   H1660     1.0  0.21412  0.81949  0.92316  1.0000
  S   S200      1.0  0.10644  0.72491  0.71257  1.0000
  C   C937      1.0  0.08268  0.90953  0.66531  1.0000
  H   H1661     1.0  0.46018  0.77241  0.77898  1.0000
  C   C938      1.0  0.25776  0.91148  0.71613  1.0000
  H   H1662     1.0  0.22523  0.70297  0.97482  1.0000
  C   C939      1.0  0.42798  0.80496  0.91827  1.0000
  H   H1663     1.0  0.28052  0.79397  0.62607  1.0000
  C   C940      1.0  0.31353  0.80615  0.70531  1.0000
  H   H1664     1.0  0.16745  0.89354  0.95855  1.0000
  C   C941      1.0  0.25759  0.87325  0.67492  1.0000
  Fe  Fe98      1.0  0.06690  0.74548  0.78692  1.0000
  H   H1665     1.0  0.47831  0.88454  0.87140  1.0000
  S   S201      1.0  0.30717  0.77481  0.57733  1.0000
  C   C942      1.0  0.39642  0.90265  0.95608  1.0000
  H   H1666     1.0  0.12270  0.81854  0.77087  1.0000
  C   C943      1.0  0.41296  0.80859  0.80217  1.0000
  H   H1667     1.0  0.39645  0.82245  0.58496  1.0000
  H   H1668     1.0  0.36898  0.78979  0.60520  1.0000
  C   C944      1.0  0.49409  0.89268  0.59857  1.0000
  H   H1669     1.0  0.46295  0.73989  0.52060  1.0000
  H   H1670     1.0  0.27232  0.74223  0.80127  1.0000
  C   C945      1.0  0.18735  0.75762  0.69504  1.0000
  H   H1671     1.0  0.46491  0.90701  0.91327  1.0000
  H   H1672     1.0  0.09350  0.83043  0.73308  1.0000
  H   H1673     1.0  0.17834  0.80939  0.75737  1.0000
  H   H1674     1.0  0.20413  0.83706  0.84695  1.0000
  C   C946      1.0  0.08647  0.89574  0.63462  1.0000
  C   C947      1.0  0.45569  0.71763  0.95372  1.0000
  H   H1675     1.0  0.11121  0.81456  0.55969  1.0000
  C   C948      1.0  0.44938  0.92139  0.64903  1.0000
  H   H1676     1.0  0.20538  0.74625  0.50607  1.0000
  C   C949      1.0  0.15371  0.87736  0.95257  1.0000
  C   C950      1.0  0.08362  0.77062  0.87078  1.0000
  S   S202      1.0  0.15619  0.93829  0.66448  1.0000
  H   H1677     1.0  0.21933  0.85286  0.90652  1.0000
  H   H1678     1.0  0.45176  0.75220  0.88214  1.0000
  C   C951      1.0  0.12241  0.88466  0.57409  1.0000
  H   H1679     1.0  0.03663  0.87439  0.96681  1.0000
  C   C952      1.0  0.24254  0.87493  0.80180  1.0000
  H   H1680     1.0  0.45804  0.72069  0.58586  1.0000
  C   C953      1.0  0.20264  0.69847  0.61165  1.0000
  H   H1681     1.0  0.34632  0.69545  0.70556  1.0000
  H   H1682     1.0  0.25538  0.83653  0.53208  1.0000
  H   H1683     1.0  0.23505  0.75517  0.69389  1.0000
  H   H1684     1.0  0.12088  0.89595  0.64992  1.0000
  H   H1685     1.0  0.26267  0.74775  0.94760  1.0000
  H   H1686     1.0  0.39327  0.69922  0.64519  1.0000
  C   C954      1.0  0.25447  0.86773  0.72998  1.0000
  S   S203      1.0  0.31519  0.76134  0.71275  1.0000
  H   H1687     1.0  0.42211  0.72048  0.49642  1.0000
  S   S204      1.0  0.03262  0.90793  0.53584  1.0000
  C   C955      1.0  0.40980  0.69835  0.96093  1.0000
  C   C956      1.0  0.02366  0.77310  0.52456  1.0000
  H   H1688     1.0  0.20445  0.73839  0.66306  1.0000
  S   S205      1.0  0.16001  0.80008  0.67332  1.0000
  H   H1689     1.0  0.40682  0.82660  0.90542  1.0000
  Fe  Fe99      1.0  0.45789  0.78643  0.64832  1.0000
  S   S206      1.0  0.04464  0.75705  0.83185  1.0000
  S   S207      1.0  0.38799  0.91239  0.61158  1.0000
  H   H1690     1.0  0.25444  0.91697  0.68001  1.0000
  H   H1691     1.0  0.37339  0.75587  0.56333  1.0000
  H   H1692     1.0  0.07740  0.79212  0.60276  1.0000
  H   H1693     1.0  0.20743  0.90221  0.75560  1.0000
  S   S208      1.0  0.10451  0.74786  0.79259  1.0000
  H   H1694     1.0  0.03457  0.79817  0.65712  1.0000
  H   H1695     1.0  0.45614  0.94035  0.90179  1.0000
  C   C957      1.0  0.19884  0.72659  0.53673  1.0000
  S   S209      1.0  0.33104  0.87849  0.83147  1.0000
  H   H1696     1.0  0.22295  0.81040  0.54477  1.0000
  H   H1697     1.0  0.08441  0.71046  0.51451  1.0000
  H   H1698     1.0  0.48914  0.77211  0.75236  1.0000
  H   H1699     1.0  0.06766  0.76730  0.55721  1.0000
  S   S210      1.0  0.46028  0.78447  0.93851  1.0000
  C   C958      1.0  0.17634  0.79336  0.79277  1.0000
  H   H1700     1.0  0.30039  0.91836  0.97170  1.0000
  Fe  Fe100     1.0  0.13674  0.91788  0.74895  1.0000
  H   H1701     1.0  0.17750  0.84605  0.96630  1.0000
  S   S211      1.0  0.43010  0.75246  0.72576  1.0000
  H   H1702     1.0  0.40068  0.84475  0.63240  1.0000
  C   C959      1.0  0.17462  0.74089  0.63389  1.0000
  H   H1703     1.0  0.37449  0.81630  0.84762  1.0000
  C   C960      1.0  0.23677  0.83249  0.52514  1.0000
  H   H1704     1.0  0.50757  0.74731  0.54335  1.0000
  N   N55       1.0  0.20403  0.76086  0.72686  1.0000
  H   H1705     1.0  0.09043  0.86780  0.69525  1.0000
  C   C961      1.0  0.46456  0.73987  0.82926  1.0000
  S   S212      1.0  0.32873  0.90039  0.71694  1.0000
  C   C962      1.0  0.10139  0.88078  0.65391  1.0000
  H   H1706     1.0  0.45257  0.81671  0.79679  1.0000
  H   H1707     1.0  0.13782  0.85984  0.55899  1.0000
  H   H1708     1.0  0.28303  0.81956  0.64323  1.0000
  Fe  Fe101     1.0  0.34490  0.91831  0.76429  1.0000
  H   H1709     1.0  0.31133  0.80625  0.91824  1.0000
  H   H1710     1.0  0.19439  0.87200  0.81475  1.0000
  H   H1711     1.0  0.21224  0.69634  0.63885  1.0000
  H   H1712     1.0  0.35001  0.70065  0.77446  1.0000
  Fe  Fe102     1.0  0.02317  0.82793  0.51345  1.0000
  H   H1713     1.0  0.08567  0.75429  0.86983  1.0000
  H   H1714     1.0  0.29064  0.86642  0.66183  1.0000
  H   H1715     1.0  0.27205  0.86218  0.62154  1.0000
  C   C963      1.0  0.42918  0.69905  0.56030  1.0000
  C   C964      1.0  0.33243  0.79756  0.86834  1.0000
  H   H1716     1.0  0.26980  0.89507  0.64734  1.0000
  H   H1717     1.0  0.40862  0.92465  0.92971  1.0000
  H   H1718     1.0  0.38897  0.70769  0.82923  1.0000
  H   H1719     1.0  0.12455  0.86006  0.71356  1.0000
  H   H1720     1.0  0.02140  0.72633  0.95603  1.0000
  H   H1721     1.0  0.48995  0.71856  0.91112  1.0000
  H   H1722     1.0  0.46779  0.69724  0.72073  1.0000
  H   H1723     1.0  0.11209  0.86036  0.53558  1.0000
  H   H1724     1.0  0.34551  0.76315  0.78542  1.0000
  H   H1725     1.0  0.42653  0.73179  0.86851  1.0000
  H   H1726     1.0  0.35757  0.78149  0.89058  1.0000
  H   H1727     1.0  0.38109  0.76798  0.84857  1.0000
  H   H1728     1.0  0.21824  0.93076  0.86070  1.0000
  H   H1729     1.0  0.07700  0.92149  0.86393  1.0000
  H   H1730     1.0  0.06663  0.88148  0.63855  1.0000
  H   H1731     1.0  0.23701  0.78826  0.61750  1.0000
  H   H1732     1.0  0.38943  0.77842  0.78314  1.0000
  H   H1733     1.0  0.09744  0.91164  0.59455  1.0000
  C   C965      1.0  0.34049  0.76738  0.81686  1.0000
  C   C966      1.0  0.39010  0.84301  0.66794  1.0000
  H   H1734     1.0  0.40294  0.86087  0.67084  1.0000
  C   C967      1.0  0.40957  0.70324  0.53521  1.0000
  H   H1735     1.0  0.38140  0.85509  0.50638  1.0000
  C   C968      1.0  0.40854  0.81081  0.93311  1.0000
  C   C969      1.0  0.38629  0.78518  0.81154  1.0000
  Fe  Fe103     1.0  0.11952  0.91970  0.84627  1.0000
  H   H1736     1.0  0.03397  0.75278  0.97276  1.0000
  C   C970      1.0  0.18523  0.73687  0.67673  1.0000
  C   C971      1.0  0.16532  0.76944  0.50472  1.0000
  C   C972      1.0  0.38360  0.81684  0.71325  1.0000
  H   H1737     1.0  0.43361  0.93138  0.50679  1.0000
  H   H1738     1.0  0.33188  0.79385  0.94246  1.0000
  C   C973      1.0  0.41440  0.77086  0.52548  1.0000
  H   H1739     1.0  0.07073  0.91884  0.65299  1.0000
  H   H1740     1.0  0.39563  0.69201  0.94255  1.0000
  H   H1741     1.0  0.28768  0.72481  0.87267  1.0000
  H   H1742     1.0  0.31492  0.77739  0.88382  1.0000
  C   C974      1.0  0.37142  0.81565  0.76353  1.0000
  H   H1743     1.0  0.15174  0.79762  0.58418  1.0000
  H   H1744     1.0  0.39943  0.86766  0.96209  1.0000
  C   C975      1.0  0.36809  0.88869  0.55729  1.0000
  S   S213      1.0  0.27994  0.82342  0.80409  1.0000
  H   H1745     1.0  0.36975  0.79971  0.70964  1.0000
  C   C976      1.0  0.43410  0.80059  0.79992  1.0000
  H   H1746     1.0  0.34646  0.82803  0.89251  1.0000
  Fe  Fe104     1.0  0.07891  0.88274  0.82017  1.0000
  C   C977      1.0  0.30302  0.71899  0.86981  1.0000
  H   H1747     1.0  0.17404  0.70307  0.87820  1.0000
  H   H1748     1.0  0.27002  0.70853  0.97039  1.0000
  H   H1749     1.0  0.35344  0.87204  0.51097  1.0000
  N   N56       1.0  0.24242  0.88129  0.74924  1.0000
  H   H1750     1.0  0.17888  0.93412  0.58003  1.0000
  H   H1751     1.0  0.17137  0.71610  0.70837  1.0000
  H   H1752     1.0  0.42786  0.78175  0.83481  1.0000
  C   C978      1.0  0.37230  0.89153  0.94229  1.0000
  C   C979      1.0  0.05971  0.79463  0.86374  1.0000
  C   C980      1.0  0.19258  0.93755  0.59919  1.0000
  Fe  Fe105     1.0  0.31777  0.86104  0.78142  1.0000
  C   C981      1.0  0.47271  0.86874  0.91037  1.0000
  S   S214      1.0  0.31956  0.72703  0.63387  1.0000
  H   H1753     1.0  0.42319  0.70026  0.78652  1.0000
  H   H1754     1.0  0.41237  0.73760  0.94316  1.0000
  C   C982      1.0  0.27441  0.80909  0.62245  1.0000
  H   H1755     1.0  0.12375  0.74306  0.53190  1.0000
  H   H1756     1.0  0.43727  0.73425  0.57115  1.0000
  C   C983      1.0  0.44797  0.72503  0.55925  1.0000
  H   H1757     1.0  0.11277  0.89524  0.55474  1.0000
  C   C984      1.0  0.27057  0.85875  0.66047  1.0000
  C   C985      1.0  0.06381  0.77504  0.85761  1.0000
  C   C986      1.0  0.50162  0.73710  0.95617  1.0000
  C   C987      1.0  0.16804  0.82503  0.61274  1.0000
  H   H1758     1.0  0.07218  0.89460  0.70614  1.0000
  C   C988      1.0  0.44837  0.86441  0.94654  1.0000
  C   C989      1.0  0.05809  0.82390  0.68441  1.0000
  H   H1759     1.0  0.24234  0.84548  0.75382  1.0000
  H   H1760     1.0  0.20620  0.79914  0.70922  1.0000
  H   H1761     1.0  0.28719  0.75015  0.97586  1.0000
  N   N57       1.0  0.36412  0.79114  0.81193  1.0000
  C   C990      1.0  0.30632  0.82014  0.72647  1.0000
  C   C991      1.0  0.47069  0.69983  0.68193  1.0000
  S   S215      1.0  0.28071  0.71923  0.57019  1.0000
  C   C992      1.0  0.33160  0.88910  0.53246  1.0000
  C   C993      1.0  0.19038  0.86584  0.51238  1.0000
  H   H1762     1.0  0.25055  0.92133  0.73409  1.0000
  H   H1763     1.0  0.17977  0.79092  0.49115  1.0000
  H   H1764     1.0  0.13656  0.88009  0.95002  1.0000
  S   S216      1.0  0.48790  0.88644  0.54924  1.0000
  H   H1765     1.0  0.28239  0.82422  0.58187  1.0000
  H   H1766     1.0  0.29588  0.69946  0.90386  1.0000
  C   C994      1.0  0.12970  0.87267  0.54130  1.0000
  C   C995      1.0  0.38269  0.81805  0.52558  1.0000
  H   H1767     1.0  0.46169  0.92157  0.61732  1.0000
  H   H1768     1.0  0.24709  0.84784  0.89294  1.0000
  S   S217      1.0  0.15166  0.91364  0.81317  1.0000
  H   H1769     1.0  0.37190  0.84349  0.66569  1.0000
  H   H1770     1.0  0.11008  0.71692  0.88602  1.0000
  H   H1771     1.0  0.17211  0.83402  0.49433  1.0000
  H   H1772     1.0  0.11709  0.78493  0.89258  1.0000
  H   H1773     1.0  0.31326  0.90741  0.56092  1.0000
  C   C996      1.0  0.10314  0.79491  0.48844  1.0000
  Fe  Fe106     1.0  0.37054  0.88485  0.79469  1.0000
  C   C997      1.0  0.10756  0.71506  0.92418  1.0000
  C   C998      1.0  0.34501  0.90815  0.58653  1.0000
  H   H1774     1.0  0.48119  0.73721  0.83584  1.0000
  C   C999      1.0  0.41792  0.72310  0.72042  1.0000
  C   C1000     1.0  0.28789  0.92545  0.70262  1.0000
  C   C1001     1.0  0.07665  0.81111  0.87906  1.0000
  C   C1002     1.0  0.43189  0.78650  0.95461  1.0000
  H   H1775     1.0  0.15926  0.87580  0.78609  1.0000
  C   C1003     1.0  0.20838  0.73392  0.80940  1.0000
  H   H1776     1.0  0.14804  0.83545  0.70964  1.0000
  H   H1777     1.0  0.45202  0.89230  0.81701  1.0000
  C   C1004     1.0  0.40969  0.72282  0.68033  1.0000
  H   H1778     1.0  0.46702  0.85162  0.65639  1.0000
  C   C1005     1.0  0.45452  0.88980  0.95241  1.0000
  C   C1006     1.0  0.09801  0.80841  0.88749  1.0000
  S   S218      1.0  0.02834  0.79288  0.55504  1.0000
  H   H1779     1.0  0.20461  0.89317  0.54197  1.0000
  H   H1780     1.0  0.10825  0.70103  0.63564  1.0000
  C   C1007     1.0  0.18587  0.93938  0.64324  1.0000
  C   C1008     1.0  0.49698  0.69619  0.61265  1.0000
  Fe  Fe107     1.0  0.32108  0.74997  0.55630  1.0000
  H   H1781     1.0  0.22764  0.84165  0.54147  1.0000
  C   C1009     1.0  0.07733  0.93699  0.87239  1.0000
  C   C1010     1.0  0.44438  0.73378  0.87761  1.0000
  C   C1011     1.0  0.45010  0.90963  0.81255  1.0000
  Fe  Fe108     1.0  0.06859  0.72417  0.71152  1.0000
  H   H1782     1.0  0.14112  0.86414  0.63288  1.0000
  H   H1783     1.0  0.33132  0.81146  0.83452  1.0000
  H   H1784     1.0  0.19003  0.75934  0.59866  1.0000
  C   C1012     1.0  0.50818  0.90083  0.67645  1.0000
  C   C1013     1.0  0.03303  0.92487  0.73899  1.0000
  C   C1014     1.0  0.35112  0.88207  0.53190  1.0000
  H   H1785     1.0  0.17352  0.87748  0.72767  1.0000
  H   H1786     1.0  0.34265  0.83275  0.50153  1.0000
  C   C1015     1.0  0.23238  0.77138  0.69739  1.0000
  H   H1787     1.0  0.15704  0.74289  0.64324  1.0000
  C   C1016     1.0  0.48943  0.87528  0.68667  1.0000
  H   H1788     1.0  0.25884  0.76685  0.83801  1.0000
  S   S219      1.0  0.10773  0.87396  0.78545  1.0000
  H   H1789     1.0  0.22808  0.73724  0.79179  1.0000
  S   S220      1.0  0.31206  0.88246  0.49700  1.0000
  C   C1017     1.0  0.41299  0.88900  0.95151  1.0000
  Fe  Fe109     1.0  0.27268  0.93938  0.51765  1.0000
  H   H1790     1.0  0.16035  0.84696  0.78738  1.0000
  C   C1018     1.0  0.22506  0.84486  0.84303  1.0000
  H   H1791     1.0  0.07354  0.82649  0.88277  1.0000
  H   H1792     1.0  0.07105  0.85538  0.60726  1.0000
  C   C1019     1.0  0.42590  0.90831  0.81579  1.0000
  S   S221      1.0  0.12251  0.83318  0.89458  1.0000
  H   H1793     1.0  0.39734  0.81243  0.51487  1.0000
  H   H1794     1.0  0.20520  0.70778  0.88333  1.0000
  H   H1795     1.0  0.21553  0.87822  0.70923  1.0000
  S   S222      1.0  0.25476  0.89730  0.52940  1.0000
  C   C1020     1.0  0.41646  0.69991  0.75601  1.0000
  S   S223      1.0  0.48257  0.77872  0.59913  1.0000
  H   H1796     1.0  0.48754  0.78340  0.79899  1.0000
  H   H1797     1.0  0.35359  0.81708  0.76147  1.0000
  H   H1798     1.0  0.31916  0.70121  0.97429  1.0000
  H   H1799     1.0  0.23816  0.86554  0.67089  1.0000
  C   C1021     1.0  0.33045  0.80696  0.90782  1.0000
  H   H1800     1.0  0.34276  0.91845  0.60730  1.0000
  H   H1801     1.0  0.36364  0.81781  0.59332  1.0000
  H   H1802     1.0  0.46862  0.84979  0.90953  1.0000
  H   H1803     1.0  0.43871  0.87955  0.69374  1.0000
  C   C1022     1.0  0.19372  0.70702  0.85823  1.0000
  H   H1804     1.0  0.29684  0.91970  0.67738  1.0000
  C   C1023     1.0  0.02339  0.93138  0.50525  1.0000
  S   S224      1.0  0.03752  0.86012  0.82523  1.0000
  S   S225      1.0  0.49209  0.82380  0.63695  1.0000
  H   H1805     1.0  0.49172  0.71395  0.51635  1.0000
  Fe  Fe110     1.0  0.02385  0.87932  0.50368  1.0000
  Fe  Fe111     1.0  0.47411  0.80337  0.53654  1.0000
  C   C1024     1.0  0.36509  0.90186  0.58439  1.0000
  H   H1806     1.0  0.42744  0.89323  0.72916  1.0000
  S   S226      1.0  0.44687  0.80847  0.58673  1.0000
  H   H1807     1.0  0.40477  0.92983  0.81301  1.0000
  C   C1025     1.0  0.32849  0.90213  0.55987  1.0000
  S   S227      1.0  0.08264  0.76584  0.70214  1.0000
  H   H1808     1.0  0.04421  0.93544  0.85134  1.0000
  H   H1809     1.0  0.21905  0.78884  0.75600  1.0000
  H   H1810     1.0  0.23677  0.88717  0.81490  1.0000
  H   H1811     1.0  0.37819  0.89404  0.90365  1.0000
  H   H1812     1.0  0.06402  0.80945  0.70525  1.0000
  H   H1813     1.0  0.16367  0.87935  0.91612  1.0000
  H   H1814     1.0  0.31626  0.84193  0.70581  1.0000
  H   H1815     1.0  0.27394  0.87293  0.73370  1.0000
  C   C1026     1.0  0.44401  0.89776  0.69822  1.0000
  H   H1816     1.0  0.16894  0.72329  0.62726  1.0000
  Fe  Fe112     1.0  0.36781  0.90431  0.68896  1.0000
  S   S228      1.0  0.23856  0.75267  0.56400  1.0000
  Fe  Fe113     1.0  0.11997  0.87002  0.85211  1.0000
  Fe  Fe114     1.0  0.08867  0.70781  0.79628  1.0000
  C   C1027     1.0  0.19360  0.73380  0.77215  1.0000
  C   C1028     1.0  0.28134  0.76389  0.77984  1.0000
  H   H1817     1.0  0.38359  0.88376  0.55580  1.0000
  H   H1818     1.0  0.16634  0.75689  0.54043  1.0000
  C   C1029     1.0  0.22651  0.84116  0.89455  1.0000
  H   H1819     1.0  0.43030  0.91754  0.64485  1.0000
  H   H1820     1.0  0.40216  0.81636  0.71043  1.0000
  H   H1821     1.0  0.46157  0.90238  0.70914  1.0000
  S   S229      1.0  0.39859  0.87784  0.83026  1.0000
  H   H1822     1.0  0.32464  0.77222  0.81237  1.0000
  H   H1823     1.0  0.17386  0.75493  0.82098  1.0000
  H   H1824     1.0  0.26287  0.88092  0.80151  1.0000
  C   C1030     1.0  0.48547  0.73143  0.92382  1.0000
  H   H1825     1.0  0.01740  0.79158  0.71905  1.0000
  S   S230      1.0  0.50955  0.84207  0.51642  1.0000
  C   C1031     1.0  0.26595  0.73874  0.98309  1.0000
  H   H1826     1.0  0.06203  0.73258  0.97560  1.0000
  H   H1827     1.0  0.01959  0.75048  0.70776  1.0000
  H   H1828     1.0  0.01369  0.90206  0.94267  1.0000
  H   H1829     1.0  0.45834  0.69346  0.89578  1.0000
  H   H1830     1.0  0.23661  0.69123  0.54074  1.0000
  C   C1032     1.0  0.01232  0.91359  0.72397  1.0000
  H   H1831     1.0  0.44121  0.69341  0.54020  1.0000
  H   H1832     1.0  0.14647  0.80722  0.97491  1.0000
  C   C1033     1.0  0.39354  0.84833  0.48992  1.0000
  N   N58       1.0  0.43142  0.89021  0.98028  1.0000
  H   H1833     1.0  0.41311  0.85928  0.49177  1.0000
  C   C1034     1.0  0.21693  0.93978  0.58027  1.0000
  H   H1834     1.0  0.08955  0.91400  0.49539  1.0000
  H   H1835     1.0  0.16881  0.90738  0.49189  1.0000
  C   C1035     1.0  0.15017  0.89496  0.48887  1.0000
  H   H1836     1.0  0.36485  0.70351  0.97571  1.0000
  C   C1036     1.0  0.38295  0.76909  0.48359  1.0000
  C   C1037     1.0  0.29627  0.88177  0.30336  1.0000
  H   H1837     1.0  0.41772  0.69204  0.46202  1.0000
  H   H1838     1.0  0.38926  0.89992  0.99447  1.0000
  H   H1839     1.0  0.12003  0.79766  0.06589  1.0000
  H   H1840     1.0  0.25487  0.74075  0.01282  1.0000
  H   H1841     1.0  0.40737  0.80534  0.17262  1.0000
  C   C1038     1.0  0.42412  0.85980  0.35611  1.0000
  S   S231      1.0  0.19445  0.87434  0.21285  1.0000
  H   H1842     1.0  0.06710  0.86774  0.00141  1.0000
  H   H1843     1.0  0.31655  0.77650  0.38598  1.0000
  H   H1844     1.0  0.09827  0.77613  0.01904  1.0000
  H   H1845     1.0  0.28667  0.83706  0.08826  1.0000
  C   C1039     1.0  0.46430  0.84935  0.12587  1.0000
  H   H1846     1.0  0.24457  0.78360  0.44220  1.0000
  H   H1847     1.0  0.37380  0.74447  0.21347  1.0000
  C   C1040     1.0  0.43605  0.72024  0.18424  1.0000
  C   C1041     1.0  0.39331  0.86260  0.06762  1.0000
  H   H1848     1.0  0.33430  0.93231  0.06138  1.0000
  H   H1849     1.0  0.43643  0.70100  0.25862  1.0000
  H   H1850     1.0  0.17781  0.93463  0.98519  1.0000
  H   H1851     1.0  0.07707  0.81818  0.05363  1.0000
  H   H1852     1.0  0.16018  0.74039  0.19966  1.0000
  S   S232      1.0  0.50478  0.88033  0.00484  1.0000
  Fe  Fe115     1.0  0.29282  0.72206  0.13133  1.0000
  H   H1853     1.0  0.19300  0.72800  0.23244  1.0000
  Fe  Fe116     1.0  0.05967  0.77973  0.25889  1.0000
  Fe  Fe117     1.0  0.04190  0.72194  0.28581  1.0000
  C   C1042     1.0  0.21583  0.76013  0.04415  1.0000
  H   H1854     1.0  0.02575  0.80931  0.13270  1.0000
  S   S233      1.0  0.02018  0.74220  0.30159  1.0000
  C   C1043     1.0  0.30862  0.76107  0.33402  1.0000
  C   C1044     1.0  0.13877  0.89070  0.31741  1.0000
  H   H1855     1.0  0.03252  0.80557  0.05350  1.0000
  C   C1045     1.0  0.21241  0.72920  0.31244  1.0000
  C   C1046     1.0  0.05740  0.83369  0.31098  1.0000
  C   C1047     1.0  0.15169  0.81037  0.18563  1.0000
  N   N59       1.0  0.21920  0.77549  0.25083  1.0000
  H   H1856     1.0  0.07194  0.73709  0.42195  1.0000
  C   C1048     1.0  0.31729  0.78143  0.34770  1.0000
  C   C1049     1.0  0.25532  0.77857  0.37859  1.0000
  C   C1050     1.0  0.35581  0.73616  0.31149  1.0000
  S   S234      1.0  0.46425  0.89865  0.17349  1.0000
  H   H1857     1.0  0.23846  0.83800  0.33908  1.0000
  S   S235      1.0  0.25608  0.78351  0.07379  1.0000
  H   H1858     1.0  0.11064  0.91828  0.24257  1.0000
  C   C1051     1.0  0.29895  0.90434  0.12834  1.0000
  C   C1052     1.0  0.10830  0.94037  0.41411  1.0000
  H   H1859     1.0  0.37720  0.80174  0.23839  1.0000
  H   H1860     1.0  0.23900  0.75749  0.39539  1.0000
  H   H1861     1.0  0.44372  0.79424  0.40002  1.0000
  H   H1862     1.0  0.01299  0.86923  0.08343  1.0000
  H   H1863     1.0  0.18407  0.74047  0.02227  1.0000
  H   H1864     1.0  0.13084  0.83428  0.98826  1.0000
  C   C1053     1.0  0.40273  0.77939  0.43781  1.0000
  H   H1865     1.0  0.21642  0.69462  0.03929  1.0000
  H   H1866     1.0  0.38792  0.71856  0.10701  1.0000
  H   H1867     1.0  0.44229  0.84676  0.98343  1.0000
  H   H1868     1.0  0.10387  0.74937  0.05578  1.0000
  C   C1054     1.0  0.07469  0.69367  0.01212  1.0000
  H   H1869     1.0  0.12185  0.81367  0.47668  1.0000
  Fe  Fe118     1.0  0.40618  0.93294  0.22102  1.0000
  H   H1870     1.0  0.10636  0.82540  0.32866  1.0000
  H   H1871     1.0  0.14982  0.80240  0.44897  1.0000
  H   H1872     1.0  0.25623  0.81155  0.22661  1.0000
  H   H1873     1.0  0.23770  0.87440  0.38565  1.0000
  C   C1055     1.0  0.38221  0.71170  0.46281  1.0000
  H   H1874     1.0  0.16849  0.83033  0.17486  1.0000
  H   H1875     1.0  0.42181  0.71048  0.36350  1.0000
  H   H1876     1.0  0.41044  0.84704  0.02985  1.0000
  H   H1877     1.0  0.17315  0.80169  0.13854  1.0000
  C   C1056     1.0  0.39606  0.77987  0.27668  1.0000
  C   C1057     1.0  0.43002  0.71659  0.14426  1.0000
  H   H1878     1.0  0.37518  0.81962  0.11796  1.0000
  H   H1879     1.0  0.15078  0.79496  0.22049  1.0000
  H   H1880     1.0  0.44725  0.84001  0.16084  1.0000
  Fe  Fe119     1.0  0.33731  0.78004  0.07345  1.0000
  H   H1881     1.0  0.39287  0.70925  0.43352  1.0000
  H   H1882     1.0  0.04843  0.91427  0.07917  1.0000
  C   C1058     1.0  0.22254  0.70976  0.31531  1.0000
  C   C1059     1.0  0.36982  0.84081  0.43189  1.0000
  H   H1883     1.0  0.24913  0.88288  0.32095  1.0000
  H   H1884     1.0  0.10465  0.83312  0.23213  1.0000
  H   H1885     1.0  0.07040  0.70497  0.44628  1.0000
  H   H1886     1.0  0.11400  0.72709  0.27211  1.0000
  C   C1060     1.0  0.14965  0.87844  0.11300  1.0000
  H   H1887     1.0  0.37031  0.72366  0.15238  1.0000
  H   H1888     1.0  0.20868  0.84193  0.06890  1.0000
  C   C1061     1.0  0.19876  0.74879  0.20462  1.0000
  H   H1889     1.0  0.45416  0.91410  0.01043  1.0000
  H   H1890     1.0  0.04918  0.80641  0.44987  1.0000
  H   H1891     1.0  0.45804  0.83998  0.10208  1.0000
  C   C1062     1.0  0.23099  0.75753  0.26577  1.0000
  C   C1063     1.0  0.21118  0.83859  0.03567  1.0000
  H   H1892     1.0  0.33036  0.91928  0.28505  1.0000
  H   H1893     1.0  0.21871  0.75787  0.17744  1.0000
  H   H1894     1.0  0.25104  0.84729  0.02950  1.0000
  C   C1064     1.0  0.04869  0.82542  0.02290  1.0000
  H   H1895     1.0  0.26554  0.90408  0.00177  1.0000
  H   H1896     1.0  0.39350  0.72672  0.26213  1.0000
  H   H1897     1.0  0.12020  0.86500  0.39813  1.0000
  C   C1065     1.0  0.13319  0.87404  0.08575  1.0000
  H   H1898     1.0  0.41662  0.79366  0.24879  1.0000
  C   C1066     1.0  0.09449  0.87628  0.36639  1.0000
  H   H1899     1.0  0.38235  0.78485  0.12369  1.0000
  H   H1900     1.0  0.18792  0.76627  0.14148  1.0000
  C   C1067     1.0  0.24093  0.80356  0.21130  1.0000
  H   H1901     1.0  0.17197  0.84477  0.08562  1.0000
  H   H1902     1.0  0.05972  0.82560  0.34791  1.0000
  H   H1903     1.0  0.07838  0.90311  0.20359  1.0000
  H   H1904     1.0  0.47960  0.80261  0.23403  1.0000
  C   C1068     1.0  0.02220  0.75126  0.14373  1.0000
  H   H1905     1.0  0.40774  0.69782  0.32440  1.0000
  H   H1906     1.0  0.13933  0.72193  0.39745  1.0000
  C   C1069     1.0  0.23745  0.84098  0.37301  1.0000
  S   S236      1.0  0.05463  0.87145  0.47254  1.0000
  H   H1907     1.0  0.37204  0.72025  0.01307  1.0000
  C   C1070     1.0  0.30298  0.69308  0.05100  1.0000
  C   C1071     1.0  0.14447  0.84954  0.99622  1.0000
  C   C1072     1.0  0.03090  0.76869  0.44840  1.0000
  H   H1908     1.0  0.04500  0.82872  0.98721  1.0000
  H   H1909     1.0  0.36377  0.81926  0.44518  1.0000
  H   H1910     1.0  0.30937  0.87411  0.29417  1.0000
  C   C1073     1.0  0.41503  0.77231  0.00522  1.0000
  C   C1074     1.0  0.37516  0.70614  0.00208  1.0000
  H   H1911     1.0  0.09101  0.84313  0.98739  1.0000
  C   C1075     1.0  0.07376  0.82367  0.01730  1.0000
  H   H1912     1.0  0.26273  0.73035  0.42653  1.0000
  H   H1913     1.0  0.02974  0.91962  0.04041  1.0000
  H   H1914     1.0  0.36534  0.83730  0.14462  1.0000
  H   H1915     1.0  0.17798  0.73128  0.16355  1.0000
  C   C1076     1.0  0.31241  0.91251  0.27586  1.0000
  H   H1916     1.0  0.23855  0.75465  0.23402  1.0000
  H   H1917     1.0  0.28065  0.72454  0.46784  1.0000
  H   H1918     1.0  0.40416  0.77152  0.11952  1.0000
  H   H1919     1.0  0.29283  0.85276  0.23242  1.0000
  S   S237      1.0  0.32973  0.74385  0.14235  1.0000
  H   H1920     1.0  0.22657  0.81209  0.06598  1.0000
  C   C1077     1.0  0.44258  0.91547  0.98527  1.0000
  C   C1078     1.0  0.07992  0.89194  0.18303  1.0000
  H   H1921     1.0  0.22394  0.78442  0.31197  1.0000
  H   H1922     1.0  0.17070  0.76339  0.47647  1.0000
  C   C1079     1.0  0.10353  0.93406  0.09717  1.0000
  H   H1923     1.0  0.35592  0.71414  0.10986  1.0000
  H   H1924     1.0  0.24869  0.76740  0.27429  1.0000
  H   H1925     1.0  0.18039  0.79630  0.07062  1.0000
  H   H1926     1.0  0.48739  0.76414  0.26351  1.0000
  C   C1080     1.0  0.24709  0.79348  0.40178  1.0000
  H   H1927     1.0  0.12655  0.81229  0.31033  1.0000
  H   H1928     1.0  0.11125  0.77583  0.39770  1.0000
  C   C1081     1.0  0.37983  0.76217  0.22012  1.0000
  H   H1929     1.0  0.45135  0.86245  0.29557  1.0000
  C   C1082     1.0  0.23273  0.83121  0.03192  1.0000
  H   H1930     1.0  0.23713  0.80938  0.46601  1.0000
  H   H1931     1.0  0.20602  0.87888  0.34787  1.0000
  N   N60       1.0  0.39597  0.85579  0.43582  1.0000
  C   C1083     1.0  0.22224  0.73022  0.11194  1.0000
  S   S238      1.0  0.18349  0.90090  0.08088  1.0000
  H   H1932     1.0  0.27997  0.88379  0.37007  1.0000
  H   H1933     1.0  0.49327  0.87427  0.16533  1.0000
  H   H1934     1.0  0.43452  0.83046  0.35208  1.0000
  C   C1084     1.0  0.20831  0.77723  0.29690  1.0000
  S   S239      1.0  0.04922  0.71211  0.35822  1.0000
  H   H1935     1.0  0.44797  0.89779  0.39391  1.0000
  H   H1936     1.0  0.28797  0.91370  0.11416  1.0000
  H   H1937     1.0  0.42031  0.75754  0.24828  1.0000
  C   C1085     1.0  0.39848  0.82204  0.27480  1.0000
  C   C1086     1.0  0.41466  0.84837  0.41419  1.0000
  C   C1087     1.0  0.02338  0.71195  0.19874  1.0000
  H   H1938     1.0  0.14875  0.82096  0.37041  1.0000
  H   H1939     1.0  0.35175  0.69773  0.31824  1.0000
  H   H1940     1.0  0.08874  0.93393  0.41052  1.0000
  H   H1941     1.0  0.14336  0.92866  0.05245  1.0000
  S   S240      1.0  0.12196  0.75371  0.33290  1.0000
  H   H1942     1.0  0.33561  0.71077  0.27989  1.0000
  H   H1943     1.0  0.02876  0.82504  0.27626  1.0000
  S   S241      1.0  0.30234  0.74229  0.26675  1.0000
  H   H1944     1.0  0.39787  0.77422  0.31435  1.0000
  H   H1945     1.0  0.40705  0.93251  0.45267  1.0000
  S   S242      1.0  0.31695  0.79339  0.11739  1.0000
  C   C1088     1.0  0.43391  0.90449  0.40213  1.0000
  H   H1946     1.0  0.14120  0.88539  0.04493  1.0000
  C   C1089     1.0  0.40177  0.78751  0.12439  1.0000
  H   H1947     1.0  0.09376  0.85129  0.09018  1.0000
  H   H1948     1.0  0.39595  0.72992  0.46332  1.0000
  C   C1090     1.0  0.15678  0.82451  0.09354  1.0000
  C   C1091     1.0  0.20100  0.70805  0.11590  1.0000
  H   H1949     1.0  0.08784  0.92562  0.08335  1.0000
  C   C1092     1.0  0.01922  0.85694  0.00078  1.0000
  H   H1950     1.0  0.43322  0.90525  0.43806  1.0000
  C   C1093     1.0  0.15507  0.80315  0.14330  1.0000
  S   S243      1.0  0.49113  0.77040  0.04367  1.0000
  H   H1951     1.0  0.04707  0.90585  0.98703  1.0000
  H   H1952     1.0  0.30069  0.92126  0.28606  1.0000
  H   H1953     1.0  0.43753  0.73044  0.29591  1.0000
  Fe  Fe120     1.0  0.30622  0.75493  0.18570  1.0000
  H   H1954     1.0  0.35067  0.86286  0.44576  1.0000
  C   C1094     1.0  0.19724  0.76507  0.23226  1.0000
  C   C1095     1.0  0.18002  0.74661  0.17566  1.0000
  C   C1096     1.0  0.01266  0.69891  0.17238  1.0000
  H   H1955     1.0  0.10822  0.73681  0.45457  1.0000
  C   C1097     1.0  0.41817  0.71628  0.32760  1.0000
  H   H1956     1.0  0.40393  0.81732  0.30875  1.0000
  C   C1098     1.0  0.05091  0.90070  0.02263  1.0000
  C   C1099     1.0  0.19472  0.73768  0.04735  1.0000
  H   H1957     1.0  0.07816  0.86379  0.40183  1.0000
  S   S244      1.0  0.37318  0.80992  0.00351  1.0000
  H   H1958     1.0  0.47585  0.84046  0.21411  1.0000
  H   H1959     1.0  0.26072  0.78857  0.33692  1.0000
  H   H1960     1.0  0.07337  0.83625  0.28185  1.0000
  H   H1961     1.0  0.13807  0.78294  0.15637  1.0000
  Fe  Fe121     1.0  0.03142  0.73633  0.36980  1.0000
  S   S245      1.0  0.28801  0.92393  0.40914  1.0000
  H   H1962     1.0  0.39831  0.78314  0.40369  1.0000
  H   H1963     1.0  0.50504  0.86903  0.31327  1.0000
  C   C1100     1.0  0.11202  0.76816  0.01943  1.0000
  H   H1964     1.0  0.49574  0.71800  0.98985  1.0000
  H   H1965     1.0  0.07149  0.90476  0.01384  1.0000
  H   H1966     1.0  0.04021  0.86728  0.09404  1.0000
  H   H1967     1.0  0.17357  0.80576  0.33315  1.0000
  C   C1101     1.0  0.48672  0.84563  0.13857  1.0000
  H   H1968     1.0  0.33925  0.93881  0.33516  1.0000
  H   H1969     1.0  0.06198  0.88435  0.17390  1.0000
  H   H1970     1.0  0.13397  0.77762  0.08987  1.0000
  H   H1971     1.0  0.40465  0.89127  0.36881  1.0000
  H   H1972     1.0  0.37031  0.73664  0.41308  1.0000
  S   S246      1.0  0.06266  0.81559  0.19625  1.0000
  C   C1102     1.0  0.04846  0.92002  0.04025  1.0000
  C   C1103     1.0  0.16811  0.84548  0.00161  1.0000
  H   H1973     1.0  0.12110  0.92889  0.01994  1.0000
  H   H1974     1.0  0.37154  0.84876  0.39160  1.0000
  C   C1104     1.0  0.13486  0.78082  0.46459  1.0000
  N   N61       1.0  0.26041  0.84166  0.38867  1.0000
  S   S247      1.0  0.40937  0.89715  0.26550  1.0000
  H   H1975     1.0  0.19187  0.84453  0.39529  1.0000
  C   C1105     1.0  0.11258  0.90626  0.27628  1.0000
  C   C1106     1.0  0.05109  0.84845  0.03476  1.0000
  H   H1976     1.0  0.03093  0.79648  0.31590  1.0000
  C   C1107     1.0  0.10776  0.78776  0.41479  1.0000
  H   H1977     1.0  0.27012  0.83134  0.45596  1.0000
  H   H1978     1.0  0.48207  0.71141  0.16591  1.0000
  H   H1979     1.0  0.40521  0.82612  0.43101  1.0000
  H   H1980     1.0  0.40716  0.85158  0.34483  1.0000
  C   C1108     1.0  0.49933  0.80651  0.23477  1.0000
  H   H1981     1.0  0.43219  0.85422  0.42525  1.0000
  H   H1982     1.0  0.30023  0.86950  0.37645  1.0000
  Fe  Fe122     1.0  0.47466  0.78190  0.09672  1.0000
  C   C1109     1.0  0.13547  0.71509  0.37025  1.0000
  H   H1983     1.0  0.15162  0.91619  0.23727  1.0000
  C   C1110     1.0  0.19577  0.79542  0.28949  1.0000
  C   C1111     1.0  0.12603  0.72683  0.33486  1.0000
  H   H1984     1.0  0.12213  0.91635  0.14552  1.0000
  S   S248      1.0  0.45104  0.75243  0.17850  1.0000
  C   C1112     1.0  0.32777  0.88073  0.16562  1.0000
  H   H1985     1.0  0.04022  0.77783  0.40807  1.0000
  H   H1986     1.0  0.39797  0.88056  0.07266  1.0000
  C   C1113     1.0  0.10455  0.90981  0.13502  1.0000
  H   H1987     1.0  0.36328  0.78428  0.30639  1.0000
  C   C1114     1.0  0.26200  0.72402  0.46597  1.0000
  C   C1115     1.0  0.18517  0.81614  0.04017  1.0000
  Fe  Fe123     1.0  0.37133  0.87270  0.26025  1.0000
  H   H1988     1.0  0.27019  0.93772  0.32052  1.0000
  H   H1989     1.0  0.25640  0.86651  0.45072  1.0000
  H   H1990     1.0  0.47097  0.87118  0.10438  1.0000
  H   H1991     1.0  0.49165  0.72836  0.22486  1.0000
  C   C1116     1.0  0.09597  0.84006  0.16419  1.0000
  H   H1992     1.0  0.19712  0.79919  0.35723  1.0000
  H   H1993     1.0  0.23334  0.81777  0.20121  1.0000
  C   C1117     1.0  0.10632  0.85490  0.11133  1.0000
  H   H1994     1.0  0.26176  0.70147  0.03508  1.0000
  H   H1995     1.0  0.14133  0.84664  0.29762  1.0000
  H   H1996     1.0  0.43431  0.73372  0.10966  1.0000
  H   H1997     1.0  0.18962  0.81475  0.00489  1.0000
  C   C1118     1.0  0.13916  0.78925  0.01201  1.0000
  Fe  Fe124     1.0  0.50133  0.84094  0.01660  1.0000
  C   C1119     1.0  0.22796  0.69256  0.01021  1.0000
  C   C1120     1.0  0.32113  0.82615  0.45408  1.0000
  H   H1998     1.0  0.13795  0.82462  0.10214  1.0000
  Fe  Fe125     1.0  0.08672  0.75170  0.31378  1.0000
  C   C1121     1.0  0.08833  0.72876  0.48100  1.0000
  H   H1999     1.0  0.22174  0.78029  0.01620  1.0000
  C   C1122     1.0  0.50774  0.73715  0.18863  1.0000
  S   S249      1.0  0.06373  0.89472  0.32798  1.0000
  H   H2000     1.0  0.49963  0.80502  0.27193  1.0000
  H   H2001     1.0  0.42688  0.91744  0.00530  1.0000
  C   C1123     1.0  0.13788  0.79592  0.05629  1.0000
  Fe  Fe126     1.0  0.42825  0.90193  0.19083  1.0000
  C   C1124     1.0  0.04280  0.72104  0.00704  1.0000
  H   H2002     1.0  0.18301  0.86381  0.00090  1.0000
  H   H2003     1.0  0.19525  0.78210  0.20708  1.0000
  C   C1125     1.0  0.32018  0.79426  0.24824  1.0000
  H   H2004     1.0  0.02549  0.77123  0.13364  1.0000
  C   C1126     1.0  0.27818  0.83513  0.12556  1.0000
  C   C1127     1.0  0.03590  0.78487  0.47210  1.0000
  H   H2005     1.0  0.12666  0.83124  0.39044  1.0000
  H   H2006     1.0  0.08535  0.71396  0.00904  1.0000
  H   H2007     1.0  0.03956  0.93576  0.43236  1.0000
  C   C1128     1.0  0.39507  0.77759  0.01988  1.0000
  C   C1129     1.0  0.41818  0.69065  0.14921  1.0000
  C   C1130     1.0  0.39975  0.74225  0.27471  1.0000
  S   S250      1.0  0.06930  0.77559  0.32847  1.0000
  H   H2008     1.0  0.38164  0.71360  0.35674  1.0000
  H   H2009     1.0  0.38266  0.76735  0.05913  1.0000
  C   C1131     1.0  0.31049  0.76758  0.28409  1.0000
  C   C1132     1.0  0.18717  0.71164  0.08388  1.0000
  H   H2010     1.0  0.30128  0.74042  0.36175  1.0000
  Fe  Fe127     1.0  0.20234  0.90638  0.13674  1.0000
  H   H2011     1.0  0.24668  0.93428  0.99178  1.0000
  Fe  Fe128     1.0  0.28128  0.76826  0.10636  1.0000
  C   C1133     1.0  0.11809  0.87632  0.36392  1.0000
  C   C1134     1.0  0.50174  0.71693  0.16875  1.0000
  C   C1135     1.0  0.44394  0.85247  0.33754  1.0000
  C   C1136     1.0  0.09206  0.89208  0.32308  1.0000
  C   C1137     1.0  0.03163  0.87097  0.06412  1.0000
  H   H2012     1.0  0.21873  0.82318  0.40335  1.0000
  H   H2013     1.0  0.34265  0.91718  0.38907  1.0000
  C   C1138     1.0  0.28734  0.88205  0.17688  1.0000
  C   C1139     1.0  0.40135  0.72947  0.32755  1.0000
  H   H2014     1.0  0.50117  0.84246  0.26576  1.0000
  H   H2015     1.0  0.50181  0.78395  0.19565  1.0000
  H   H2016     1.0  0.27201  0.85044  0.11954  1.0000
  H   H2017     1.0  0.48058  0.82399  0.15353  1.0000
  S   S251      1.0  0.16813  0.89054  0.31600  1.0000
  H   H2018     1.0  0.34324  0.74536  0.30575  1.0000
  Fe  Fe129     1.0  0.48102  0.79665  0.98738  1.0000
  H   H2019     1.0  0.33907  0.87199  0.18022  1.0000
  H   H2020     1.0  0.24076  0.80316  0.14037  1.0000
  C   C1140     1.0  0.13908  0.86422  0.16581  1.0000
  C   C1141     1.0  0.43440  0.78234  0.47915  1.0000
  Fe  Fe130     1.0  0.24916  0.91489  0.45602  1.0000
  H   H2021     1.0  0.41833  0.75830  0.03330  1.0000
  H   H2022     1.0  0.46078  0.85925  0.34993  1.0000
  H   H2023     1.0  0.32213  0.83747  0.41531  1.0000
  H   H2024     1.0  0.26010  0.73858  0.47715  1.0000
  S   S252      1.0  0.37333  0.91791  0.08569  1.0000
  H   H2025     1.0  0.43417  0.88209  0.33616  1.0000
  C   C1142     1.0  0.13972  0.69426  0.37084  1.0000
  H   H2026     1.0  0.17796  0.75138  0.26436  1.0000
  C   C1143     1.0  0.32760  0.80825  0.31150  1.0000
  N   N62       1.0  0.02637  0.84993  0.04720  1.0000
  C   C1144     1.0  0.36097  0.71678  0.44749  1.0000
  C   C1145     1.0  0.25753  0.70917  0.00040  1.0000
  S   S253      1.0  0.02749  0.69425  0.25354  1.0000
  H   H2027     1.0  0.23244  0.72699  0.13726  1.0000
  S   S254      1.0  0.26886  0.73103  0.17839  1.0000
  H   H2028     1.0  0.05867  0.84655  0.06603  1.0000
  H   H2029     1.0  0.16680  0.77162  0.36644  1.0000
  H   H2030     1.0  0.28617  0.82512  0.38391  1.0000
  C   C1146     1.0  0.40579  0.88558  0.40709  1.0000
  H   H2031     1.0  0.42263  0.78529  0.17510  1.0000
  H   H2032     1.0  0.21078  0.81692  0.26485  1.0000
  H   H2033     1.0  0.38691  0.83210  0.27731  1.0000
  C   C1147     1.0  0.32875  0.81455  0.26204  1.0000
  H   H2034     1.0  0.31860  0.92009  0.23436  1.0000
  H   H2035     1.0  0.37735  0.85865  0.05220  1.0000
  C   C1148     1.0  0.34037  0.70830  0.31446  1.0000
  N   N63       1.0  0.38281  0.75511  0.27082  1.0000
  H   H2036     1.0  0.41710  0.80742  0.09200  1.0000
  H   H2037     1.0  0.24260  0.71787  0.31669  1.0000
  C   C1149     1.0  0.40459  0.78629  0.17379  1.0000
  C   C1150     1.0  0.12854  0.81763  0.37662  1.0000
  H   H2038     1.0  0.08108  0.87439  0.20803  1.0000
  H   H2039     1.0  0.27249  0.77811  0.38718  1.0000
  H   H2040     1.0  0.21094  0.73072  0.34776  1.0000
  C   C1151     1.0  0.11241  0.84465  0.19136  1.0000
  H   H2041     1.0  0.49440  0.88055  0.23405  1.0000
  C   C1152     1.0  0.42835  0.78571  0.43570  1.0000
  S   S255      1.0  0.08097  0.75967  0.24003  1.0000
  S   S256      1.0  0.33984  0.83383  0.32788  1.0000
  H   H2042     1.0  0.41384  0.72060  0.00409  1.0000
  H   H2043     1.0  0.41655  0.83617  0.24017  1.0000
  N   N64       1.0  0.10808  0.77772  0.46774  1.0000
  C   C1153     1.0  0.26831  0.82380  0.37537  1.0000
  H   H2044     1.0  0.41042  0.74498  0.33899  1.0000
  H   H2045     1.0  0.18069  0.79006  0.27249  1.0000
  N   N65       1.0  0.16198  0.82047  0.04789  1.0000
  H   H2046     1.0  0.30821  0.71371  0.04038  1.0000
  C   C1154     1.0  0.25476  0.80667  0.16021  1.0000
  S   S257      1.0  0.39067  0.87466  0.18860  1.0000
  C   C1155     1.0  0.38182  0.79625  0.27323  1.0000
  C   C1156     1.0  0.43051  0.69811  0.22882  1.0000
  H   H2047     1.0  0.15140  0.86790  0.18724  1.0000
  C   C1157     1.0  0.12583  0.69736  0.29982  1.0000
  H   H2048     1.0  0.19254  0.75692  0.32769  1.0000
  C   C1158     1.0  0.49300  0.85483  0.17778  1.0000
  H   H2049     1.0  0.28086  0.87583  0.28747  1.0000
  C   C1159     1.0  0.33960  0.90313  0.11764  1.0000
  S   S258      1.0  0.46164  0.80535  0.04268  1.0000
  H   H2050     1.0  0.19239  0.72028  0.31152  1.0000
  C   C1160     1.0  0.39274  0.79784  0.98419  1.0000
  H   H2051     1.0  0.39746  0.84093  0.13762  1.0000
  S   S259      1.0  0.24605  0.92555  0.11335  1.0000
  H   H2052     1.0  0.10522  0.89709  0.11779  1.0000
  H   H2053     1.0  0.22327  0.84162  0.46395  1.0000
  H   H2054     1.0  0.43196  0.86613  0.05207  1.0000
  H   H2055     1.0  0.32145  0.79933  0.20976  1.0000
  C   C1161     1.0  0.23455  0.86639  0.35900  1.0000
  H   H2056     1.0  0.08795  0.78493  0.41577  1.0000
  S   S260      1.0  0.30219  0.75698  0.05913  1.0000
  Fe  Fe131     1.0  0.03875  0.87376  0.41009  1.0000
  H   H2057     1.0  0.39261  0.89082  0.42563  1.0000
  H   H2058     1.0  0.05941  0.85370  0.30095  1.0000
  C   C1162     1.0  0.49062  0.93180  0.14085  1.0000
  H   H2059     1.0  0.48828  0.70676  0.07950  1.0000
  H   H2060     1.0  0.20381  0.85405  0.32864  1.0000
  C   C1163     1.0  0.06847  0.71974  0.45665  1.0000
  C   C1164     1.0  0.38229  0.83857  0.12019  1.0000
  H   H2061     1.0  0.26236  0.79258  0.16506  1.0000
  S   S261      1.0  0.46725  0.79384  0.47411  1.0000
  Fe  Fe132     1.0  0.38806  0.91163  0.14982  1.0000
  C   C1165     1.0  0.18255  0.79276  0.33984  1.0000
  H   H2062     1.0  0.27398  0.83091  0.33400  1.0000
  C   C1166     1.0  0.13581  0.90517  0.27331  1.0000
  C   C1167     1.0  0.32509  0.91474  0.09835  1.0000
  H   H2063     1.0  0.22790  0.79065  0.39901  1.0000
  S   S262      1.0  0.19972  0.93390  0.16585  1.0000
  H   H2064     1.0  0.07184  0.80789  0.00647  1.0000
  H   H2065     1.0  0.36355  0.76675  0.21930  1.0000
  H   H2066     1.0  0.29371  0.83912  0.14202  1.0000
  C   C1168     1.0  0.02907  0.73851  0.18317  1.0000
  H   H2067     1.0  0.05550  0.93604  0.34023  1.0000
  H   H2068     1.0  0.37840  0.93742  0.41679  1.0000
  C   C1169     1.0  0.28429  0.86958  0.36175  1.0000
  Fe  Fe133     1.0  0.19528  0.90358  0.24005  1.0000
  Fe  Fe134     1.0  0.23803  0.89559  0.19168  1.0000
  H   H2069     1.0  0.13314  0.84748  0.03132  1.0000
  C   C1170     1.0  0.25299  0.83083  0.44517  1.0000
  C   C1171     1.0  0.41773  0.86596  0.03242  1.0000
  H   H2070     1.0  0.13315  0.81084  0.19421  1.0000
  H   H2071     1.0  0.35664  0.73312  0.34909  1.0000
  S   S263      1.0  0.36644  0.90822  0.22165  1.0000
  H   H2072     1.0  0.45026  0.69971  0.98994  1.0000
  H   H2073     1.0  0.22303  0.70638  0.28201  1.0000
  H   H2074     1.0  0.50417  0.85741  0.10333  1.0000
  C   C1172     1.0  0.20732  0.86037  0.35764  1.0000
  C   C1173     1.0  0.50305  0.78400  0.23146  1.0000
  C   C1174     1.0  0.12538  0.82583  0.32531  1.0000
  H   H2075     1.0  0.34841  0.70077  0.43979  1.0000
  S   S264      1.0  0.25510  0.86879  0.21601  1.0000
  H   H2076     1.0  0.31749  0.80580  0.46136  1.0000
  C   C1175     1.0  0.12092  0.71776  0.30001  1.0000
  H   H2077     1.0  0.33629  0.83508  0.23440  1.0000
  C   C1176     1.0  0.30166  0.87001  0.19508  1.0000
  C   C1177     1.0  0.22962  0.75626  0.07661  1.0000
  H   H2078     1.0  0.23739  0.92595  0.31957  1.0000
  H   H2079     1.0  0.50922  0.75594  0.16099  1.0000
  S   S265      1.0  0.23846  0.92269  0.22430  1.0000
  H   H2080     1.0  0.03793  0.74904  0.20242  1.0000
  C   C1178     1.0  0.24225  0.84471  0.46837  1.0000
  C   C1179     1.0  0.03075  0.81489  0.31263  1.0000
  C   C1180     1.0  0.36818  0.71137  0.13288  1.0000
  S   S266      1.0  0.21094  0.89061  0.45008  1.0000
  H   H2081     1.0  0.04577  0.72649  0.03713  1.0000
  H   H2082     1.0  0.14177  0.77509  0.43693  1.0000
  H   H2083     1.0  0.23717  0.82890  0.99775  1.0000
  H   H2084     1.0  0.21832  0.85793  0.00123  1.0000
  C   C1181     1.0  0.34654  0.84181  0.46044  1.0000
  H   H2085     1.0  0.14275  0.90808  0.46896  1.0000
  H   H2086     1.0  0.15252  0.78095  0.01008  1.0000
  S   S267      1.0  0.42738  0.93940  0.14590  1.0000
  C   C1182     1.0  0.44521  0.93311  0.35945  1.0000
  H   H2087     1.0  0.15452  0.88581  0.46584  1.0000
  H   H2088     1.0  0.36724  0.93400  0.32672  1.0000
  H   H2089     1.0  0.11367  0.76329  0.98798  1.0000
  H   H2090     1.0  0.50343  0.72395  0.42765  1.0000
  H   H2091     1.0  0.49937  0.69150  0.46701  1.0000
  H   H2092     1.0  0.50071  0.69859  0.19678  1.0000
  H   H2093     1.0  0.34854  0.71739  0.47776  1.0000
  S   S268      1.0  0.35206  0.76457  0.48311  1.0000
  C   C1183     1.0  0.10422  0.93548  0.46828  1.0000
  H   H2094     1.0  0.44792  0.93345  0.32232  1.0000
  H   H2095     1.0  0.09055  0.80215  0.47180  1.0000
  H   H2096     1.0  0.30431  0.82370  0.48127  1.0000
  H   H2097     1.0  0.30203  0.69965  0.35769  1.0000
  H   H2098     1.0  0.11550  0.92720  0.40870  1.0000
  C   C1184     1.0  0.28519  0.92184  0.98913  1.0000
  H   H2099     1.0  0.01179  0.82643  0.35948  1.0000
  C   C1185     1.0  0.01272  0.74103  0.47663  1.0000
  C   C1186     1.0  0.35358  0.93599  0.35219  1.0000
  H   H2100     1.0  0.28852  0.92374  0.02256  1.0000
  C   C1187     1.0  0.02481  0.73068  0.98724  1.0000
  H   H2101     1.0  0.01399  0.84043  0.99079  1.0000
  C   C1188     1.0  0.49507  0.69321  0.10094  1.0000
  H   H2102     1.0  0.04810  0.71013  0.48308  1.0000
  H   H2103     1.0  0.12285  0.69118  0.27163  1.0000
  H   H2104     1.0  0.05671  0.70109  0.08855  1.0000
  H   H2105     1.0  0.12294  0.94019  0.47488  1.0000
  Fe  Fe135     1.0  0.29443  0.90910  0.48195  1.0000
  S   S269      1.0  0.86984  0.97431  0.50125  1.0000
  C   C1189     1.0  0.83429  0.15161  0.70647  1.0000
  H   H2106     1.0  0.56296  0.99620  0.81776  1.0000
  H   H2107     1.0  0.59020  0.13465  0.79419  1.0000
  C   C1190     1.0  0.65626  0.07141  0.70237  1.0000
  C   C1191     1.0  0.61068  0.04497  0.76147  1.0000
  C   C1192     1.0  0.65014  0.01609  0.66563  1.0000
  C   C1193     1.0  0.92479  0.02626  0.80254  1.0000
  H   H2108     1.0  0.91854  0.99622  0.75644  1.0000
  H   H2109     1.0  0.80277  0.06800  0.78367  1.0000
  H   H2110     1.0  0.90621  0.09248  0.48774  1.0000
  H   H2111     1.0  0.97458  0.09328  0.73573  1.0000
  H   H2112     1.0  0.72903  0.97687  0.58405  1.0000
  S   S270      1.0  0.57814  0.98031  0.64516  1.0000
  H   H2113     1.0  0.78526  0.95776  0.53062  1.0000
  H   H2114     1.0  0.66576  0.97900  0.97740  1.0000
  C   C1194     1.0  0.53058  0.12758  0.50843  1.0000
  C   C1195     1.0  0.90166  0.10865  0.60463  1.0000
  S   S271      1.0  0.84250  0.05966  0.81674  1.0000
  H   H2115     1.0  0.96171  0.00470  0.60065  1.0000
  H   H2116     1.0  0.83974  0.02403  0.64897  1.0000
  S   S272      1.0  0.63383  0.16116  0.54827  1.0000
  H   H2117     1.0  0.92271  0.95369  0.91981  1.0000
  H   H2118     1.0  0.00345  0.98906  0.61929  1.0000
  C   C1196     1.0  0.69732  0.03651  0.62927  1.0000
  H   H2119     1.0  0.87489  0.18308  0.92525  1.0000
  C   C1197     1.0  0.00016  0.17098  0.79083  1.0000
  C   C1198     1.0  0.70586  0.96693  0.65779  1.0000
  H   H2120     1.0  0.91174  0.95433  0.82715  1.0000
  H   H2121     1.0  0.65271  0.18287  0.70600  1.0000
  H   H2122     1.0  0.88759  0.03453  0.50072  1.0000
  H   H2123     1.0  0.88139  0.16964  0.71977  1.0000
  S   S273      1.0  0.97198  0.96608  0.94778  1.0000
  H   H2124     1.0  0.94647  0.03608  0.84943  1.0000
  Fe  Fe136     1.0  0.53901  0.94795  0.70556  1.0000
  S   S274      1.0  0.62001  0.96800  0.95353  1.0000
  S   S275      1.0  0.73197  0.05373  0.74524  1.0000
  C   C1199     1.0  0.78979  0.95856  0.56397  1.0000
  C   C1200     1.0  0.78489  0.05166  0.78579  1.0000
  C   C1201     1.0  0.95267  0.14885  0.82311  1.0000
  H   H2125     1.0  0.54735  0.00707  0.85360  1.0000
  H   H2126     1.0  0.72791  0.16999  0.87941  1.0000
  C   C1202     1.0  0.96857  0.10871  0.72903  1.0000
  H   H2127     1.0  0.54611  0.05326  0.87271  1.0000
  H   H2128     1.0  0.84274  0.18758  0.64082  1.0000
  C   C1203     1.0  0.74826  0.03710  0.94025  1.0000
  H   H2129     1.0  0.54177  0.08248  0.65379  1.0000
  H   H2130     1.0  0.66307  0.95928  0.83338  1.0000
  C   C1204     1.0  0.64685  0.05018  0.79300  1.0000
  H   H2131     1.0  0.64737  0.11017  0.94489  1.0000
  H   H2132     1.0  0.65729  0.05349  0.70422  1.0000
  H   H2133     1.0  0.57237  0.94171  0.57123  1.0000
  H   H2134     1.0  0.97020  0.16709  0.95267  1.0000
  H   H2135     1.0  0.79967  0.04742  0.58421  1.0000
  C   C1205     1.0  0.00325  0.17887  0.97809  1.0000
  H   H2136     1.0  0.55298  0.10320  0.86611  1.0000
  C   C1206     1.0  0.97674  0.12662  0.67247  1.0000
  H   H2137     1.0  0.85507  0.09364  0.70862  1.0000
  C   C1207     1.0  0.54938  0.09988  0.55035  1.0000
  H   H2138     1.0  0.56816  0.94490  0.88937  1.0000
  H   H2139     1.0  0.69265  0.00268  0.49754  1.0000
  Fe  Fe137     1.0  0.88458  0.09186  0.77057  1.0000
  S   S276      1.0  0.72664  0.07047  0.52889  1.0000
  H   H2140     1.0  0.81983  0.99937  0.74112  1.0000
  N   N66       1.0  0.61179  0.96599  0.51537  1.0000
  H   H2141     1.0  0.51924  0.06213  0.95445  1.0000
  H   H2142     1.0  0.71038  0.95161  0.68083  1.0000
  H   H2143     1.0  0.75909  0.05640  0.83429  1.0000
  C   C1208     1.0  0.76185  0.03971  0.83428  1.0000
  H   H2144     1.0  0.78877  0.03582  0.78401  1.0000
  H   H2145     1.0  0.58335  0.96887  0.82296  1.0000
  H   H2146     1.0  0.75346  0.14177  0.50658  1.0000
  H   H2147     1.0  0.98749  0.17200  0.58300  1.0000
  S   S277      1.0  0.57034  0.02160  0.68340  1.0000
  C   C1209     1.0  0.95309  0.15621  0.77365  1.0000
  C   C1210     1.0  0.89723  0.98951  0.76570  1.0000
  C   C1211     1.0  0.85469  0.97477  0.64429  1.0000
  H   H2148     1.0  0.98518  0.96699  0.73017  1.0000
  S   S278      1.0  0.61361  0.03305  0.93771  1.0000
  C   C1212     1.0  0.83237  0.95547  0.68806  1.0000
  H   H2149     1.0  0.80478  0.00968  0.52102  1.0000
  S   S279      1.0  0.92295  0.13091  0.87457  1.0000
  C   C1213     1.0  0.83557  0.12961  0.97533  1.0000
  C   C1214     1.0  0.75298  0.99612  0.97219  1.0000
  H   H2150     1.0  0.51386  0.03011  0.92087  1.0000
  H   H2151     1.0  0.87491  0.04236  0.54641  1.0000
  H   H2152     1.0  0.63431  0.11363  0.53233  1.0000
  C   C1215     1.0  0.74527  0.15512  0.49276  1.0000
  H   H2153     1.0  0.98457  0.02085  0.75821  1.0000
  H   H2154     1.0  0.99643  0.06563  0.75010  1.0000
  C   C1216     1.0  0.91030  0.03554  0.70471  1.0000
  C   C1217     1.0  0.85666  0.02533  0.74438  1.0000
  H   H2155     1.0  0.60555  0.13687  0.87467  1.0000
  C   C1218     1.0  0.99629  0.07710  0.57858  1.0000
  N   N67       1.0  0.63847  0.06435  0.75278  1.0000
  H   H2156     1.0  0.68694  0.00439  0.55552  1.0000
  H   H2157     1.0  0.52902  0.08819  0.57862  1.0000
  H   H2158     1.0  0.98821  0.04387  0.69690  1.0000
  H   H2159     1.0  0.80026  0.14997  0.75019  1.0000
  H   H2160     1.0  0.62697  0.09473  0.73367  1.0000
  H   H2161     1.0  0.77563  0.95983  0.88281  1.0000
  C   C1219     1.0  0.76711  0.02520  0.88177  1.0000
  H   H2162     1.0  0.90868  0.05371  0.69850  1.0000
  H   H2163     1.0  0.56930  0.97981  0.53358  1.0000
  H   H2164     1.0  0.58865  0.11852  0.55250  1.0000
  H   H2165     1.0  0.82823  0.09305  0.97100  1.0000
  H   H2166     1.0  0.88810  0.15413  0.89906  1.0000
  N   N68       1.0  0.00995  0.01020  0.68766  1.0000
  S   S280      1.0  0.80254  0.95452  0.68979  1.0000
  C   C1220     1.0  0.90930  0.96843  0.96687  1.0000
  H   H2167     1.0  0.82367  0.04357  0.64705  1.0000
  C   C1221     1.0  0.97711  0.17104  0.73277  1.0000
  H   H2168     1.0  0.88231  0.16120  0.64980  1.0000
  H   H2169     1.0  0.58412  0.15495  0.49259  1.0000
  C   C1222     1.0  0.71948  0.01972  0.76095  1.0000
  S   S281      1.0  0.66125  0.02777  0.97293  1.0000
  C   C1223     1.0  0.53698  0.06433  0.93048  1.0000
  C   C1224     1.0  0.73530  0.01112  0.74185  1.0000
  C   C1225     1.0  0.68046  0.16984  0.80802  1.0000
  C   C1226     1.0  0.64939  0.02688  0.61709  1.0000
  H   H2170     1.0  0.63762  0.14767  0.92350  1.0000
  H   H2171     1.0  0.64241  0.03019  0.79610  1.0000
  C   C1227     1.0  0.99180  0.18155  0.93539  1.0000
  C   C1228     1.0  0.53506  0.14603  0.53303  1.0000
  H   H2172     1.0  0.00746  0.17303  0.49321  1.0000
  C   C1229     1.0  0.87318  0.04020  0.51251  1.0000
  H   H2173     1.0  0.76959  0.00887  0.87828  1.0000
  C   C1230     1.0  0.59846  0.15501  0.79075  1.0000
  C   C1231     1.0  0.58319  0.98822  0.49491  1.0000
  C   C1232     1.0  0.67115  0.96326  0.98213  1.0000
  C   C1233     1.0  0.67194  0.09708  0.60639  1.0000
  C   C1234     1.0  0.58397  0.15441  0.83766  1.0000
  H   H2174     1.0  0.68396  0.08728  0.77095  1.0000
  Fe  Fe138     1.0  0.80763  0.10464  0.57525  1.0000
  H   H2175     1.0  0.55365  0.08455  0.54628  1.0000
  H   H2176     1.0  0.68803  0.06353  0.75513  1.0000
  H   H2177     1.0  0.71562  0.04022  0.63468  1.0000
  H   H2178     1.0  0.89624  0.99144  0.60829  1.0000
  C   C1235     1.0  0.98743  0.99245  0.63298  1.0000
  H   H2179     1.0  0.89662  0.11317  0.53454  1.0000
  H   H2180     1.0  0.75587  0.98527  0.64315  1.0000
  Fe  Fe139     1.0  0.78264  0.13844  0.57611  1.0000
  H   H2181     1.0  0.76922  0.10713  0.89210  1.0000
  H   H2182     1.0  0.73727  0.97711  0.74108  1.0000
  H   H2183     1.0  0.63103  0.02395  0.61233  1.0000
  H   H2184     1.0  0.83961  0.14541  0.74025  1.0000
  H   H2185     1.0  0.64938  0.96101  0.66832  1.0000
  S   S282      1.0  0.79459  0.12689  0.51870  1.0000
  H   H2186     1.0  0.75349  0.01425  0.62808  1.0000
  H   H2187     1.0  0.55625  0.14195  0.97083  1.0000
  H   H2188     1.0  0.97817  0.07334  0.60240  1.0000
  H   H2189     1.0  0.52780  0.10930  0.92145  1.0000
  H   H2190     1.0  0.62977  0.11561  0.83171  1.0000
  H   H2191     1.0  0.85324  0.02350  0.52285  1.0000
  H   H2192     1.0  0.60010  0.97468  0.86468  1.0000
  H   H2193     1.0  0.79364  0.11931  0.74827  1.0000
  C   C1236     1.0  0.80483  0.14167  0.72557  1.0000
  C   C1237     1.0  0.65667  0.12686  0.90682  1.0000
  H   H2194     1.0  0.59345  0.02555  0.84489  1.0000
  H   H2195     1.0  0.99426  0.12876  0.49410  1.0000
  H   H2196     1.0  0.79632  0.01684  0.93877  1.0000
  H   H2197     1.0  0.96670  0.11338  0.65715  1.0000
  C   C1238     1.0  0.58789  0.13857  0.88619  1.0000
  C   C1239     1.0  0.51795  0.13483  0.97073  1.0000
  C   C1240     1.0  0.62346  0.10396  0.51357  1.0000
  C   C1241     1.0  0.68660  0.14923  0.82043  1.0000
  S   S283      1.0  0.68143  0.10129  0.88225  1.0000
  H   H2198     1.0  0.00952  0.03432  0.61557  1.0000
  H   H2199     1.0  0.78055  0.97001  0.61911  1.0000
  H   H2200     1.0  0.75851  0.02560  0.51378  1.0000
  H   H2201     1.0  0.55608  0.02267  0.78603  1.0000
  H   H2202     1.0  0.75432  0.95674  0.59905  1.0000
  H   H2203     1.0  0.93501  0.15064  0.76670  1.0000
  H   H2204     1.0  0.64218  0.95572  0.52469  1.0000
  H   H2205     1.0  0.95988  0.95892  0.83950  1.0000
  H   H2206     1.0  0.81795  0.00600  0.60143  1.0000
  Fe  Fe140     1.0  0.75804  0.08183  0.66382  1.0000
  H   H2207     1.0  0.85679  0.98985  0.74716  1.0000
  S   S284      1.0  0.52075  0.97325  0.68326  1.0000
  H   H2208     1.0  0.76822  0.04790  0.53921  1.0000
  Fe  Fe141     1.0  0.75497  0.08952  0.56124  1.0000
  C   C1242     1.0  0.65129  0.14813  0.89479  1.0000
  H   H2209     1.0  0.93597  0.06993  0.60178  1.0000
  S   S285      1.0  0.75490  0.94272  0.81080  1.0000
  C   C1243     1.0  0.88766  0.18211  0.62287  1.0000
  H   H2210     1.0  0.76706  0.17434  0.82542  1.0000
  H   H2211     1.0  0.63239  0.06585  0.65573  1.0000
  H   H2212     1.0  0.89264  0.15674  0.57028  1.0000
  H   H2213     1.0  0.61864  0.95845  0.81352  1.0000
  C   C1244     1.0  0.88755  0.10891  0.57234  1.0000
  H   H2214     1.0  0.66547  0.10302  0.57403  1.0000
  C   C1245     1.0  0.83175  0.03546  0.62593  1.0000
  C   C1246     1.0  0.75474  0.00097  0.61244  1.0000
  H   H2215     1.0  0.68805  0.11557  0.60287  1.0000
  H   H2216     1.0  0.52033  0.06183  0.87278  1.0000
  H   H2217     1.0  0.53557  0.13602  0.57097  1.0000
  C   C1247     1.0  0.85013  0.09845  0.63798  1.0000
  S   S286      1.0  0.54708  0.95815  0.76603  1.0000
  H   H2218     1.0  0.72129  0.98835  0.90771  1.0000
  H   H2219     1.0  0.70252  0.97735  0.67882  1.0000
  C   C1248     1.0  0.70049  0.17628  0.95699  1.0000
  H   H2220     1.0  0.70110  0.17826  0.91936  1.0000
  N   N69       1.0  0.55111  0.11957  0.50020  1.0000
  C   C1249     1.0  0.97623  0.15606  0.83158  1.0000
  S   S287      1.0  0.98472  0.02481  0.97817  1.0000
  H   H2221     1.0  0.62651  0.94723  0.75710  1.0000
  C   C1250     1.0  0.85040  0.18270  0.67189  1.0000
  C   C1251     1.0  0.67435  0.12745  0.86949  1.0000
  H   H2222     1.0  0.85491  0.16496  0.59908  1.0000
  C   C1252     1.0  0.63617  0.09105  0.80124  1.0000
  H   H2223     1.0  0.72665  0.16059  0.97426  1.0000
  H   H2224     1.0  0.81625  0.00223  0.79805  1.0000
  Fe  Fe142     1.0  0.00846  0.96335  0.94361  1.0000
  C   C1253     1.0  0.88088  0.96429  0.81884  1.0000
  H   H2225     1.0  0.97730  0.17667  0.69475  1.0000
  C   C1254     1.0  0.77585  0.97041  0.58563  1.0000
  H   H2226     1.0  0.84812  0.05254  0.59033  1.0000
  C   C1255     1.0  0.87891  0.97621  0.64205  1.0000
  H   H2227     1.0  0.95024  0.05368  0.97822  1.0000
  H   H2228     1.0  0.71187  0.01069  0.91591  1.0000
  C   C1256     1.0  0.76099  0.17741  0.58090  1.0000
  S   S288      1.0  0.80611  0.09651  0.84568  1.0000
  H   H2229     1.0  0.85291  0.14643  0.81885  1.0000
  C   C1257     1.0  0.69355  0.00082  0.79437  1.0000
  C   C1258     1.0  0.58749  0.94257  0.97405  1.0000
  H   H2230     1.0  0.51871  0.02988  0.63821  1.0000
  H   H2231     1.0  0.88248  0.00902  0.83248  1.0000
  H   H2232     1.0  0.75557  0.02552  0.71707  1.0000
  H   H2233     1.0  0.66041  0.10753  0.72484  1.0000
  H   H2234     1.0  0.92025  0.98900  0.93379  1.0000
  S   S289      1.0  0.91169  0.96233  0.68179  1.0000
  C   C1259     1.0  0.58905  0.03500  0.81135  1.0000
  H   H2235     1.0  0.78040  0.06072  0.75212  1.0000
  H   H2236     1.0  0.59868  0.06574  0.58137  1.0000
  C   C1260     1.0  0.72505  0.98367  0.75598  1.0000
  C   C1261     1.0  0.82706  0.01338  0.75667  1.0000
  H   H2237     1.0  0.97602  0.15008  0.86973  1.0000
  H   H2238     1.0  0.58685  0.05203  0.81114  1.0000
  C   C1262     1.0  0.58715  0.95888  0.85694  1.0000
  H   H2239     1.0  0.86628  0.03767  0.70264  1.0000
  H   H2240     1.0  0.87921  0.16828  0.52397  1.0000
  S   S290      1.0  0.69682  0.18681  0.49227  1.0000
  C   C1263     1.0  0.72621  0.17955  0.96611  1.0000
  H   H2241     1.0  0.65017  0.13416  0.76545  1.0000
  C   C1264     1.0  0.68166  0.05389  0.83262  1.0000
  C   C1265     1.0  0.90262  0.17129  0.90167  1.0000
  H   H2242     1.0  0.86008  0.95343  0.82233  1.0000
  H   H2243     1.0  0.54409  0.05253  0.95545  1.0000
  H   H2244     1.0  0.68123  0.00727  0.80934  1.0000
  C   C1266     1.0  0.67280  0.04256  0.57452  1.0000
  H   H2245     1.0  0.61966  0.16321  0.78485  1.0000
  H   H2246     1.0  0.59030  0.09705  0.95101  1.0000
  H   H2247     1.0  0.90229  0.06283  0.61497  1.0000
  C   C1267     1.0  0.78073  0.00987  0.97423  1.0000
  C   C1268     1.0  0.91544  0.05448  0.61169  1.0000
  Fe  Fe143     1.0  0.85643  0.04738  0.88040  1.0000
  S   S291      1.0  0.56202  0.03159  0.55136  1.0000
  H   H2248     1.0  0.63475  0.18692  0.66422  1.0000
  H   H2249     1.0  0.52094  0.15407  0.96886  1.0000
  N   N70       1.0  0.56473  0.11112  0.92420  1.0000
  H   H2250     1.0  0.00578  0.18469  0.61691  1.0000
  H   H2251     1.0  0.61880  0.07262  0.83289  1.0000
  C   C1269     1.0  0.56230  0.01397  0.81730  1.0000
  C   C1270     1.0  0.78872  0.12376  0.88028  1.0000
  H   H2252     1.0  0.97881  0.01497  0.66534  1.0000
  S   S292      1.0  0.79106  0.18062  0.55328  1.0000
  H   H2253     1.0  0.57711  0.09462  0.88012  1.0000
  C   C1271     1.0  0.64880  0.08269  0.65606  1.0000
  C   C1272     1.0  0.67647  0.06548  0.78433  1.0000
  C   C1273     1.0  0.00771  0.18115  0.58362  1.0000
  H   H2254     1.0  0.89983  0.01465  0.96108  1.0000
  N   N71       1.0  0.89247  0.01263  0.75746  1.0000
  H   H2255     1.0  0.56294  0.14663  0.84244  1.0000
  C   C1274     1.0  0.70992  0.16786  0.61883  1.0000
  H   H2256     1.0  0.61459  0.00087  0.52160  1.0000
  Fe  Fe144     1.0  0.84016  0.08944  0.84002  1.0000
  H   H2257     1.0  0.87356  0.96995  0.97304  1.0000
  C   C1275     1.0  0.59280  0.94707  0.56932  1.0000
  H   H2258     1.0  0.93409  0.05803  0.82337  1.0000
  C   C1276     1.0  0.63988  0.97372  0.51069  1.0000
  S   S293      1.0  0.85075  0.07448  0.90790  1.0000
  H   H2259     1.0  0.88100  0.96964  0.84960  1.0000
  H   H2260     1.0  0.68932  0.18605  0.76950  1.0000
  H   H2261     1.0  0.67631  0.97215  0.55784  1.0000
  C   C1277     1.0  0.80241  0.03286  0.57438  1.0000
  C   C1278     1.0  0.69884  0.96493  0.78848  1.0000
  H   H2262     1.0  0.74403  0.02540  0.83217  1.0000
  H   H2263     1.0  0.72297  0.00273  0.58660  1.0000
  C   C1279     1.0  0.86419  0.09793  0.67063  1.0000
  C   C1280     1.0  0.00872  0.14625  0.56239  1.0000
  H   H2264     1.0  0.99379  0.01857  0.55540  1.0000
  H   H2265     1.0  0.64262  0.09730  0.65688  1.0000
  C   C1281     1.0  0.88908  0.17767  0.93910  1.0000
  H   H2266     1.0  0.97118  0.98446  0.74676  1.0000
  C   C1282     1.0  0.00708  0.14178  0.64563  1.0000
  C   C1283     1.0  0.63255  0.11495  0.79553  1.0000
  C   C1284     1.0  0.80742  0.98071  0.90334  1.0000
  C   C1285     1.0  0.51846  0.07885  0.49357  1.0000
  C   C1286     1.0  0.81721  0.95215  0.96648  1.0000
  C   C1287     1.0  0.78736  0.95770  0.90586  1.0000
  C   C1288     1.0  0.56826  0.11138  0.57541  1.0000
  Fe  Fe145     1.0  0.65036  0.05984  0.94426  1.0000
  H   H2267     1.0  0.94189  0.04054  0.76641  1.0000
  C   C1289     1.0  0.67402  0.02052  0.67157  1.0000
  H   H2268     1.0  0.77489  0.14350  0.91327  1.0000
  S   S294      1.0  0.62184  0.99819  0.71975  1.0000
  H   H2269     1.0  0.76852  0.05044  0.93615  1.0000
  H   H2270     1.0  0.92160  0.11263  0.59157  1.0000
  H   H2271     1.0  0.74434  0.05023  0.90993  1.0000
  H   H2272     1.0  0.94689  0.09834  0.74705  1.0000
  H   H2273     1.0  0.99989  0.17329  0.91435  1.0000
  C   C1290     1.0  0.83587  0.14598  0.83858  1.0000
  S   S295      1.0  0.93852  0.99255  0.51742  1.0000
  H   H2274     1.0  0.79333  0.00211  0.65161  1.0000
  C   C1291     1.0  0.74368  0.15606  0.62919  1.0000
  H   H2275     1.0  0.77445  0.17372  0.97177  1.0000
  C   C1292     1.0  0.97602  0.95483  0.82996  1.0000
  C   C1293     1.0  0.90401  0.94849  0.94639  1.0000
  S   S296      1.0  0.84793  0.00579  0.93154  1.0000
  N   N72       1.0  0.74670  0.01381  0.93273  1.0000
  H   H2276     1.0  0.91732  0.16632  0.91330  1.0000
  H   H2277     1.0  0.81143  0.97081  0.55277  1.0000
  H   H2278     1.0  0.81117  0.00051  0.87835  1.0000
  Fe  Fe146     1.0  0.56051  0.00703  0.62828  1.0000
  C   C1294     1.0  0.56171  0.08969  0.62838  1.0000
  C   C1295     1.0  0.63330  0.94226  0.67257  1.0000
  C   C1296     1.0  0.99664  0.01435  0.64980  1.0000
  H   H2279     1.0  0.70832  0.94509  0.92213  1.0000
  H   H2280     1.0  0.63901  0.98082  0.57661  1.0000
  C   C1297     1.0  0.69688  0.04789  0.58073  1.0000
  C   C1298     1.0  0.81069  0.12410  0.85492  1.0000
  C   C1299     1.0  0.77473  0.03656  0.52445  1.0000
  H   H2281     1.0  0.55360  0.16563  0.50917  1.0000
  H   H2282     1.0  0.68757  0.95640  0.65199  1.0000
  S   S297      1.0  0.84539  0.10589  0.54623  1.0000
  H   H2283     1.0  0.61844  0.94677  0.66038  1.0000
  H   H2284     1.0  0.77263  0.99606  0.52058  1.0000
  C   C1300     1.0  0.90625  0.02913  0.66113  1.0000
  H   H2285     1.0  0.91762  0.01932  0.65477  1.0000
  C   C1301     1.0  0.86190  0.10407  0.58868  1.0000
  H   H2286     1.0  0.74969  0.14268  0.65137  1.0000
  C   C1302     1.0  0.82251  0.97788  0.93339  1.0000
  C   C1303     1.0  0.86380  0.00295  0.76474  1.0000
  C   C1304     1.0  0.66284  0.16937  0.84509  1.0000
  H   H2287     1.0  0.98691  0.13548  0.57510  1.0000
  H   H2288     1.0  0.82278  0.02988  0.73964  1.0000
  C   C1305     1.0  0.89863  0.02265  0.79463  1.0000
  H   H2289     1.0  0.93105  0.06369  0.94361  1.0000
  H   H2290     1.0  0.78425  0.02735  0.98043  1.0000
  C   C1306     1.0  0.89144  0.94481  0.82741  1.0000
  H   H2291     1.0  0.65566  0.01090  0.51657  1.0000
  Fe  Fe147     1.0  0.53116  0.98588  0.73980  1.0000
  H   H2292     1.0  0.73486  0.15563  0.52552  1.0000
  H   H2293     1.0  0.57627  0.09820  0.64441  1.0000
  H   H2294     1.0  0.84519  0.14288  0.93402  1.0000
  C   C1307     1.0  0.99889  0.97908  0.78224  1.0000
  C   C1308     1.0  0.57267  0.09807  0.96657  1.0000
  C   C1309     1.0  0.88994  0.10294  0.65387  1.0000
  H   H2295     1.0  0.74788  0.18352  0.79037  1.0000
  C   C1310     1.0  0.55899  0.09435  0.89764  1.0000
  C   C1311     1.0  0.61023  0.99148  0.49695  1.0000
  H   H2296     1.0  0.55432  0.15563  0.90975  1.0000
  H   H2297     1.0  0.82024  0.04526  0.53956  1.0000
  H   H2298     1.0  0.51496  0.06503  0.53271  1.0000
  C   C1312     1.0  0.52889  0.05171  0.89699  1.0000
  H   H2299     1.0  0.96960  0.98358  0.58119  1.0000
  H   H2300     1.0  0.83748  0.14087  0.68620  1.0000
  S   S298      1.0  0.67661  0.15884  0.63676  1.0000
  C   C1313     1.0  0.99015  0.98482  0.73605  1.0000
  H   H2301     1.0  0.67436  0.03202  0.84747  1.0000
  C   C1314     1.0  0.83898  0.16740  0.84797  1.0000
  C   C1315     1.0  0.92947  0.03682  0.84000  1.0000
  C   C1316     1.0  0.99904  0.03893  0.72173  1.0000
  Fe  Fe148     1.0  0.58528  0.99241  0.70421  1.0000
  C   C1317     1.0  0.97756  0.00042  0.58993  1.0000
  H   H2302     1.0  0.56256  0.07233  0.62685  1.0000
  C   C1318     1.0  0.54436  0.13768  0.94771  1.0000
  H   H2303     1.0  0.67170  0.05687  0.86190  1.0000
  C   C1319     1.0  0.89046  0.17395  0.54727  1.0000
  H   H2304     1.0  0.91184  0.02441  0.87534  1.0000
  H   H2305     1.0  0.00595  0.99628  0.79006  1.0000
  C   C1320     1.0  0.68315  0.97359  0.80758  1.0000
  H   H2306     1.0  0.76529  0.17998  0.90444  1.0000
  H   H2307     1.0  0.51834  0.99726  0.52884  1.0000
  H   H2308     1.0  0.83014  0.09420  0.65119  1.0000
  Fe  Fe149     1.0  0.89204  0.10574  0.85452  1.0000
  S   S299      1.0  0.89867  0.07759  0.83270  1.0000
  C   C1321     1.0  0.64062  0.08995  0.75081  1.0000
  H   H2309     1.0  0.93128  0.04225  0.69969  1.0000
  N   N73       1.0  0.77884  0.01679  0.56479  1.0000
  C   C1322     1.0  0.72813  0.98731  0.60642  1.0000
  H   H2310     1.0  0.70018  0.14967  0.79146  1.0000
  C   C1323     1.0  0.78371  0.99918  0.54557  1.0000
  H   H2311     1.0  0.65346  0.09353  0.81241  1.0000
  S   S300      1.0  0.96735  0.05987  0.52653  1.0000
  H   H2312     1.0  0.70864  0.12509  0.50080  1.0000
  H   H2313     1.0  0.67963  0.08364  0.60456  1.0000
  C   C1324     1.0  0.60065  0.94370  0.84771  1.0000
  H   H2314     1.0  0.60976  0.02691  0.76014  1.0000
  H   H2315     1.0  0.97103  0.97304  0.66494  1.0000
  H   H2316     1.0  0.67681  0.08677  0.69324  1.0000
  S   S301      1.0  0.88108  0.12254  0.78849  1.0000
  C   C1325     1.0  0.65202  0.99007  0.53706  1.0000
  C   C1326     1.0  0.74552  0.19038  0.85521  1.0000
  H   H2317     1.0  0.85332  0.98863  0.61202  1.0000
  S   S302      1.0  0.74174  0.10289  0.61387  1.0000
  H   H2318     1.0  0.67468  0.01225  0.70904  1.0000
  H   H2319     1.0  0.96916  0.14070  0.66837  1.0000
  C   C1327     1.0  0.99887  0.95462  0.50833  1.0000
  H   H2320     1.0  0.85842  0.18414  0.83585  1.0000
  C   C1328     1.0  0.58878  0.06458  0.51727  1.0000
  S   S303      1.0  0.79817  0.11856  0.63024  1.0000
  H   H2321     1.0  0.98275  0.95025  0.86228  1.0000
  H   H2322     1.0  0.89942  0.04240  0.78264  1.0000
  H   H2323     1.0  0.98701  0.95935  0.52978  1.0000
  C   C1329     1.0  0.60328  0.07687  0.54133  1.0000
  C   C1330     1.0  0.71815  0.15129  0.64821  1.0000
  C   C1331     1.0  0.99664  0.07166  0.53807  1.0000
  H   H2324     1.0  0.60440  0.05421  0.73081  1.0000
  H   H2325     1.0  0.59211  0.17571  0.82969  1.0000
  H   H2326     1.0  0.86290  0.07073  0.48442  1.0000
  H   H2327     1.0  0.59256  0.13306  0.97922  1.0000
  H   H2328     1.0  0.89219  0.98237  0.73856  1.0000
  H   H2329     1.0  0.70465  0.13415  0.68467  1.0000
  H   H2330     1.0  0.56770  0.12844  0.57855  1.0000
  C   C1332     1.0  0.81705  0.16620  0.87603  1.0000
  S   S304      1.0  0.76895  0.06640  0.61349  1.0000
  H   H2331     1.0  0.67029  0.95901  0.95000  1.0000
  H   H2332     1.0  0.78661  0.04007  0.87810  1.0000
  C   C1333     1.0  0.79193  0.14441  0.89199  1.0000
  C   C1334     1.0  0.00070  0.17809  0.74148  1.0000
  H   H2333     1.0  0.88539  0.01540  0.66966  1.0000
  C   C1335     1.0  0.88074  0.95805  0.68324  1.0000
  H   H2334     1.0  0.70312  0.06440  0.82463  1.0000
  C   C1336     1.0  0.87601  0.18076  0.58145  1.0000
  H   H2335     1.0  0.59660  0.95722  0.59273  1.0000
  H   H2336     1.0  0.63537  0.04533  0.83090  1.0000
  Fe  Fe150     1.0  0.67037  0.17814  0.56512  1.0000
  H   H2337     1.0  0.97752  0.12094  0.74694  1.0000
  C   C1337     1.0  0.54034  0.11191  0.94454  1.0000
  H   H2338     1.0  0.91447  0.04925  0.58073  1.0000
  H   H2339     1.0  0.61499  0.11293  0.78561  1.0000
  Fe  Fe151     1.0  0.62279  0.00019  0.97327  1.0000
  H   H2340     1.0  0.79812  0.14764  0.69351  1.0000
  H   H2341     1.0  0.67231  0.05144  0.53721  1.0000
  H   H2342     1.0  0.85122  0.98951  0.80566  1.0000
  S   S305      1.0  0.90784  0.10202  0.69376  1.0000
  H   H2343     1.0  0.59651  0.16819  0.75701  1.0000
  C   C1338     1.0  0.67856  0.99237  0.53694  1.0000
  C   C1339     1.0  0.71983  0.99735  0.93279  1.0000
  C   C1340     1.0  0.81011  0.01676  0.61518  1.0000
  H   H2344     1.0  0.59382  0.15185  0.90344  1.0000
  H   H2345     1.0  0.86315  0.03887  0.76096  1.0000
  H   H2346     1.0  0.92437  0.00673  0.81841  1.0000
  C   C1341     1.0  0.72801  0.19051  0.57242  1.0000
  H   H2347     1.0  0.89038  0.94915  0.92583  1.0000
  C   C1342     1.0  0.85487  0.94572  0.49376  1.0000
  H   H2348     1.0  0.51638  0.16556  0.55737  1.0000
  H   H2349     1.0  0.75090  0.97882  0.96600  1.0000
  H   H2350     1.0  0.80361  0.10222  0.96365  1.0000
  H   H2351     1.0  0.57100  0.96744  0.97734  1.0000
  H   H2352     1.0  0.72973  0.06814  0.96450  1.0000
  H   H2353     1.0  0.91790  0.18321  0.75550  1.0000
  H   H2354     1.0  0.53367  0.94244  0.61981  1.0000
  C   C1343     1.0  0.76073  0.18944  0.81120  1.0000
  C   C1344     1.0  0.51262  0.15206  0.54021  1.0000
  C   C1345     1.0  0.93197  0.05492  0.98181  1.0000
  H   H2355     1.0  0.92533  0.01082  0.98019  1.0000
  H   H2356     1.0  0.52781  0.09439  0.98306  1.0000
  C   C1346     1.0  0.56690  0.94783  0.98216  1.0000
  H   H2357     1.0  0.91581  0.94216  0.13506  1.0000
  H   H2358     1.0  0.99309  0.01856  0.32226  1.0000
  H   H2359     1.0  0.77029  0.10658  0.00656  1.0000
  H   H2360     1.0  0.65870  0.02542  0.18863  1.0000
  C   C1347     1.0  0.58213  0.95476  0.19408  1.0000
  H   H2361     1.0  0.59658  0.00977  0.14409  1.0000
  C   C1348     1.0  0.79881  0.05769  0.47434  1.0000
  H   H2362     1.0  0.63424  0.94438  0.21162  1.0000
  C   C1349     1.0  0.01031  0.02618  0.28883  1.0000
  H   H2363     1.0  0.65649  0.94464  0.01783  1.0000
  C   C1350     1.0  0.65881  0.17834  0.29800  1.0000
  C   C1351     1.0  0.77818  0.14925  0.14092  1.0000
  H   H2364     1.0  0.84701  0.16770  0.00842  1.0000
  H   H2365     1.0  0.88343  0.17938  0.36939  1.0000
  H   H2366     1.0  0.87667  0.15830  0.43514  1.0000
  Fe  Fe152     1.0  0.66105  0.17382  0.47271  1.0000
  H   H2367     1.0  0.77986  0.10899  0.08529  1.0000
  H   H2368     1.0  0.67404  0.14735  0.03489  1.0000
  N   N74       1.0  0.88589  0.97791  0.03067  1.0000
  S   S306      1.0  0.64703  0.95314  0.30535  1.0000
  H   H2369     1.0  0.59736  0.96622  0.15571  1.0000
  H   H2370     1.0  0.92497  0.01188  0.30911  1.0000
  H   H2371     1.0  0.51791  0.12074  0.15011  1.0000
  H   H2372     1.0  0.85021  0.14797  0.06351  1.0000
  H   H2373     1.0  0.77633  0.14446  0.11079  1.0000
  H   H2374     1.0  0.95607  0.96893  0.15408  1.0000
  H   H2375     1.0  0.93967  0.12869  0.47695  1.0000
  C   C1352     1.0  0.78385  0.99015  0.01754  1.0000
  H   H2376     1.0  0.52650  0.15958  0.14419  1.0000
  H   H2377     1.0  0.67362  0.18231  0.22539  1.0000
  C   C1353     1.0  0.96122  0.94363  0.21657  1.0000
  C   C1354     1.0  0.75060  0.99293  0.41962  1.0000
  C   C1355     1.0  0.91446  0.00002  0.29192  1.0000
  H   H2378     1.0  0.59836  0.02380  0.42176  1.0000
  C   C1356     1.0  0.56732  0.96939  0.19994  1.0000
  C   C1357     1.0  0.00809  0.11078  0.30591  1.0000
  H   H2379     1.0  0.75958  0.96901  0.47763  1.0000
  H   H2380     1.0  0.85366  0.02820  0.17687  1.0000
  C   C1358     1.0  0.86555  0.04567  0.18167  1.0000
  S   S307      1.0  0.96188  0.94806  0.06747  1.0000
  H   H2381     1.0  0.91005  0.11387  0.06524  1.0000
  C   C1359     1.0  0.66805  0.04290  0.15176  1.0000
  H   H2382     1.0  0.62703  0.05399  0.11804  1.0000
  H   H2383     1.0  0.86118  0.98596  0.07525  1.0000
  H   H2384     1.0  0.80477  0.03359  0.22010  1.0000
  C   C1360     1.0  0.97194  0.17923  0.18549  1.0000
  H   H2385     1.0  0.82335  0.97843  0.30272  1.0000
  H   H2386     1.0  0.66838  0.10851  0.39605  1.0000
  H   H2387     1.0  0.74951  0.10888  0.10252  1.0000
  S   S308      1.0  0.85816  0.10189  0.20526  1.0000
  H   H2388     1.0  0.74771  0.01994  0.35466  1.0000
  H   H2389     1.0  0.74537  0.11465  0.02302  1.0000
  Fe  Fe153     1.0  0.67586  0.94253  0.33220  1.0000
  H   H2390     1.0  0.00599  0.01041  0.06695  1.0000
  H   H2391     1.0  0.51952  0.09893  0.09689  1.0000
  H   H2392     1.0  0.70558  0.14884  0.34522  1.0000
  S   S309      1.0  0.65164  0.00787  0.11464  1.0000
  H   H2393     1.0  0.65357  0.18311  0.16500  1.0000
  H   H2394     1.0  0.96120  0.18987  0.00213  1.0000
  H   H2395     1.0  0.92164  0.08067  0.37546  1.0000
  C   C1361     1.0  0.88429  0.98753  0.31603  1.0000
  H   H2396     1.0  0.59179  0.95212  0.22230  1.0000
  H   H2397     1.0  0.73338  0.03359  0.26282  1.0000
  C   C1362     1.0  0.73385  0.05515  0.99461  1.0000
  S   S310      1.0  0.93974  0.00022  0.40571  1.0000
  C   C1363     1.0  0.78761  0.94526  0.26956  1.0000
  H   H2398     1.0  0.70849  0.01976  0.99291  1.0000
  C   C1364     1.0  0.72626  0.04787  0.24992  1.0000
  H   H2399     1.0  0.90484  0.14332  0.99402  1.0000
  H   H2400     1.0  0.53172  0.05699  0.46452  1.0000
  H   H2401     1.0  0.55859  0.99113  0.35715  1.0000
  H   H2402     1.0  0.80983  0.95862  0.11715  1.0000
  C   C1365     1.0  0.66472  0.00605  0.35900  1.0000
  H   H2403     1.0  0.80498  0.08762  0.02560  1.0000
  C   C1366     1.0  0.76009  0.10188  0.08293  1.0000
  H   H2404     1.0  0.61142  0.03935  0.20516  1.0000
  C   C1367     1.0  0.85629  0.12934  0.99987  1.0000
  H   H2405     1.0  0.69813  0.97780  0.01585  1.0000
  C   C1368     1.0  0.60359  0.13683  0.19939  1.0000
  C   C1369     1.0  0.56069  0.99805  0.25987  1.0000
  C   C1370     1.0  0.93479  0.18561  0.20461  1.0000
  H   H2406     1.0  0.70264  0.02529  0.18763  1.0000
  H   H2407     1.0  0.69976  0.08981  0.45681  1.0000
  H   H2408     1.0  0.80307  0.03445  0.16130  1.0000
  C   C1371     1.0  0.64290  0.01768  0.30163  1.0000
  H   H2409     1.0  0.92790  0.14470  0.06768  1.0000
  H   H2410     1.0  0.56269  0.02024  0.13812  1.0000
  H   H2411     1.0  0.88637  0.05618  0.15621  1.0000
  H   H2412     1.0  0.54997  0.97192  0.04409  1.0000
  C   C1372     1.0  0.86173  0.16441  0.02378  1.0000
  S   S311      1.0  0.64397  0.08927  0.23045  1.0000
  H   H2413     1.0  0.99604  0.09841  0.34574  1.0000
  S   S312      1.0  0.93432  0.04281  0.43846  1.0000
  H   H2414     1.0  0.68616  0.09377  0.37705  1.0000
  H   H2415     1.0  0.90258  0.11463  0.12382  1.0000
  H   H2416     1.0  0.63845  0.95151  0.45006  1.0000
  C   C1373     1.0  0.99234  0.14928  0.01587  1.0000
  C   C1374     1.0  0.58677  0.99877  0.18605  1.0000
  C   C1375     1.0  0.83431  0.97640  0.18498  1.0000
  Fe  Fe154     1.0  0.96635  0.99838  0.44908  1.0000
  H   H2417     1.0  0.81506  0.99692  0.14939  1.0000
  C   C1376     1.0  0.56096  0.97606  0.34841  1.0000
  H   H2418     1.0  0.59535  0.02977  0.47541  1.0000
  C   C1377     1.0  0.79456  0.00588  0.42037  1.0000
  C   C1378     1.0  0.89670  0.15235  0.01275  1.0000
  C   C1379     1.0  0.80465  0.02954  0.37483  1.0000
  H   H2419     1.0  0.84664  0.98377  0.38324  1.0000
  C   C1380     1.0  0.89587  0.96794  0.07191  1.0000
  C   C1381     1.0  0.57587  0.98860  0.29186  1.0000
  H   H2420     1.0  0.67474  0.01014  0.38386  1.0000
  Fe  Fe155     1.0  0.84649  0.09167  0.28683  1.0000
  H   H2421     1.0  0.85182  0.18152  0.09465  1.0000
  H   H2422     1.0  0.74800  0.18927  0.36466  1.0000
  H   H2423     1.0  0.71978  0.08423  0.39312  1.0000
  H   H2424     1.0  0.86497  0.00062  0.24530  1.0000
  H   H2425     1.0  0.70063  0.97086  0.21420  1.0000
  C   C1382     1.0  0.53319  0.96618  0.07453  1.0000
  H   H2426     1.0  0.98586  0.95623  0.35094  1.0000
  H   H2427     1.0  0.62638  0.18503  0.39454  1.0000
  Fe  Fe156     1.0  0.96175  0.04450  0.37661  1.0000
  H   H2428     1.0  0.67029  0.97279  0.36750  1.0000
  H   H2429     1.0  0.97668  0.94313  0.23212  1.0000
  C   C1383     1.0  0.58792  0.14719  0.11575  1.0000
  H   H2430     1.0  0.52693  0.18378  0.35708  1.0000
  S   S313      1.0  0.70494  0.11055  0.22170  1.0000
  H   H2431     1.0  0.99625  0.13848  0.99629  1.0000
  H   H2432     1.0  0.80828  0.04811  0.46024  1.0000
  C   C1384     1.0  0.83197  0.95588  0.22869  1.0000
  C   C1385     1.0  0.78291  0.16203  0.21881  1.0000
  N   N75       1.0  0.57473  0.01292  0.20314  1.0000
  C   C1386     1.0  0.88789  0.13428  0.07050  1.0000
  H   H2433     1.0  0.72800  0.12838  0.32950  1.0000
  C   C1387     1.0  0.73793  0.13908  0.42839  1.0000
  H   H2434     1.0  0.56167  0.05515  0.16035  1.0000
  C   C1388     1.0  0.61045  0.19006  0.39559  1.0000
  H   H2435     1.0  0.72041  0.04933  0.03174  1.0000
  H   H2436     1.0  0.94252  0.99483  0.18539  1.0000
  H   H2437     1.0  0.64317  0.06711  0.48112  1.0000
  C   C1389     1.0  0.87720  0.02891  0.39820  1.0000
  C   C1390     1.0  0.88321  0.96354  0.99960  1.0000
  H   H2438     1.0  0.64156  0.09244  0.13538  1.0000
  C   C1391     1.0  0.66890  0.03972  0.10880  1.0000
  H   H2439     1.0  0.72349  0.18034  0.00235  1.0000
  H   H2440     1.0  0.70039  0.10548  0.01867  1.0000
  H   H2441     1.0  0.68195  0.05993  0.02741  1.0000
  H   H2442     1.0  0.92117  0.00012  0.12334  1.0000
  C   C1392     1.0  0.76637  0.16699  0.19422  1.0000
  C   C1393     1.0  0.57392  0.14541  0.15956  1.0000
  N   N76       1.0  0.91338  0.11637  0.40906  1.0000
  H   H2443     1.0  0.82857  0.94972  0.99004  1.0000
  H   H2444     1.0  0.89002  0.95421  0.44146  1.0000
  H   H2445     1.0  0.92181  0.01354  0.25067  1.0000
  C   C1394     1.0  0.89354  0.12475  0.42035  1.0000
  H   H2446     1.0  0.58896  0.05107  0.20371  1.0000
  C   C1395     1.0  0.52339  0.03203  0.16192  1.0000
  C   C1396     1.0  0.51695  0.06368  0.46343  1.0000
  S   S314      1.0  0.68669  0.15460  0.17166  1.0000
  H   H2447     1.0  0.75445  0.06678  0.99121  1.0000
  H   H2448     1.0  0.88233  0.02675  0.43205  1.0000
  C   C1397     1.0  0.87858  0.15908  0.39780  1.0000
  H   H2449     1.0  0.56854  0.17059  0.41771  1.0000
  H   H2450     1.0  0.55581  0.01096  0.27227  1.0000
  S   S315      1.0  0.57773  0.15354  0.06402  1.0000
  Fe  Fe157     1.0  0.98442  0.98639  0.99370  1.0000
  C   C1398     1.0  0.69150  0.08810  0.05585  1.0000
  H   H2451     1.0  0.92219  0.96662  0.98872  1.0000
  H   H2452     1.0  0.59523  0.00582  0.28177  1.0000
  H   H2453     1.0  0.62976  0.99163  0.26852  1.0000
  H   H2454     1.0  0.55712  0.14813  0.16127  1.0000
  H   H2455     1.0  0.97082  0.13922  0.03613  1.0000
  H   H2456     1.0  0.54132  0.98002  0.27177  1.0000
  H   H2457     1.0  0.88553  0.14521  0.09106  1.0000
  C   C1399     1.0  0.57822  0.11117  0.00095  1.0000
  H   H2458     1.0  0.57894  0.97321  0.28575  1.0000
  H   H2459     1.0  0.61298  0.09505  0.12877  1.0000
  H   H2460     1.0  0.98603  0.96816  0.13788  1.0000
  C   C1400     1.0  0.93039  0.10281  0.29609  1.0000
  H   H2461     1.0  0.88964  0.97222  0.10264  1.0000
  H   H2462     1.0  0.94357  0.98765  0.28439  1.0000
  C   C1401     1.0  0.73200  0.06363  0.27897  1.0000
  C   C1402     1.0  0.62691  0.08879  0.11704  1.0000
  H   H2463     1.0  0.63931  0.06096  0.42888  1.0000
  C   C1403     1.0  0.98072  0.18828  0.21864  1.0000
  C   C1404     1.0  0.71518  0.15323  0.37161  1.0000
  C   C1405     1.0  0.79080  0.07227  0.43294  1.0000
  H   H2464     1.0  0.89326  0.10150  0.36455  1.0000
  C   C1406     1.0  0.54535  0.03390  0.18261  1.0000
  H   H2465     1.0  0.00608  0.03512  0.25470  1.0000
  H   H2466     1.0  0.74631  0.10020  0.41129  1.0000
  N   N77       1.0  0.74386  0.05484  0.15873  1.0000
  H   H2467     1.0  0.67984  0.13238  0.99632  1.0000
  H   H2468     1.0  0.65881  0.14647  0.98901  1.0000
  H   H2469     1.0  0.98242  0.17236  0.16686  1.0000
  C   C1407     1.0  0.57856  0.14375  0.47129  1.0000
  C   C1408     1.0  0.90838  0.12645  0.08234  1.0000
  C   C1409     1.0  0.68107  0.06230  0.06084  1.0000
  H   H2470     1.0  0.75531  0.17343  0.02348  1.0000
  H   H2471     1.0  0.80857  0.08801  0.39841  1.0000
  H   H2472     1.0  0.87475  0.06296  0.43791  1.0000
  H   H2473     1.0  0.93290  0.06863  0.99768  1.0000
  H   H2474     1.0  0.63581  0.03068  0.28270  1.0000
  S   S316      1.0  0.62974  0.05134  0.02152  1.0000
  H   H2475     1.0  0.85939  0.14412  0.40048  1.0000
  H   H2476     1.0  0.77841  0.12056  0.32604  1.0000
  C   C1410     1.0  0.91363  0.11382  0.36180  1.0000
  H   H2477     1.0  0.54345  0.18486  0.99473  1.0000
  H   H2478     1.0  0.75681  0.08518  0.18254  1.0000
  H   H2479     1.0  0.88386  0.04523  0.30529  1.0000
  H   H2480     1.0  0.86659  0.12064  0.98453  1.0000
  H   H2481     1.0  0.91704  0.18477  0.19939  1.0000
  C   C1411     1.0  0.78990  0.96560  0.22576  1.0000
  Fe  Fe158     1.0  0.83466  0.12301  0.20000  1.0000
  N   N78       1.0  0.87594  0.15600  0.99384  1.0000
  H   H2482     1.0  0.55600  0.96950  0.17437  1.0000
  H   H2483     1.0  0.77719  0.05789  0.42318  1.0000
  C   C1412     1.0  0.61561  0.10586  0.43736  1.0000
  Fe  Fe159     1.0  0.64837  0.12548  0.23747  1.0000
  H   H2484     1.0  0.51279  0.15388  0.32674  1.0000
  C   C1413     1.0  0.65340  0.06708  0.44736  1.0000
  C   C1414     1.0  0.74397  0.07068  0.10719  1.0000
  H   H2485     1.0  0.84018  0.00767  0.34227  1.0000
  H   H2486     1.0  0.88044  0.04953  0.37791  1.0000
  H   H2487     1.0  0.72436  0.07371  0.18313  1.0000
  H   H2488     1.0  0.84221  0.18306  0.20443  1.0000
  H   H2489     1.0  0.54557  0.11852  0.43232  1.0000
  C   C1415     1.0  0.00963  0.04367  0.13719  1.0000
  C   C1416     1.0  0.90770  0.02702  0.01662  1.0000
  H   H2490     1.0  0.66026  0.05234  0.45903  1.0000
  C   C1417     1.0  0.76451  0.16122  0.15430  1.0000
  H   H2491     1.0  0.76009  0.02079  0.22053  1.0000
  H   H2492     1.0  0.95451  0.12937  0.39618  1.0000
  H   H2493     1.0  0.85425  0.98548  0.02151  1.0000
  H   H2494     1.0  0.87817  0.97432  0.35727  1.0000
  H   H2495     1.0  0.60884  0.10227  0.01660  1.0000
  H   H2496     1.0  0.75773  0.15694  0.40292  1.0000
  S   S317      1.0  0.70016  0.12325  0.09263  1.0000
  H   H2497     1.0  0.93536  0.03586  0.10326  1.0000
  Fe  Fe160     1.0  0.63794  0.01723  0.04981  1.0000
  C   C1418     1.0  0.90015  0.15324  0.38139  1.0000
  H   H2498     1.0  0.52053  0.07669  0.42347  1.0000
  Fe  Fe161     1.0  0.99890  0.94590  0.05511  1.0000
  H   H2499     1.0  0.85251  0.98884  0.15258  1.0000
  H   H2500     1.0  0.79567  0.05241  0.31491  1.0000
  H   H2501     1.0  0.60304  0.99934  0.20008  1.0000
  H   H2502     1.0  0.77929  0.13724  0.00914  1.0000
  S   S318      1.0  0.71704  0.96959  0.44697  1.0000
  H   H2503     1.0  0.97631  0.99306  0.20499  1.0000
  C   C1419     1.0  0.69588  0.10583  0.43423  1.0000
  H   H2504     1.0  0.91196  0.01097  0.16670  1.0000
  H   H2505     1.0  0.79934  0.17867  0.02503  1.0000
  C   C1420     1.0  0.64986  0.97979  0.31663  1.0000
  S   S319      1.0  0.60022  0.98755  0.05257  1.0000
  C   C1421     1.0  0.67828  0.06875  0.14691  1.0000
  H   H2506     1.0  0.79186  0.97049  0.37749  1.0000
  H   H2507     1.0  0.91371  0.17209  0.00202  1.0000
  C   C1422     1.0  0.72335  0.01150  0.14973  1.0000
  C   C1423     1.0  0.58197  0.14066  0.20102  1.0000
  C   C1424     1.0  0.68963  0.09128  0.09889  1.0000
  C   C1425     1.0  0.93014  0.10195  0.34681  1.0000
  H   H2508     1.0  0.91901  0.16924  0.37729  1.0000
  Fe  Fe162     1.0  0.66560  0.08533  0.28376  1.0000
  H   H2509     1.0  0.84489  0.11437  0.04059  1.0000
  H   H2510     1.0  0.74171  0.01050  0.14410  1.0000
  H   H2511     1.0  0.58391  0.15603  0.39125  1.0000
  H   H2512     1.0  0.89578  0.02916  0.22573  1.0000
  C   C1426     1.0  0.94350  0.14572  0.44115  1.0000
  C   C1427     1.0  0.86336  0.03642  0.23673  1.0000
  C   C1428     1.0  0.75829  0.10359  0.33824  1.0000
  H   H2513     1.0  0.55310  0.95752  0.23937  1.0000
  S   S320      1.0  0.85898  0.95101  0.23054  1.0000
  C   C1429     1.0  0.72569  0.14423  0.46952  1.0000
  N   N79       1.0  0.72136  0.13159  0.39840  1.0000
  H   H2514     1.0  0.68128  0.98254  0.18296  1.0000
  C   C1430     1.0  0.61229  0.05925  0.13042  1.0000
  H   H2515     1.0  0.60924  0.96984  0.44300  1.0000
  S   S321      1.0  0.97505  0.06950  0.29293  1.0000
  H   H2516     1.0  0.81358  0.07330  0.48015  1.0000
  H   H2517     1.0  0.57576  0.07612  0.06031  1.0000
  H   H2518     1.0  0.92049  0.08371  0.44707  1.0000
  H   H2519     1.0  0.70254  0.95604  0.99427  1.0000
  H   H2520     1.0  0.94559  0.94236  0.24445  1.0000
  H   H2521     1.0  0.95086  0.11341  0.34285  1.0000
  C   C1431     1.0  0.84694  0.99309  0.34408  1.0000
  H   H2522     1.0  0.97300  0.17419  0.45529  1.0000
  H   H2523     1.0  0.65291  0.98629  0.47008  1.0000
  C   C1432     1.0  0.00215  0.96232  0.45750  1.0000
  S   S322      1.0  0.66778  0.12001  0.29441  1.0000
  H   H2524     1.0  0.91477  0.96411  0.34131  1.0000
  H   H2525     1.0  0.91006  0.09193  0.29743  1.0000
  S   S323      1.0  0.88082  0.12870  0.27513  1.0000
  H   H2526     1.0  0.70462  0.03572  0.26138  1.0000
  C   C1433     1.0  0.58932  0.09825  0.03758  1.0000
  H   H2527     1.0  0.86897  0.11534  0.08591  1.0000
  S   S324      1.0  0.76387  0.97193  0.22309  1.0000
  H   H2528     1.0  0.91146  0.04337  0.28242  1.0000
  H   H2529     1.0  0.51768  0.04678  0.16388  1.0000
  S   S325      1.0  0.71559  0.97620  0.31322  1.0000
  S   S326      1.0  0.80873  0.12535  0.15458  1.0000
  N   N80       1.0  0.99719  0.02129  0.12467  1.0000
  H   H2530     1.0  0.78058  0.97217  0.01314  1.0000
  C   C1434     1.0  0.67694  0.14895  0.99679  1.0000
  Fe  Fe163     1.0  0.71004  0.95315  0.39383  1.0000
  H   H2531     1.0  0.75212  0.10631  0.30517  1.0000
  H   H2532     1.0  0.72296  0.04942  0.32026  1.0000
  C   C1435     1.0  0.77524  0.04241  0.19885  1.0000
  C   C1436     1.0  0.73891  0.18232  0.34004  1.0000
  H   H2533     1.0  0.80762  0.95569  0.06117  1.0000
  C   C1437     1.0  0.65494  0.02236  0.33532  1.0000
  H   H2534     1.0  0.77546  0.05212  0.22302  1.0000
  H   H2535     1.0  0.68468  0.10866  0.46239  1.0000
  H   H2536     1.0  0.89349  0.18858  0.04278  1.0000
  H   H2537     1.0  0.00202  0.14796  0.04413  1.0000
  H   H2538     1.0  0.99794  0.18830  0.22542  1.0000
  H   H2539     1.0  0.77515  0.05025  0.12380  1.0000
  H   H2540     1.0  0.58408  0.06961  0.44640  1.0000
  S   S327      1.0  0.85510  0.17629  0.29273  1.0000
  H   H2541     1.0  0.70050  0.15325  0.39902  1.0000
  H   H2542     1.0  0.72084  0.01321  0.21864  1.0000
  H   H2543     1.0  0.90146  0.15477  0.34369  1.0000
  Fe  Fe164     1.0  0.68405  0.11814  0.16897  1.0000
  C   C1438     1.0  0.81698  0.10134  0.98469  1.0000
  H   H2544     1.0  0.89085  0.00350  0.38545  1.0000
  C   C1439     1.0  0.89143  0.03101  0.31229  1.0000
  C   C1440     1.0  0.94855  0.17727  0.17951  1.0000
  H   H2545     1.0  0.80414  0.00016  0.01710  1.0000
  S   S328      1.0  0.93443  0.16158  0.14600  1.0000
  C   C1441     1.0  0.81320  0.98107  0.18332  1.0000
  H   H2546     1.0  0.74196  0.12279  0.44852  1.0000
  S   S329      1.0  0.82033  0.10950  0.28316  1.0000
  C   C1442     1.0  0.82587  0.97022  0.33931  1.0000
  C   C1443     1.0  0.80198  0.04423  0.18498  1.0000
  Fe  Fe165     1.0  0.70569  0.14567  0.22775  1.0000
  C   C1444     1.0  0.90520  0.00753  0.99480  1.0000
  H   H2547     1.0  0.80764  0.00179  0.43841  1.0000
  H   H2548     1.0  0.67703  0.07117  0.18030  1.0000
  C   C1445     1.0  0.87514  0.01765  0.25275  1.0000
  H   H2549     1.0  0.57136  0.13979  0.23445  1.0000
  H   H2550     1.0  0.62059  0.14487  0.08017  1.0000
  H   H2551     1.0  0.80056  0.94806  0.41910  1.0000
  C   C1446     1.0  0.85973  0.97527  0.05264  1.0000
  H   H2552     1.0  0.00540  0.99393  0.17876  1.0000
  C   C1447     1.0  0.73852  0.06676  0.19167  1.0000
  C   C1448     1.0  0.79592  0.14944  0.20618  1.0000
  C   C1449     1.0  0.70021  0.98259  0.17696  1.0000
  H   H2553     1.0  0.98579  0.16195  0.41826  1.0000
  C   C1450     1.0  0.77057  0.05713  0.15112  1.0000
  C   C1451     1.0  0.92851  0.01571  0.13527  1.0000
  H   H2554     1.0  0.62038  0.11698  0.39710  1.0000
  C   C1452     1.0  0.96980  0.94339  0.34260  1.0000
  H   H2555     1.0  0.75399  0.18344  0.31141  1.0000
  H   H2556     1.0  0.75694  0.14590  0.33854  1.0000
  H   H2557     1.0  0.87406  0.05494  0.23946  1.0000
  H   H2558     1.0  0.92157  0.13399  0.32865  1.0000
  H   H2559     1.0  0.52890  0.15440  0.24531  1.0000
  H   H2560     1.0  0.70134  0.97258  0.15381  1.0000
  H   H2561     1.0  0.62563  0.00670  0.45852  1.0000
  C   C1453     1.0  0.79917  0.95619  0.38121  1.0000
  S   S330      1.0  0.98961  0.04324  0.41670  1.0000
  H   H2562     1.0  0.90916  0.01916  0.05428  1.0000
  H   H2563     1.0  0.89024  0.02969  0.02032  1.0000
  H   H2564     1.0  0.53722  0.99410  0.19543  1.0000
  H   H2565     1.0  0.63362  0.13437  0.15527  1.0000
  C   C1454     1.0  0.98818  0.99482  0.17045  1.0000
  H   H2566     1.0  0.72231  0.02180  0.11241  1.0000
  H   H2567     1.0  0.63738  0.10115  0.07560  1.0000
  H   H2568     1.0  0.87487  0.97324  0.30200  1.0000
  H   H2569     1.0  0.96714  0.00891  0.09330  1.0000
  H   H2570     1.0  0.63936  0.16030  0.31079  1.0000
  C   C1455     1.0  0.92185  0.97818  0.30024  1.0000
  H   H2571     1.0  0.91531  0.03794  0.35737  1.0000
  H   H2572     1.0  0.72358  0.06541  0.10881  1.0000
  H   H2573     1.0  0.54764  0.17883  0.07972  1.0000
  C   C1456     1.0  0.89457  0.02425  0.36436  1.0000
  C   C1457     1.0  0.67654  0.09506  0.40946  1.0000
  S   S331      1.0  0.55556  0.01989  0.04768  1.0000
  C   C1458     1.0  0.61718  0.13781  0.15622  1.0000
  H   H2574     1.0  0.66899  0.17623  0.09019  1.0000
  H   H2575     1.0  0.99561  0.04043  0.17093  1.0000
  Fe  Fe166     1.0  0.85604  0.14802  0.26316  1.0000
  H   H2576     1.0  0.94032  0.12399  0.26538  1.0000
  H   H2577     1.0  0.75170  0.16497  0.13503  1.0000
  S   S332      1.0  0.65702  0.04765  0.35020  1.0000
  C   C1459     1.0  0.94066  0.13701  0.39985  1.0000
  H   H2578     1.0  0.91316  0.96666  0.28102  1.0000
  H   H2579     1.0  0.67208  0.17128  0.31143  1.0000
  H   H2580     1.0  0.73145  0.01666  0.02370  1.0000
  C   C1460     1.0  0.76386  0.11575  0.02714  1.0000
  H   H2581     1.0  0.98129  0.04283  0.07906  1.0000
  C   C1461     1.0  0.58607  0.01541  0.46175  1.0000
  H   H2582     1.0  0.59168  0.10687  0.06367  1.0000
  H   H2583     1.0  0.80732  0.14430  0.22737  1.0000
  C   C1462     1.0  0.97271  0.96921  0.16598  1.0000
  C   C1463     1.0  0.83607  0.94644  0.08833  1.0000
  H   H2584     1.0  0.59965  0.05740  0.10778  1.0000
  S   S333      1.0  0.61408  0.13203  0.25068  1.0000
  C   C1464     1.0  0.54542  0.10535  0.46903  1.0000
  H   H2585     1.0  0.84229  0.02606  0.26056  1.0000
  S   S334      1.0  0.86947  0.16211  0.17972  1.0000
  C   C1465     1.0  0.52916  0.17417  0.10636  1.0000
  H   H2586     1.0  0.94130  0.09319  0.28691  1.0000
  Fe  Fe167     1.0  0.59379  0.02235  0.01746  1.0000
  C   C1466     1.0  0.63970  0.99586  0.29337  1.0000
  C   C1467     1.0  0.97136  0.16849  0.42507  1.0000
  H   H2587     1.0  0.65659  0.19056  0.31554  1.0000
  H   H2588     1.0  0.78624  0.07854  0.13345  1.0000
  H   H2589     1.0  0.52827  0.13759  0.47222  1.0000
  C   C1468     1.0  0.72909  0.02984  0.99073  1.0000
  C   C1469     1.0  0.73662  0.12826  0.35926  1.0000
  H   H2590     1.0  0.78456  0.16646  0.24956  1.0000
  C   C1470     1.0  0.78784  0.03453  0.35082  1.0000
  C   C1471     1.0  0.76076  0.01613  0.37317  1.0000
  C   C1472     1.0  0.00181  0.10148  0.27177  1.0000
  H   H2591     1.0  0.59310  0.13693  0.46703  1.0000
  C   C1473     1.0  0.79343  0.14267  0.16777  1.0000
  H   H2592     1.0  0.95658  0.03007  0.16752  1.0000
  H   H2593     1.0  0.54128  0.95840  0.36086  1.0000
  H   H2594     1.0  0.75878  0.08449  0.35284  1.0000
  C   C1474     1.0  0.66253  0.98511  0.34907  1.0000
  C   C1475     1.0  0.97450  0.02233  0.11006  1.0000
  H   H2595     1.0  0.78108  0.08213  0.44542  1.0000
  H   H2596     1.0  0.85330  0.17543  0.47120  1.0000
  C   C1476     1.0  0.53083  0.98591  0.08360  1.0000
  H   H2597     1.0  0.92992  0.15307  0.44878  1.0000
  H   H2598     1.0  0.85607  0.01417  0.41123  1.0000
  C   C1477     1.0  0.87792  0.06635  0.46992  1.0000
  N   N81       1.0  0.87444  0.00731  0.30638  1.0000
  C   C1478     1.0  0.60973  0.14360  0.11389  1.0000
  H   H2599     1.0  0.52478  0.14477  0.05936  1.0000
  S   S335      1.0  0.83825  0.05283  0.34860  1.0000
  C   C1479     1.0  0.58370  0.16455  0.41744  1.0000
  H   H2600     1.0  0.56125  0.10075  0.45942  1.0000
  H   H2601     1.0  0.81805  0.06563  0.16431  1.0000
  H   H2602     1.0  0.85807  0.05991  0.17049  1.0000
  C   C1480     1.0  0.73909  0.10256  0.37961  1.0000
  H   H2603     1.0  0.73880  0.98702  0.01076  1.0000
  H   H2604     1.0  0.75356  0.07579  0.26866  1.0000
  Fe  Fe168     1.0  0.89158  0.14025  0.19290  1.0000
  C   C1481     1.0  0.72198  0.02607  0.18099  1.0000
  S   S336      1.0  0.74498  0.17615  0.21866  1.0000
  C   C1482     1.0  0.69857  0.97302  0.98440  1.0000
  C   C1483     1.0  0.62947  0.11846  0.46163  1.0000
  H   H2605     1.0  0.91781  0.97919  0.05746  1.0000
  H   H2606     1.0  0.94851  0.15529  0.36303  1.0000
  Fe  Fe169     1.0  0.73092  0.95113  0.29769  1.0000
  H   H2607     1.0  0.55960  0.10788  0.02418  1.0000
  C   C1484     1.0  0.95077  0.01531  0.15335  1.0000
  H   H2608     1.0  0.75174  0.06517  0.07993  1.0000
  H   H2609     1.0  0.97618  0.18649  0.38997  1.0000
  C   C1485     1.0  0.59658  0.04066  0.18808  1.0000
  H   H2610     1.0  0.72363  0.07709  0.27080  1.0000
  H   H2611     1.0  0.96752  0.95674  0.30966  1.0000
  Fe  Fe170     1.0  0.61130  0.18788  0.99261  1.0000
  C   C1486     1.0  0.76748  0.98752  0.44273  1.0000
  S   S337      1.0  0.98575  0.97738  0.42712  1.0000
  S   S338      1.0  0.65328  0.15267  0.42660  1.0000
  C   C1487     1.0  0.55492  0.01445  0.17873  1.0000
  H   H2612     1.0  0.76976  0.98360  0.05464  1.0000
  H   H2613     1.0  0.57225  0.96922  0.37008  1.0000
  H   H2614     1.0  0.76156  0.17581  0.46488  1.0000
  H   H2615     1.0  0.63222  0.18583  0.23500  1.0000
  H   H2616     1.0  0.87411  0.11054  0.42231  1.0000
  H   H2617     1.0  0.88981  0.12324  0.45841  1.0000
  C   C1488     1.0  0.90579  0.09005  0.45368  1.0000
  Fe  Fe171     1.0  0.96041  0.03774  0.48154  1.0000
  H   H2618     1.0  0.99888  0.18839  0.99984  1.0000
  H   H2619     1.0  0.53011  0.03686  0.12170  1.0000
  Fe  Fe172     1.0  0.91399  0.99798  0.47065  1.0000
  H   H2620     1.0  0.53775  0.02927  0.22243  1.0000
  H   H2621     1.0  0.71911  0.15890  0.45417  1.0000
  C   C1489     1.0  0.59508  0.07908  0.46526  1.0000
  H   H2622     1.0  0.83142  0.95476  0.34212  1.0000
  C   C1490     1.0  0.81023  0.94680  0.09749  1.0000
  H   H2623     1.0  0.82350  0.13668  0.99087  1.0000
  H   H2624     1.0  0.55690  0.07685  0.99299  1.0000
  H   H2625     1.0  0.56649  0.01318  0.46346  1.0000
  C   C1491     1.0  0.77312  0.18645  0.98835  1.0000
  H   H2626     1.0  0.87014  0.94146  0.02356  1.0000
  H   H2627     1.0  0.57408  0.97472  0.47947  1.0000
  C   C1492     1.0  0.60413  0.95375  0.48169  1.0000
  H   H2628     1.0  0.83172  0.18889  0.46159  1.0000
  H   H2629     1.0  0.52613  0.97408  0.48283  1.0000
  H   H2630     1.0  0.72537  0.32815  0.52731  1.0000
  H   H2631     1.0  0.54029  0.33941  0.81404  1.0000
  C   C1493     1.0  0.99395  0.33942  0.60795  1.0000
  H   H2632     1.0  0.93425  0.40523  0.78254  1.0000
  C   C1494     1.0  0.81296  0.23129  0.59571  1.0000
  C   C1495     1.0  0.99318  0.29391  0.74428  1.0000
  C   C1496     1.0  0.81657  0.22352  0.64647  1.0000
  H   H2633     1.0  0.91231  0.23350  0.58877  1.0000
  C   C1497     1.0  0.76249  0.19745  0.88639  1.0000
  H   H2634     1.0  0.56118  0.21535  0.51492  1.0000
  H   H2635     1.0  0.59154  0.31429  0.62962  1.0000
  N   N82       1.0  0.96446  0.41101  0.81501  1.0000
  C   C1498     1.0  0.88845  0.36112  0.97888  1.0000
  H   H2636     1.0  0.68412  0.28788  0.74617  1.0000
  C   C1499     1.0  0.78653  0.39248  0.80896  1.0000
  H   H2637     1.0  0.64802  0.25259  0.50099  1.0000
  H   H2638     1.0  0.80369  0.33308  0.60047  1.0000
  H   H2639     1.0  0.54877  0.41925  0.88892  1.0000
  H   H2640     1.0  0.84941  0.26796  0.54683  1.0000
  H   H2641     1.0  0.97519  0.19212  0.86024  1.0000
  C   C1500     1.0  0.00410  0.42967  0.84186  1.0000
  H   H2642     1.0  0.93213  0.25778  0.83452  1.0000
  H   H2643     1.0  0.51767  0.35785  0.77100  1.0000
  H   H2644     1.0  0.74665  0.29265  0.73535  1.0000
  H   H2645     1.0  0.98270  0.34133  0.74423  1.0000
  C   C1501     1.0  0.83518  0.30417  0.66161  1.0000
  C   C1502     1.0  0.89639  0.37654  0.75447  1.0000
  H   H2646     1.0  0.78263  0.43808  0.79431  1.0000
  H   H2647     1.0  0.94374  0.35873  0.81989  1.0000
  H   H2648     1.0  0.92634  0.19153  0.66625  1.0000
  C   C1503     1.0  0.82847  0.26239  0.56091  1.0000
  C   C1504     1.0  0.63796  0.29078  0.52077  1.0000
  H   H2649     1.0  0.64117  0.40944  0.73447  1.0000
  H   H2650     1.0  0.00297  0.30140  0.70454  1.0000
  H   H2651     1.0  0.52984  0.30779  0.92750  1.0000
  C   C1505     1.0  0.55036  0.37351  0.57554  1.0000
  H   H2652     1.0  0.82807  0.27242  0.58432  1.0000
  C   C1506     1.0  0.82354  0.31147  0.62682  1.0000
  C   C1507     1.0  0.74842  0.22789  0.90204  1.0000
  C   C1508     1.0  0.58723  0.21222  0.55505  1.0000
  C   C1509     1.0  0.00767  0.42558  0.55094  1.0000
  C   C1510     1.0  0.70956  0.30883  0.53339  1.0000
  H   H2653     1.0  0.74946  0.27264  0.83535  1.0000
  H   H2654     1.0  0.95820  0.26577  0.88739  1.0000
  H   H2655     1.0  0.01023  0.31310  0.61161  1.0000
  C   C1511     1.0  0.92009  0.20376  0.67838  1.0000
  H   H2656     1.0  0.67640  0.30198  0.69173  1.0000
  H   H2657     1.0  0.88636  0.41517  0.85761  1.0000
  C   C1512     1.0  0.55959  0.33891  0.64996  1.0000
  H   H2658     1.0  0.66818  0.36034  0.67461  1.0000
  H   H2659     1.0  0.98688  0.33111  0.64957  1.0000
  C   C1513     1.0  0.57827  0.21612  0.63145  1.0000
  H   H2660     1.0  0.97652  0.29924  0.61582  1.0000
  C   C1514     1.0  0.56186  0.38186  0.60691  1.0000
  H   H2661     1.0  0.69699  0.19205  0.96023  1.0000
  Fe  Fe173     1.0  0.85103  0.23205  0.83141  1.0000
  H   H2662     1.0  0.71842  0.29600  0.68170  1.0000
  C   C1515     1.0  0.77559  0.35143  0.80020  1.0000
  C   C1516     1.0  0.55151  0.41389  0.70453  1.0000
  C   C1517     1.0  0.83452  0.30320  0.49173  1.0000
  H   H2663     1.0  0.78691  0.28850  0.56716  1.0000
  H   H2664     1.0  0.54759  0.30644  0.87629  1.0000
  H   H2665     1.0  0.79195  0.22511  0.92117  1.0000
  C   C1518     1.0  0.00811  0.29835  0.77435  1.0000
  S   S339      1.0  0.60463  0.20018  0.91944  1.0000
  H   H2666     1.0  0.74256  0.22929  0.61488  1.0000
  H   H2667     1.0  0.52057  0.39296  0.97759  1.0000
  H   H2668     1.0  0.83152  0.31014  0.51973  1.0000
  C   C1519     1.0  0.82439  0.32903  0.69887  1.0000
  H   H2669     1.0  0.75544  0.41228  0.70984  1.0000
  H   H2670     1.0  0.74191  0.32361  0.76158  1.0000
  H   H2671     1.0  0.53511  0.22228  0.57425  1.0000
  S   S340      1.0  0.64943  0.19091  0.95952  1.0000
  H   H2672     1.0  0.01059  0.33660  0.95643  1.0000
  C   C1520     1.0  0.75747  0.43253  0.69684  1.0000
  C   C1521     1.0  0.89178  0.22481  0.61395  1.0000
  H   H2673     1.0  0.72470  0.28805  0.58207  1.0000
  C   C1522     1.0  0.95260  0.38310  0.85882  1.0000
  H   H2674     1.0  0.64448  0.38118  0.80624  1.0000
  S   S341      1.0  0.65421  0.19452  0.82717  1.0000
  H   H2675     1.0  0.76640  0.43967  0.62004  1.0000
  H   H2676     1.0  0.83022  0.38835  0.81948  1.0000
  H   H2677     1.0  0.88277  0.19900  0.71756  1.0000
  C   C1523     1.0  0.74851  0.32709  0.94341  1.0000
  H   H2678     1.0  0.68711  0.41796  0.90050  1.0000
  S   S342      1.0  0.52979  0.33837  0.54059  1.0000
  H   H2679     1.0  0.66632  0.26570  0.53486  1.0000
  C   C1524     1.0  0.74112  0.30197  0.94587  1.0000
  C   C1525     1.0  0.62356  0.34034  0.75202  1.0000
  H   H2680     1.0  0.63745  0.21490  0.70627  1.0000
  C   C1526     1.0  0.53789  0.41265  0.96602  1.0000
  H   H2681     1.0  0.99142  0.21450  0.52377  1.0000
  H   H2682     1.0  0.99976  0.25057  0.73143  1.0000
  C   C1527     1.0  0.66938  0.28361  0.72796  1.0000
  C   C1528     1.0  0.65087  0.34148  0.80427  1.0000
  H   H2683     1.0  0.52642  0.22652  0.94919  1.0000
  H   H2684     1.0  0.98203  0.23797  0.82028  1.0000
  Fe  Fe174     1.0  0.64084  0.20332  0.51332  1.0000
  C   C1529     1.0  0.68055  0.23681  0.68194  1.0000
  H   H2685     1.0  0.66737  0.41099  0.84513  1.0000
  H   H2686     1.0  0.78562  0.27348  0.50417  1.0000
  S   S343      1.0  0.63064  0.22955  0.98309  1.0000
  H   H2687     1.0  0.77953  0.24163  0.54588  1.0000
  H   H2688     1.0  0.96721  0.24587  0.96646  1.0000
  H   H2689     1.0  0.92402  0.21728  0.73454  1.0000
  C   C1530     1.0  0.83074  0.42692  0.64721  1.0000
  C   C1531     1.0  0.71276  0.27566  0.68576  1.0000
  H   H2690     1.0  0.82343  0.43580  0.61832  1.0000
  H   H2691     1.0  0.75727  0.27682  0.70404  1.0000
  H   H2692     1.0  0.69148  0.31018  0.53617  1.0000
  H   H2693     1.0  0.58365  0.37450  0.80473  1.0000
  H   H2694     1.0  0.73779  0.41792  0.90800  1.0000
  H   H2695     1.0  0.98493  0.38338  0.57440  1.0000
  H   H2696     1.0  0.56556  0.27385  0.91201  1.0000
  H   H2697     1.0  0.90921  0.38921  0.87253  1.0000
  C   C1532     1.0  0.66720  0.39774  0.53324  1.0000
  H   H2698     1.0  0.97072  0.41712  0.53864  1.0000
  S   S344      1.0  0.61146  0.27041  0.87751  1.0000
  H   H2699     1.0  0.54061  0.36740  0.85649  1.0000
  H   H2700     1.0  0.77982  0.42082  0.85916  1.0000
  H   H2701     1.0  0.00353  0.22680  0.56534  1.0000
  H   H2702     1.0  0.70020  0.25563  0.76899  1.0000
  H   H2703     1.0  0.52033  0.19831  0.93787  1.0000
  C   C1533     1.0  0.75043  0.35129  0.79253  1.0000
  H   H2704     1.0  0.66047  0.39294  0.69329  1.0000
  H   H2705     1.0  0.87377  0.42116  0.56781  1.0000
  H   H2706     1.0  0.80439  0.33128  0.82996  1.0000
  H   H2707     1.0  0.91033  0.19153  0.52174  1.0000
  H   H2708     1.0  0.63080  0.32800  0.74248  1.0000
  S   S345      1.0  0.87109  0.23914  0.75499  1.0000
  H   H2709     1.0  0.60815  0.39381  0.82294  1.0000
  S   S346      1.0  0.53743  0.27576  0.54816  1.0000
  C   C1534     1.0  0.59692  0.29014  0.59646  1.0000
  C   C1535     1.0  0.75330  0.19491  0.55293  1.0000
  H   H2710     1.0  0.96893  0.40061  0.75526  1.0000
  C   C1536     1.0  0.71819  0.40593  0.50642  1.0000
  C   C1537     1.0  0.60333  0.39225  0.79036  1.0000
  N   N83       1.0  0.87992  0.19521  0.65066  1.0000
  Fe  Fe175     1.0  0.61644  0.41709  0.63206  1.0000
  Fe  Fe176     1.0  0.74594  0.36806  0.55290  1.0000
  C   C1538     1.0  0.70572  0.32092  0.94495  1.0000
  N   N84       1.0  0.99729  0.20937  0.89954  1.0000
  H   H2711     1.0  0.75895  0.31250  0.50464  1.0000
  C   C1539     1.0  0.62337  0.38931  0.75866  1.0000
  S   S347      1.0  0.53961  0.22661  0.66353  1.0000
  H   H2712     1.0  0.61301  0.30172  0.64860  1.0000
  C   C1540     1.0  0.54872  0.33086  0.61758  1.0000
  Fe  Fe177     1.0  0.66854  0.23409  0.94313  1.0000
  N   N85       1.0  0.64301  0.35816  0.76691  1.0000
  C   C1541     1.0  0.60303  0.29633  0.49263  1.0000
  C   C1542     1.0  0.91245  0.40152  0.71055  1.0000
  H   H2713     1.0  0.54811  0.40200  0.68413  1.0000
  H   H2714     1.0  0.82313  0.30478  0.59906  1.0000
  C   C1543     1.0  0.67894  0.33909  0.85807  1.0000
  S   S348      1.0  0.79727  0.35484  0.66720  1.0000
  H   H2715     1.0  0.96833  0.37866  0.86638  1.0000
  H   H2716     1.0  0.63517  0.25934  0.79830  1.0000
  H   H2717     1.0  0.87935  0.37322  0.78050  1.0000
  H   H2718     1.0  0.82030  0.22180  0.57711  1.0000
  C   C1544     1.0  0.57958  0.29846  0.78048  1.0000
  C   C1545     1.0  0.56638  0.27729  0.97936  1.0000
  H   H2719     1.0  0.88085  0.22753  0.58803  1.0000
  Fe  Fe178     1.0  0.86237  0.27277  0.72479  1.0000
  H   H2720     1.0  0.85358  0.19902  0.49319  1.0000
  H   H2721     1.0  0.72227  0.20421  0.55068  1.0000
  H   H2722     1.0  0.63441  0.32797  0.84164  1.0000
  C   C1546     1.0  0.90228  0.35585  0.76444  1.0000
  C   C1547     1.0  0.83610  0.31350  0.69699  1.0000
  N   N86       1.0  0.62704  0.30942  0.50409  1.0000
  H   H2723     1.0  0.68074  0.39524  0.72864  1.0000
  C   C1548     1.0  0.00253  0.35835  0.73371  1.0000
  H   H2724     1.0  0.84608  0.30912  0.72254  1.0000
  C   C1549     1.0  0.74212  0.27311  0.73668  1.0000
  H   H2725     1.0  0.76623  0.28330  0.87377  1.0000
  C   C1550     1.0  0.91121  0.41335  0.96661  1.0000
  C   C1551     1.0  0.92840  0.20392  0.72293  1.0000
  H   H2726     1.0  0.67511  0.37348  0.82084  1.0000
  H   H2727     1.0  0.56095  0.33677  0.88187  1.0000
  C   C1552     1.0  0.88646  0.40163  0.96295  1.0000
  S   S349      1.0  0.67561  0.21964  0.53601  1.0000
  H   H2728     1.0  0.61207  0.32986  0.53399  1.0000
  H   H2729     1.0  0.71608  0.38949  0.62469  1.0000
  H   H2730     1.0  0.83859  0.41550  0.63576  1.0000
  H   H2731     1.0  0.62926  0.27637  0.74291  1.0000
  C   C1553     1.0  0.53376  0.21277  0.94768  1.0000
  C   C1554     1.0  0.54625  0.43027  0.90916  1.0000
  H   H2732     1.0  0.57909  0.30727  0.74200  1.0000
  C   C1555     1.0  0.64381  0.27819  0.76186  1.0000
  H   H2733     1.0  0.79224  0.39321  0.69419  1.0000
  S   S350      1.0  0.76236  0.34030  0.57526  1.0000
  H   H2734     1.0  0.63281  0.27871  0.95088  1.0000
  C   C1556     1.0  0.77304  0.25417  0.85891  1.0000
  C   C1557     1.0  0.54496  0.39587  0.76042  1.0000
  H   H2735     1.0  0.65792  0.41328  0.97549  1.0000
  H   H2736     1.0  0.74323  0.26012  0.77185  1.0000
  C   C1558     1.0  0.56608  0.21559  0.54736  1.0000
  S   S351      1.0  0.82092  0.19084  0.89412  1.0000
  H   H2737     1.0  0.87259  0.23497  0.66483  1.0000
  H   H2738     1.0  0.69514  0.26645  0.57881  1.0000
  C   C1559     1.0  0.96566  0.27967  0.76568  1.0000
  Fe  Fe179     1.0  0.78835  0.36911  0.59694  1.0000
  C   C1560     1.0  0.92103  0.41102  0.84509  1.0000
  C   C1561     1.0  0.69915  0.41430  0.92307  1.0000
  H   H2739     1.0  0.71527  0.30646  0.49984  1.0000
  S   S352      1.0  0.70268  0.35376  0.57342  1.0000
  H   H2740     1.0  0.82113  0.43290  0.76566  1.0000
  C   C1562     1.0  0.51641  0.37158  0.78529  1.0000
  C   C1563     1.0  0.64035  0.37007  0.96327  1.0000
  H   H2741     1.0  0.83726  0.32678  0.86410  1.0000
  H   H2742     1.0  0.93864  0.32890  0.90711  1.0000
  H   H2743     1.0  0.53934  0.42370  0.70048  1.0000
  S   S353      1.0  0.84465  0.36060  0.96384  1.0000
  H   H2744     1.0  0.77832  0.20954  0.78452  1.0000
  C   C1564     1.0  0.68114  0.37188  0.68962  1.0000
  H   H2745     1.0  0.72873  0.27929  0.65491  1.0000
  C   C1565     1.0  0.66456  0.27061  0.49735  1.0000
  H   H2746     1.0  0.91121  0.33203  0.93297  1.0000
  H   H2747     1.0  0.99734  0.41067  0.87676  1.0000
  S   S354      1.0  0.58167  0.37531  0.68210  1.0000
  H   H2748     1.0  0.89319  0.40842  0.80618  1.0000
  S   S355      1.0  0.81626  0.41035  0.93197  1.0000
  C   C1566     1.0  0.60005  0.27537  0.92728  1.0000
  S   S356      1.0  0.90038  0.30325  0.71993  1.0000
  H   H2749     1.0  0.90478  0.19656  0.93501  1.0000
  H   H2750     1.0  0.90183  0.28425  0.61631  1.0000
  S   S357      1.0  0.62835  0.42420  0.87558  1.0000
  H   H2751     1.0  0.99945  0.42370  0.58819  1.0000
  H   H2752     1.0  0.56683  0.40155  0.60275  1.0000
  C   C1567     1.0  0.87517  0.37551  0.96901  1.0000
  H   H2753     1.0  0.80748  0.23075  0.66831  1.0000
  H   H2754     1.0  0.78256  0.21436  0.85970  1.0000
  H   H2755     1.0  0.88367  0.39803  0.56148  1.0000
  Fe  Fe180     1.0  0.90725  0.26899  0.75752  1.0000
  H   H2756     1.0  0.54897  0.40881  0.77844  1.0000
  H   H2757     1.0  0.78629  0.25920  0.61202  1.0000
  Fe  Fe181     1.0  0.77256  0.38109  0.97052  1.0000
  H   H2758     1.0  0.65438  0.32771  0.79278  1.0000
  C   C1568     1.0  0.66653  0.38074  0.71992  1.0000
  C   C1569     1.0  0.59328  0.21229  0.59739  1.0000
  C   C1570     1.0  0.68882  0.28302  0.62918  1.0000
  S   S358      1.0  0.83951  0.26330  0.80146  1.0000
  S   S359      1.0  0.76957  0.39477  0.58087  1.0000
  H   H2759     1.0  0.64628  0.25198  0.71298  1.0000
  H   H2760     1.0  0.69727  0.23910  0.65475  1.0000
  C   C1571     1.0  0.59482  0.29687  0.63976  1.0000
  C   C1572     1.0  0.63091  0.36973  0.79226  1.0000
  H   H2761     1.0  0.66898  0.27835  0.62750  1.0000
  H   H2762     1.0  0.91665  0.36190  0.84613  1.0000
  H   H2763     1.0  0.74136  0.23230  0.93202  1.0000
  C   C1573     1.0  0.71612  0.28640  0.94706  1.0000
  H   H2764     1.0  0.90913  0.31608  0.89381  1.0000
  H   H2765     1.0  0.78446  0.29550  0.80842  1.0000
  H   H2766     1.0  0.58478  0.33195  0.79267  1.0000
  S   S360      1.0  0.82050  0.39507  0.52060  1.0000
  C   C1574     1.0  0.80685  0.41914  0.80485  1.0000
  H   H2767     1.0  0.69833  0.42712  0.76089  1.0000
  H   H2768     1.0  0.79971  0.36148  0.86730  1.0000
  C   C1575     1.0  0.90233  0.41964  0.82546  1.0000
  H   H2769     1.0  0.54411  0.31134  0.62127  1.0000
  S   S361      1.0  0.60584  0.20889  0.50962  1.0000
  H   H2770     1.0  0.64656  0.29317  0.54950  1.0000
  C   C1576     1.0  0.99183  0.43304  0.51959  1.0000
  H   H2771     1.0  0.90762  0.41734  0.70281  1.0000
  H   H2772     1.0  0.71100  0.23897  0.74054  1.0000
  H   H2773     1.0  0.63589  0.32423  0.55684  1.0000
  H   H2774     1.0  0.81630  0.33165  0.90404  1.0000
  H   H2775     1.0  0.00929  0.20403  0.83530  1.0000
  H   H2776     1.0  0.69172  0.32780  0.94631  1.0000
  H   H2777     1.0  0.56310  0.32549  0.67884  1.0000
  H   H2778     1.0  0.57515  0.33489  0.97347  1.0000
  N   N87       1.0  0.82004  0.27284  0.51741  1.0000
  H   H2779     1.0  0.84500  0.19151  0.69475  1.0000
  C   C1577     1.0  0.90802  0.43958  0.50013  1.0000
  H   H2780     1.0  0.94215  0.38177  0.89414  1.0000
  Fe  Fe182     1.0  0.62660  0.24225  0.90720  1.0000
  H   H2781     1.0  0.60060  0.27299  0.60787  1.0000
  H   H2782     1.0  0.99605  0.43106  0.66434  1.0000
  H   H2783     1.0  0.83772  0.23249  0.64062  1.0000
  H   H2784     1.0  0.57764  0.28366  0.59191  1.0000
  H   H2785     1.0  0.53138  0.43588  0.90044  1.0000
  H   H2786     1.0  0.72635  0.30740  0.82972  1.0000
  C   C1578     1.0  0.56654  0.36458  0.64404  1.0000
  H   H2787     1.0  0.77467  0.39750  0.78689  1.0000
  C   C1579     1.0  0.69731  0.38064  0.54404  1.0000
  S   S362      1.0  0.94708  0.27395  0.72799  1.0000
  C   C1580     1.0  0.93462  0.40586  0.67679  1.0000
  C   C1581     1.0  0.68812  0.42307  0.49574  1.0000
  H   H2788     1.0  0.93019  0.34502  0.73991  1.0000
  H   H2789     1.0  0.65382  0.23510  0.63884  1.0000
  H   H2790     1.0  0.80156  0.42095  0.70779  1.0000
  H   H2791     1.0  0.64782  0.29512  0.76993  1.0000
  H   H2792     1.0  0.90611  0.24470  0.65853  1.0000
  H   H2793     1.0  0.51238  0.33905  0.90858  1.0000
  C   C1582     1.0  0.59534  0.32070  0.79208  1.0000
  C   C1583     1.0  0.81731  0.39430  0.73943  1.0000
  C   C1584     1.0  0.55128  0.21957  0.58100  1.0000
  H   H2794     1.0  0.95239  0.43831  0.77262  1.0000
  C   C1585     1.0  0.61882  0.31492  0.54650  1.0000
  H   H2795     1.0  0.62176  0.26937  0.54083  1.0000
  Fe  Fe183     1.0  0.79958  0.41840  0.50240  1.0000
  C   C1586     1.0  0.65104  0.43626  0.81648  1.0000
  C   C1587     1.0  0.67183  0.37664  0.55779  1.0000
  H   H2796     1.0  0.73750  0.43009  0.70385  1.0000
  H   H2797     1.0  0.73029  0.27471  0.49110  1.0000
  C   C1588     1.0  0.75010  0.25115  0.60140  1.0000
  H   H2798     1.0  0.82336  0.38184  0.72752  1.0000
  H   H2799     1.0  0.73290  0.22380  0.88564  1.0000
  H   H2800     1.0  0.77815  0.25168  0.82517  1.0000
  H   H2801     1.0  0.80683  0.20123  0.66893  1.0000
  N   N88       1.0  0.75187  0.20374  0.92552  1.0000
  H   H2802     1.0  0.85764  0.28289  0.95963  1.0000
  H   H2803     1.0  0.92512  0.43691  0.49043  1.0000
  Fe  Fe184     1.0  0.51535  0.24260  0.62810  1.0000
  C   C1589     1.0  0.59680  0.34746  0.95322  1.0000
  H   H2804     1.0  0.64743  0.39449  0.54362  1.0000
  C   C1590     1.0  0.79098  0.26308  0.53541  1.0000
  H   H2805     1.0  0.00248  0.32501  0.55559  1.0000
  H   H2806     1.0  0.76634  0.21102  0.51506  1.0000
  H   H2807     1.0  0.69931  0.40845  0.61682  1.0000
  C   C1591     1.0  0.70526  0.39632  0.64424  1.0000
  H   H2808     1.0  0.55353  0.22494  0.91733  1.0000
  H   H2809     1.0  0.54640  0.38665  0.54737  1.0000
  H   H2810     1.0  0.66277  0.33097  0.89370  1.0000
  H   H2811     1.0  0.74223  0.25866  0.57232  1.0000
  C   C1592     1.0  0.54405  0.34819  0.58045  1.0000
  S   S363      1.0  0.84811  0.28314  0.66059  1.0000
  C   C1593     1.0  0.94351  0.41680  0.80120  1.0000
  H   H2812     1.0  0.68575  0.37149  0.95407  1.0000
  H   H2813     1.0  0.55887  0.38821  0.76263  1.0000
  C   C1594     1.0  0.99827  0.23228  0.76079  1.0000
  C   C1595     1.0  0.00620  0.39891  0.55677  1.0000
  C   C1596     1.0  0.65296  0.19729  0.67064  1.0000
  H   H2814     1.0  0.67813  0.22232  0.71966  1.0000
  H   H2815     1.0  0.98125  0.23542  0.89474  1.0000
  H   H2816     1.0  0.66052  0.24233  0.75748  1.0000
  H   H2817     1.0  0.87752  0.20011  0.55697  1.0000
  C   C1597     1.0  0.52810  0.32963  0.85462  1.0000
  C   C1598     1.0  0.98148  0.41312  0.76955  1.0000
  C   C1599     1.0  0.89090  0.41887  0.55561  1.0000
  H   H2818     1.0  0.90263  0.42186  0.57978  1.0000
  S   S364      1.0  0.70764  0.25517  0.94947  1.0000
  C   C1600     1.0  0.80825  0.40831  0.69859  1.0000
  H   H2819     1.0  0.98650  0.36666  0.65540  1.0000
  C   C1601     1.0  0.83153  0.34150  0.86606  1.0000
  C   C1602     1.0  0.78012  0.26682  0.58007  1.0000
  C   C1603     1.0  0.76792  0.27780  0.84319  1.0000
  H   H2820     1.0  0.74299  0.25347  0.63422  1.0000
  C   C1604     1.0  0.99552  0.28799  0.82613  1.0000
  C   C1605     1.0  0.81203  0.37009  0.82735  1.0000
  C   C1606     1.0  0.66817  0.42631  0.81206  1.0000
  H   H2821     1.0  0.75464  0.43490  0.96447  1.0000
  C   C1607     1.0  0.96805  0.27386  0.84741  1.0000
  C   C1608     1.0  0.55739  0.22005  0.62297  1.0000
  H   H2822     1.0  0.73796  0.40937  0.49613  1.0000
  H   H2823     1.0  0.69794  0.35096  0.86054  1.0000
  C   C1609     1.0  0.61403  0.27773  0.95928  1.0000
  C   C1610     1.0  0.97169  0.21156  0.97368  1.0000
  C   C1611     1.0  0.89234  0.24311  0.63789  1.0000
  C   C1612     1.0  0.97637  0.21464  0.92005  1.0000
  H   H2824     1.0  0.61508  0.38253  0.73345  1.0000
  C   C1613     1.0  0.54262  0.31977  0.88685  1.0000
  H   H2825     1.0  0.79153  0.22219  0.60428  1.0000
  H   H2826     1.0  0.95818  0.38884  0.66142  1.0000
  H   H2827     1.0  0.65566  0.35725  0.58725  1.0000
  C   C1614     1.0  0.66486  0.25892  0.72049  1.0000
  H   H2828     1.0  0.83623  0.35931  0.78713  1.0000
  C   C1615     1.0  0.65490  0.22202  0.67388  1.0000
  H   H2829     1.0  0.00047  0.37449  0.73855  1.0000
  H   H2830     1.0  0.88753  0.27163  0.57743  1.0000
  C   C1616     1.0  0.81237  0.33588  0.66445  1.0000
  C   C1617     1.0  0.92254  0.33257  0.89956  1.0000
  H   H2831     1.0  0.92017  0.43353  0.96158  1.0000
  H   H2832     1.0  0.58840  0.28541  0.78324  1.0000
  H   H2833     1.0  0.69790  0.30365  0.62468  1.0000
  C   C1618     1.0  0.93355  0.35965  0.85234  1.0000
  H   H2834     1.0  0.51948  0.39479  0.84587  1.0000
  H   H2835     1.0  0.71862  0.40924  0.65652  1.0000
  C   C1619     1.0  0.82081  0.34999  0.82450  1.0000
  H   H2836     1.0  0.68771  0.35901  0.71342  1.0000
  H   H2837     1.0  0.79031  0.25988  0.87042  1.0000
  N   N89       1.0  0.68674  0.26350  0.67941  1.0000
  H   H2838     1.0  0.67606  0.34192  0.49601  1.0000
  H   H2839     1.0  0.67890  0.32202  0.85361  1.0000
  H   H2840     1.0  0.99414  0.40441  0.78010  1.0000
  S   S365      1.0  0.65611  0.42183  0.60642  1.0000
  H   H2841     1.0  0.69374  0.36731  0.77961  1.0000
  H   H2842     1.0  0.67894  0.28389  0.94792  1.0000
  H   H2843     1.0  0.83587  0.41025  0.73687  1.0000
  H   H2844     1.0  0.75495  0.36837  0.75639  1.0000
  H   H2845     1.0  0.59575  0.31099  0.83017  1.0000
  H   H2846     1.0  0.57792  0.27922  0.67414  1.0000
  C   C1620     1.0  0.57648  0.27573  0.93665  1.0000
  C   C1621     1.0  0.67576  0.35754  0.81319  1.0000
  Fe  Fe185     1.0  0.79340  0.36787  0.49739  1.0000
  H   H2847     1.0  0.81774  0.41553  0.83027  1.0000
  H   H2848     1.0  0.60359  0.33619  0.93892  1.0000
  C   C1622     1.0  0.81239  0.32747  0.62786  1.0000
  C   C1623     1.0  0.79354  0.43345  0.81919  1.0000
  H   H2849     1.0  0.62183  0.35260  0.71669  1.0000
  C   C1624     1.0  0.00795  0.38117  0.64146  1.0000
  C   C1625     1.0  0.94096  0.38544  0.68730  1.0000
  S   S366      1.0  0.74000  0.36814  0.94069  1.0000
  H   H2850     1.0  0.76810  0.33496  0.83965  1.0000
  H   H2851     1.0  0.71986  0.40562  0.87214  1.0000
  C   C1626     1.0  0.99605  0.31796  0.59691  1.0000
  C   C1627     1.0  0.69837  0.29590  0.94656  1.0000
  H   H2852     1.0  0.97887  0.34275  0.59438  1.0000
  H   H2853     1.0  0.67015  0.20335  0.63902  1.0000
  H   H2854     1.0  0.81525  0.21131  0.97040  1.0000
  H   H2855     1.0  0.60280  0.41058  0.76694  1.0000
  H   H2856     1.0  0.84905  0.35918  0.86167  1.0000
  C   C1628     1.0  0.95320  0.26967  0.81728  1.0000
  H   H2857     1.0  0.82502  0.33601  0.72651  1.0000
  H   H2858     1.0  0.55908  0.28568  0.80841  1.0000
  C   C1629     1.0  0.73208  0.32526  0.79332  1.0000
  H   H2859     1.0  0.93107  0.22476  0.64698  1.0000
  C   C1630     1.0  0.99496  0.20883  0.85145  1.0000
  H   H2860     1.0  0.77259  0.37934  0.84881  1.0000
  H   H2861     1.0  0.58300  0.21637  0.66399  1.0000
  H   H2862     1.0  0.92884  0.42207  0.86538  1.0000
  H   H2863     1.0  0.94988  0.21158  0.71194  1.0000
  S   S367      1.0  0.88749  0.25986  0.83633  1.0000
  Fe  Fe186     1.0  0.87815  0.29210  0.79844  1.0000
  Fe  Fe187     1.0  0.64423  0.20610  0.88569  1.0000
  C   C1631     1.0  0.73091  0.33672  0.94289  1.0000
  N   N90       1.0  0.79765  0.37735  0.79305  1.0000
  H   H2864     1.0  0.92146  0.28103  0.57024  1.0000
  H   H2865     1.0  0.00912  0.39884  0.64484  1.0000
  S   S368      1.0  0.66578  0.24950  0.86672  1.0000
  H   H2866     1.0  0.58775  0.27697  0.52647  1.0000
  H   H2867     1.0  0.78307  0.34444  0.77547  1.0000
  S   S369      1.0  0.88141  0.32432  0.81836  1.0000
  H   H2868     1.0  0.61352  0.35344  0.82728  1.0000
  H   H2869     1.0  0.92785  0.19067  0.82360  1.0000
  C   C1632     1.0  0.92491  0.36053  0.73132  1.0000
  C   C1633     1.0  0.90138  0.27172  0.59774  1.0000
  C   C1634     1.0  0.70525  0.28513  0.58139  1.0000
  H   H2870     1.0  0.58005  0.43200  0.49587  1.0000
  H   H2871     1.0  0.73943  0.35245  0.82382  1.0000
  C   C1635     1.0  0.99849  0.23471  0.80868  1.0000
  H   H2872     1.0  0.81487  0.24029  0.50143  1.0000
  H   H2873     1.0  0.71398  0.32532  0.78895  1.0000
  C   C1636     1.0  0.71460  0.25887  0.73592  1.0000
  H   H2874     1.0  0.60125  0.36636  0.92068  1.0000
  H   H2875     1.0  0.73928  0.20529  0.83911  1.0000
  S   S370      1.0  0.95485  0.43688  0.62188  1.0000
  H   H2876     1.0  0.75489  0.29467  0.94657  1.0000
  H   H2877     1.0  0.95708  0.20115  0.92031  1.0000
  H   H2878     1.0  0.64478  0.38962  0.93277  1.0000
  H   H2879     1.0  0.60953  0.20957  0.60366  1.0000
  H   H2880     1.0  0.76785  0.33892  0.94218  1.0000
  H   H2881     1.0  0.57251  0.42996  0.68688  1.0000
  Fe  Fe188     1.0  0.51478  0.29440  0.56734  1.0000
  C   C1637     1.0  0.77179  0.21060  0.95035  1.0000
  H   H2882     1.0  0.52110  0.41318  0.52356  1.0000
  C   C1638     1.0  0.68421  0.38522  0.96836  1.0000
  H   H2883     1.0  0.96755  0.42844  0.86504  1.0000
  H   H2884     1.0  0.64656  0.36069  0.94267  1.0000
  C   C1639     1.0  0.88983  0.19138  0.69371  1.0000
  H   H2885     1.0  0.55468  0.40994  0.97153  1.0000
  H   H2886     1.0  0.87632  0.41288  0.95466  1.0000
  H   H2887     1.0  0.70454  0.42929  0.93688  1.0000
  C   C1640     1.0  0.52173  0.34921  0.86664  1.0000
  H   H2888     1.0  0.93256  0.21325  0.84925  1.0000
  H   H2889     1.0  0.76791  0.22087  0.97135  1.0000
  C   C1641     1.0  0.72436  0.41990  0.88760  1.0000
  H   H2890     1.0  0.90944  0.19303  0.60416  1.0000
  C   C1642     1.0  0.98019  0.43113  0.83018  1.0000
  H   H2891     1.0  0.97969  0.21446  0.76879  1.0000
  C   C1643     1.0  0.00932  0.22508  0.53087  1.0000
  C   C1644     1.0  0.68568  0.43543  0.76434  1.0000
  H   H2892     1.0  0.90383  0.20098  0.83296  1.0000
  C   C1645     1.0  0.92403  0.39854  0.97824  1.0000
  H   H2893     1.0  0.93834  0.21832  0.97199  1.0000
  H   H2894     1.0  0.99045  0.22218  0.97785  1.0000
  C   C1646     1.0  0.91751  0.19560  0.84867  1.0000
  H   H2895     1.0  0.99939  0.28999  0.97799  1.0000
  H   H2896     1.0  0.59421  0.30941  0.48352  1.0000
  H   H2897     1.0  0.87434  0.30934  0.48624  1.0000
  H   H2898     1.0  0.87983  0.34102  0.98315  1.0000
  H   H2899     1.0  0.72884  0.36854  0.11619  1.0000
  C   C1647     1.0  0.66477  0.21028  0.08760  1.0000
  H   H2900     1.0  0.79636  0.26031  0.19965  1.0000
  C   C1648     1.0  0.85981  0.26932  0.99254  1.0000
  H   H2901     1.0  0.58644  0.41941  0.38338  1.0000
  C   C1649     1.0  0.83696  0.33172  0.20945  1.0000
  H   H2902     1.0  0.65443  0.29551  0.44504  1.0000
  C   C1650     1.0  0.69585  0.26843  0.08999  1.0000
  C   C1651     1.0  0.71570  0.32672  0.16306  1.0000
  S   S371      1.0  0.59941  0.35899  0.17159  1.0000
  H   H2903     1.0  0.57136  0.40859  0.27759  1.0000
  C   C1652     1.0  0.79796  0.24338  0.19791  1.0000
  C   C1653     1.0  0.96630  0.19569  0.24506  1.0000
  H   H2904     1.0  0.98952  0.27886  0.13115  1.0000
  H   H2905     1.0  0.85800  0.22337  0.12341  1.0000
  H   H2906     1.0  0.80201  0.32071  0.13812  1.0000
  C   C1654     1.0  0.75014  0.28956  0.46447  1.0000
  H   H2907     1.0  0.68440  0.36168  0.12390  1.0000
  H   H2908     1.0  0.82613  0.31143  0.46435  1.0000
  H   H2909     1.0  0.68978  0.21257  0.22994  1.0000
  Fe  Fe189     1.0  0.92627  0.33785  0.16657  1.0000
  H   H2910     1.0  0.81868  0.36804  0.29104  1.0000
  C   C1655     1.0  0.84163  0.40215  0.29920  1.0000
  H   H2911     1.0  0.64368  0.20084  0.09205  1.0000
  H   H2912     1.0  0.92282  0.21876  0.11164  1.0000
  C   C1656     1.0  0.68497  0.40156  0.27877  1.0000
  C   C1657     1.0  0.64820  0.43047  0.37843  1.0000
  C   C1658     1.0  0.64614  0.34900  0.04499  1.0000
  H   H2913     1.0  0.85231  0.39311  0.31875  1.0000
  N   N91       1.0  0.92264  0.24952  0.36351  1.0000
  H   H2914     1.0  0.66537  0.36623  0.48158  1.0000
  H   H2915     1.0  0.65996  0.38531  0.08120  1.0000
  C   C1659     1.0  0.56349  0.41828  0.29479  1.0000
  H   H2916     1.0  0.62006  0.20428  0.16951  1.0000
  C   C1660     1.0  0.68688  0.34471  0.14363  1.0000
  H   H2917     1.0  0.79799  0.26434  0.44364  1.0000
  S   S372      1.0  0.93557  0.30816  0.15625  1.0000
  H   H2918     1.0  0.52686  0.24653  0.27881  1.0000
  H   H2919     1.0  0.72208  0.31128  0.04189  1.0000
  S   S373      1.0  0.65801  0.36856  0.31598  1.0000
  H   H2920     1.0  0.76810  0.26465  0.05967  1.0000
  C   C1661     1.0  0.84199  0.35131  0.23161  1.0000
  H   H2921     1.0  0.65318  0.26038  0.40841  1.0000
  H   H2922     1.0  0.60261  0.36472  0.00273  1.0000
  Fe  Fe190     1.0  0.81278  0.42072  0.99536  1.0000
  H   H2923     1.0  0.53591  0.21573  0.07485  1.0000
  H   H2924     1.0  0.55551  0.24299  0.19008  1.0000
  H   H2925     1.0  0.91420  0.24453  0.10122  1.0000
  H   H2926     1.0  0.86602  0.41786  0.19621  1.0000
  H   H2927     1.0  0.85792  0.35195  0.24654  1.0000
  H   H2928     1.0  0.89795  0.26368  0.42935  1.0000
  C   C1662     1.0  0.55571  0.25082  0.21740  1.0000
  S   S374      1.0  0.81889  0.38856  0.04693  1.0000
  H   H2929     1.0  0.57330  0.33545  0.48131  1.0000
  H   H2930     1.0  0.81948  0.32820  0.19877  1.0000
  H   H2931     1.0  0.78567  0.27774  0.13231  1.0000
  H   H2932     1.0  0.76753  0.23427  0.13975  1.0000
  C   C1663     1.0  0.88758  0.34275  0.30407  1.0000
  C   C1664     1.0  0.66827  0.29709  0.19942  1.0000
  N   N92       1.0  0.66076  0.22071  0.16331  1.0000
  C   C1665     1.0  0.51537  0.38255  0.32896  1.0000
  H   H2933     1.0  0.96320  0.23711  0.33517  1.0000
  H   H2934     1.0  0.77794  0.22714  0.20785  1.0000
  S   S375      1.0  0.74755  0.33149  0.15525  1.0000
  H   H2935     1.0  0.83747  0.42135  0.15906  1.0000
  C   C1666     1.0  0.83134  0.27576  0.05239  1.0000
  C   C1667     1.0  0.65955  0.29412  0.47867  1.0000
  H   H2936     1.0  0.69857  0.34042  0.24383  1.0000
  H   H2937     1.0  0.96446  0.27532  0.27135  1.0000
  Fe  Fe191     1.0  0.94825  0.37451  0.05196  1.0000
  H   H2938     1.0  0.79506  0.22686  0.27624  1.0000
  C   C1668     1.0  0.56497  0.28077  0.18747  1.0000
  C   C1669     1.0  0.67024  0.42724  0.35234  1.0000
  H   H2939     1.0  0.91058  0.31046  0.41023  1.0000
  H   H2940     1.0  0.56813  0.29023  0.21217  1.0000
  H   H2941     1.0  0.55046  0.28379  0.17115  1.0000
  S   S376      1.0  0.95900  0.34683  0.03498  1.0000
  C   C1670     1.0  0.60998  0.35350  0.98947  1.0000
  C   C1671     1.0  0.64677  0.33635  0.45845  1.0000
  C   C1672     1.0  0.64430  0.32448  0.03897  1.0000
  N   N93       1.0  0.71863  0.33569  0.29716  1.0000
  H   H2942     1.0  0.61395  0.27908  0.02836  1.0000
  C   C1673     1.0  0.77436  0.24987  0.06052  1.0000
  H   H2943     1.0  0.64868  0.21573  0.23904  1.0000
  C   C1674     1.0  0.86256  0.19764  0.05466  1.0000
  C   C1675     1.0  0.66493  0.31896  0.17365  1.0000
  C   C1676     1.0  0.87441  0.25082  0.15177  1.0000
  H   H2944     1.0  0.70081  0.30255  0.10115  1.0000
  S   S377      1.0  0.76882  0.39518  0.02766  1.0000
  H   H2945     1.0  0.90211  0.27127  0.33882  1.0000
  H   H2946     1.0  0.66420  0.41618  0.23587  1.0000
  H   H2947     1.0  0.56075  0.22812  0.12788  1.0000
  H   H2948     1.0  0.82840  0.29075  0.23148  1.0000
  H   H2949     1.0  0.91592  0.40790  0.45497  1.0000
  H   H2950     1.0  0.95010  0.42471  0.34900  1.0000
  C   C1677     1.0  0.55875  0.21112  0.12124  1.0000
  H   H2951     1.0  0.62075  0.37895  0.39137  1.0000
  C   C1678     1.0  0.78402  0.24188  0.10500  1.0000
  H   H2952     1.0  0.56410  0.42935  0.04176  1.0000
  C   C1679     1.0  0.80177  0.32753  0.39611  1.0000
  S   S378      1.0  0.90767  0.34193  0.10837  1.0000
  C   C1680     1.0  0.80176  0.40338  0.14695  1.0000
  H   H2953     1.0  0.70814  0.26415  0.06674  1.0000
  C   C1681     1.0  0.59842  0.42137  0.44617  1.0000
  H   H2954     1.0  0.83869  0.24172  0.07191  1.0000
  H   H2955     1.0  0.69803  0.30047  0.37209  1.0000
  H   H2956     1.0  0.74745  0.39173  0.22364  1.0000
  C   C1682     1.0  0.52974  0.31815  0.20251  1.0000
  H   H2957     1.0  0.93297  0.24524  0.04799  1.0000
  H   H2958     1.0  0.65882  0.35264  0.06731  1.0000
  H   H2959     1.0  0.55025  0.21311  0.00480  1.0000
  C   C1683     1.0  0.69486  0.37357  0.41927  1.0000
  C   C1684     1.0  0.71297  0.29652  0.08253  1.0000
  C   C1685     1.0  0.73032  0.20202  0.31226  1.0000
  Fe  Fe192     1.0  0.62526  0.34237  0.19543  1.0000
  C   C1686     1.0  0.82677  0.30899  0.10327  1.0000
  H   H2960     1.0  0.88446  0.27217  0.19391  1.0000
  C   C1687     1.0  0.79685  0.19600  0.00396  1.0000
  C   C1688     1.0  0.94485  0.26712  0.26835  1.0000
  H   H2961     1.0  0.65125  0.27716  0.22304  1.0000
  Fe  Fe193     1.0  0.62622  0.39580  0.17465  1.0000
  C   C1689     1.0  0.66589  0.31833  0.04940  1.0000
  H   H2962     1.0  0.73875  0.32277  0.37736  1.0000
  H   H2963     1.0  0.60348  0.33395  0.02233  1.0000
  H   H2964     1.0  0.76151  0.28544  0.29672  1.0000
  H   H2965     1.0  0.90276  0.20691  0.41628  1.0000
  H   H2966     1.0  0.99997  0.42235  0.13491  1.0000
  H   H2967     1.0  0.85480  0.42427  0.27622  1.0000
  H   H2968     1.0  0.89330  0.37245  0.17473  1.0000
  N   N94       1.0  0.51867  0.20626  0.29498  1.0000
  H   H2969     1.0  0.00655  0.28269  0.19988  1.0000
  H   H2970     1.0  0.89812  0.35822  0.42065  1.0000
  H   H2971     1.0  0.72565  0.29050  0.33723  1.0000
  C   C1690     1.0  0.83144  0.30425  0.24851  1.0000
  S   S379      1.0  0.60322  0.32349  0.27837  1.0000
  H   H2972     1.0  0.93312  0.28532  0.40614  1.0000
  H   H2973     1.0  0.57832  0.38983  0.18541  1.0000
  H   H2974     1.0  0.67325  0.19975  0.02931  1.0000
  S   S380      1.0  0.97668  0.20691  0.28678  1.0000
  S   S381      1.0  0.88918  0.27946  0.09202  1.0000
  C   C1691     1.0  0.66703  0.20513  0.13992  1.0000
  S   S382      1.0  0.77489  0.39326  0.47302  1.0000
  H   H2975     1.0  0.54279  0.40913  0.10563  1.0000
  H   H2976     1.0  0.52238  0.29704  0.42418  1.0000
  H   H2977     1.0  0.84493  0.31950  0.06977  1.0000
  S   S383      1.0  0.66684  0.21530  0.43688  1.0000
  C   C1692     1.0  0.98847  0.33311  0.24584  1.0000
  C   C1693     1.0  0.69367  0.31225  0.34078  1.0000
  S   S384      1.0  0.00915  0.33994  0.10665  1.0000
  H   H2978     1.0  0.66395  0.31238  0.08929  1.0000
  H   H2979     1.0  0.71481  0.20123  0.33954  1.0000
  H   H2980     1.0  0.55510  0.20813  0.30180  1.0000
  C   C1694     1.0  0.89197  0.43623  0.46548  1.0000
  C   C1695     1.0  0.81932  0.32981  0.10369  1.0000
  H   H2981     1.0  0.63130  0.38623  0.03155  1.0000
  C   C1696     1.0  0.89663  0.39314  0.15427  1.0000
  H   H2982     1.0  0.58366  0.40022  0.09468  1.0000
  C   C1697     1.0  0.73327  0.32634  0.27087  1.0000
  H   H2983     1.0  0.69617  0.28416  0.21484  1.0000
  H   H2984     1.0  0.70477  0.38169  0.17755  1.0000
  H   H2985     1.0  0.54809  0.27742  0.98668  1.0000
  C   C1698     1.0  0.00821  0.41198  0.15951  1.0000
  H   H2986     1.0  0.70157  0.24409  0.15280  1.0000
  C   C1699     1.0  0.98484  0.24554  0.38145  1.0000
  H   H2987     1.0  0.84812  0.20040  0.03777  1.0000
  H   H2988     1.0  0.72865  0.29719  0.09816  1.0000
  H   H2989     1.0  0.84080  0.41346  0.10859  1.0000
  N   N95       1.0  0.52258  0.41085  0.05264  1.0000
  H   H2990     1.0  0.72263  0.19702  0.28449  1.0000
  H   H2991     1.0  0.82898  0.28899  0.01919  1.0000
  S   S385      1.0  0.90387  0.32313  0.24759  1.0000
  H   H2992     1.0  0.89012  0.20816  0.98631  1.0000
  C   C1700     1.0  0.54934  0.38596  0.07376  1.0000
  H   H2993     1.0  0.86875  0.21096  0.38230  1.0000
  H   H2994     1.0  0.85416  0.33959  0.17588  1.0000
  H   H2995     1.0  0.51220  0.33074  0.43110  1.0000
  H   H2996     1.0  0.84833  0.30635  0.26098  1.0000
  H   H2997     1.0  0.63652  0.41379  0.30762  1.0000
  H   H2998     1.0  0.57628  0.21866  0.08849  1.0000
  H   H2999     1.0  0.52263  0.37762  0.30005  1.0000
  C   C1701     1.0  0.68245  0.42140  0.24237  1.0000
  H   H3000     1.0  0.73946  0.28512  0.26279  1.0000
  H   H3001     1.0  0.61008  0.38196  0.44527  1.0000
  C   C1702     1.0  0.80417  0.28612  0.10081  1.0000
  Fe  Fe194     1.0  0.97387  0.34339  0.09871  1.0000
  C   C1703     1.0  0.57661  0.40744  0.17766  1.0000
  H   H3002     1.0  0.86868  0.23416  0.40437  1.0000
  H   H3003     1.0  0.81635  0.23873  0.42038  1.0000
  H   H3004     1.0  0.69878  0.20856  0.05420  1.0000
  H   H3005     1.0  0.59093  0.22603  0.17826  1.0000
  H   H3006     1.0  0.56422  0.42671  0.45213  1.0000
  H   H3007     1.0  0.75713  0.36506  0.28801  1.0000
  H   H3008     1.0  0.68572  0.33603  0.02443  1.0000
  H   H3009     1.0  0.57043  0.24901  0.23413  1.0000
  H   H3010     1.0  0.79370  0.20452  0.02894  1.0000
  H   H3011     1.0  0.66281  0.40647  0.35845  1.0000
  H   H3012     1.0  0.87786  0.28129  0.99769  1.0000
  S   S386      1.0  0.51680  0.42188  0.20131  1.0000
  S   S387      1.0  0.60574  0.37976  0.25679  1.0000
  C   C1704     1.0  0.72298  0.39495  0.18026  1.0000
  C   C1705     1.0  0.94334  0.19430  0.23797  1.0000
  C   C1706     1.0  0.87233  0.21717  0.41137  1.0000
  C   C1707     1.0  0.91888  0.27352  0.35198  1.0000
  S   S388      1.0  0.51232  0.24191  0.47105  1.0000
  H   H3013     1.0  0.79021  0.39994  0.18355  1.0000
  H   H3014     1.0  0.82175  0.26778  0.36586  1.0000
  H   H3015     1.0  0.61103  0.20033  0.41883  1.0000
  C   C1708     1.0  0.81944  0.27205  0.43348  1.0000
  N   N96       1.0  0.65575  0.37463  0.99680  1.0000
  C   C1709     1.0  0.92951  0.39555  0.24244  1.0000
  H   H3016     1.0  0.62650  0.34259  0.07066  1.0000
  C   C1710     1.0  0.51337  0.42549  0.07450  1.0000
  C   C1711     1.0  0.75442  0.29786  0.27326  1.0000
  H   H3017     1.0  0.53440  0.38436  0.21081  1.0000
  H   H3018     1.0  0.89400  0.30099  0.37051  1.0000
  Fe  Fe195     1.0  0.57934  0.34283  0.25398  1.0000
  C   C1712     1.0  0.85270  0.20247  0.20133  1.0000
  H   H3019     1.0  0.67447  0.23200  0.06040  1.0000
  S   S389      1.0  0.81213  0.35694  0.44532  1.0000
  C   C1713     1.0  0.67721  0.19789  0.06422  1.0000
  H   H3020     1.0  0.62644  0.23467  0.21066  1.0000
  H   H3021     1.0  0.94700  0.21568  0.02682  1.0000
  C   C1714     1.0  0.00107  0.26925  0.12501  1.0000
  H   H3022     1.0  0.83623  0.34694  0.10214  1.0000
  H   H3023     1.0  0.68155  0.25626  0.17028  1.0000
  C   C1715     1.0  0.60943  0.38678  0.40676  1.0000
  N   N97       1.0  0.80895  0.26397  0.10079  1.0000
  C   C1716     1.0  0.60964  0.24552  0.15530  1.0000
  H   H3024     1.0  0.86992  0.39301  0.24034  1.0000
  C   C1717     1.0  0.71356  0.42703  0.48203  1.0000
  C   C1718     1.0  0.51184  0.32803  0.39739  1.0000
  C   C1719     1.0  0.98876  0.33582  0.19828  1.0000
  C   C1720     1.0  0.53372  0.19974  0.11028  1.0000
  C   C1721     1.0  0.51564  0.31266  0.17173  1.0000
  H   H3025     1.0  0.51426  0.23596  0.23778  1.0000
  H   H3026     1.0  0.52610  0.22408  0.36671  1.0000
  C   C1722     1.0  0.76613  0.31085  0.47204  1.0000
  H   H3027     1.0  0.87336  0.35868  0.34642  1.0000
  H   H3028     1.0  0.61170  0.27262  0.46175  1.0000
  H   H3029     1.0  0.79043  0.38654  0.13998  1.0000
  H   H3030     1.0  0.56138  0.23166  0.40028  1.0000
  H   H3031     1.0  0.97711  0.25046  0.04301  1.0000
  H   H3032     1.0  0.80923  0.21493  0.24040  1.0000
  S   S390      1.0  0.00787  0.32763  0.32144  1.0000
  C   C1723     1.0  0.59904  0.43310  0.15211  1.0000
  H   H3033     1.0  0.87555  0.21670  0.05398  1.0000
  H   H3034     1.0  0.55897  0.43158  0.26641  1.0000
  H   H3035     1.0  0.87715  0.35086  0.48007  1.0000
  C   C1724     1.0  0.88893  0.36317  0.31502  1.0000
  C   C1725     1.0  0.90702  0.34874  0.26200  1.0000
  H   H3036     1.0  0.62268  0.30668  0.41393  1.0000
  C   C1726     1.0  0.69362  0.30105  0.19482  1.0000
  H   H3037     1.0  0.94321  0.37968  0.19895  1.0000
  C   C1727     1.0  0.94675  0.25789  0.22886  1.0000
  C   C1728     1.0  0.63215  0.24274  0.16919  1.0000
  C   C1729     1.0  0.71060  0.35223  0.25955  1.0000
  H   H3038     1.0  0.68392  0.28024  0.31911  1.0000
  H   H3039     1.0  0.92378  0.42895  0.08169  1.0000
  H   H3040     1.0  0.80513  0.42233  0.11612  1.0000
  H   H3041     1.0  0.60600  0.41227  0.31705  1.0000
  H   H3042     1.0  0.68715  0.20846  0.13684  1.0000
  C   C1730     1.0  0.86954  0.22979  0.24016  1.0000
  H   H3043     1.0  0.99001  0.24807  0.15659  1.0000
  H   H3044     1.0  0.99858  0.22377  0.05731  1.0000
  H   H3045     1.0  0.63688  0.25413  0.36618  1.0000
  Fe  Fe196     1.0  0.52530  0.26868  0.07899  1.0000
  H   H3046     1.0  0.61353  0.25214  0.11443  1.0000
  H   H3047     1.0  0.70214  0.36249  0.40552  1.0000
  C   C1731     1.0  0.92977  0.24049  0.08799  1.0000
  C   C1732     1.0  0.79178  0.33000  0.43750  1.0000
  C   C1733     1.0  0.80828  0.23280  0.23881  1.0000
  H   H3048     1.0  0.73782  0.40903  0.14143  1.0000
  S   S391      1.0  0.63350  0.31382  0.17646  1.0000
  C   C1734     1.0  0.83213  0.38994  0.26605  1.0000
  H   H3049     1.0  0.74400  0.37364  0.18825  1.0000
  H   H3050     1.0  0.64456  0.32657  0.00143  1.0000
  C   C1735     1.0  0.52783  0.23511  0.25841  1.0000
  C   C1736     1.0  0.57075  0.33975  0.44441  1.0000
  C   C1737     1.0  0.76004  0.28763  0.42214  1.0000
  N   N98       1.0  0.00369  0.26946  0.07495  1.0000
  S   S392      1.0  0.53638  0.32919  0.28045  1.0000
  H   H3051     1.0  0.67823  0.31277  0.46621  1.0000
  C   C1738     1.0  0.81640  0.25220  0.14498  1.0000
  H   H3052     1.0  0.85022  0.28936  0.05312  1.0000
  C   C1739     1.0  0.92810  0.37508  0.23132  1.0000
  H   H3053     1.0  0.78988  0.25892  0.02345  1.0000
  Fe  Fe197     1.0  0.70068  0.22759  0.46262  1.0000
  Fe  Fe198     1.0  0.63225  0.36286  0.27040  1.0000
  H   H3054     1.0  0.74739  0.22286  0.29157  1.0000
  H   H3055     1.0  0.54383  0.19676  0.41648  1.0000
  H   H3056     1.0  0.82414  0.34142  0.26557  1.0000
  H   H3057     1.0  0.77132  0.31494  0.23832  1.0000
  H   H3058     1.0  0.62515  0.30640  0.06706  1.0000
  C   C1740     1.0  0.54362  0.22439  0.34701  1.0000
  C   C1741     1.0  0.64916  0.27006  0.37439  1.0000
  H   H3059     1.0  0.90375  0.40415  0.17510  1.0000
  C   C1742     1.0  0.85549  0.39593  0.22336  1.0000
  C   C1743     1.0  0.62529  0.42249  0.31991  1.0000
  H   H3060     1.0  0.87293  0.23154  0.27261  1.0000
  H   H3061     1.0  0.52287  0.30774  0.14417  1.0000
  S   S393      1.0  0.96583  0.37351  0.11163  1.0000
  H   H3062     1.0  0.68029  0.26903  0.07509  1.0000
  C   C1744     1.0  0.92278  0.24388  0.31960  1.0000
  C   C1745     1.0  0.75672  0.36034  0.37847  1.0000
  H   H3063     1.0  0.54490  0.37918  0.04595  1.0000
  H   H3064     1.0  0.68286  0.27553  0.46991  1.0000
  C   C1746     1.0  0.82706  0.26115  0.39967  1.0000
  H   H3065     1.0  0.87105  0.32248  0.32725  1.0000
  H   H3066     1.0  0.58390  0.29099  0.15572  1.0000
  C   C1747     1.0  0.95500  0.25807  0.09257  1.0000
  H   H3067     1.0  0.92717  0.24714  0.22697  1.0000
  H   H3068     1.0  0.78603  0.22401  0.11010  1.0000
  S   S394      1.0  0.95326  0.41143  0.98913  1.0000
  C   C1748     1.0  0.54530  0.41012  0.06797  1.0000
  C   C1749     1.0  0.00889  0.33625  0.16660  1.0000
  C   C1750     1.0  0.95898  0.23679  0.37214  1.0000
  H   H3069     1.0  0.97330  0.33762  0.18652  1.0000
  C   C1751     1.0  0.67469  0.29113  0.32882  1.0000
  H   H3070     1.0  0.63711  0.34835  0.44480  1.0000
  C   C1752     1.0  0.92193  0.41868  0.41324  1.0000
  H   H3071     1.0  0.92362  0.22512  0.32802  1.0000
  H   H3072     1.0  0.73121  0.36927  0.31287  1.0000
  H   H3073     1.0  0.60772  0.26102  0.16302  1.0000
  H   H3074     1.0  0.75791  0.31981  0.31413  1.0000
  C   C1753     1.0  0.71217  0.34852  0.13826  1.0000
  H   H3075     1.0  0.71873  0.40686  0.19627  1.0000
  C   C1754     1.0  0.66761  0.40280  0.04316  1.0000
  H   H3076     1.0  0.90407  0.23983  0.31304  1.0000
  C   C1755     1.0  0.66392  0.42429  0.05099  1.0000
  H   H3077     1.0  0.83141  0.30143  0.13752  1.0000
  H   H3078     1.0  0.83660  0.26671  0.13924  1.0000
  C   C1756     1.0  0.95498  0.22355  0.98534  1.0000
  C   C1757     1.0  0.73630  0.35363  0.31445  1.0000
  H   H3079     1.0  0.81979  0.36622  0.16298  1.0000
  H   H3080     1.0  0.53425  0.40715  0.36248  1.0000
  C   C1758     1.0  0.97660  0.25124  0.07866  1.0000
  H   H3081     1.0  0.64944  0.26337  0.15020  1.0000
  H   H3082     1.0  0.68899  0.41097  0.02556  1.0000
  H   H3083     1.0  0.65418  0.33416  0.42561  1.0000
  C   C1759     1.0  0.87121  0.39258  0.14800  1.0000
  S   S395      1.0  0.51183  0.29647  0.03775  1.0000
  H   H3084     1.0  0.69787  0.35767  0.27872  1.0000
  S   S396      1.0  0.77702  0.34746  0.02067  1.0000
  C   C1760     1.0  0.55697  0.21753  0.38453  1.0000
  H   H3085     1.0  0.82997  0.29433  0.41092  1.0000
  H   H3086     1.0  0.54721  0.31660  0.19970  1.0000
  H   H3087     1.0  0.97330  0.33368  0.26933  1.0000
  H   H3088     1.0  0.82189  0.34180  0.37020  1.0000
  C   C1761     1.0  0.65241  0.39458  0.01023  1.0000
  C   C1762     1.0  0.90979  0.38957  0.28411  1.0000
  C   C1763     1.0  0.70892  0.40836  0.28602  1.0000
  C   C1764     1.0  0.82814  0.40584  0.14779  1.0000
  H   H3089     1.0  0.95992  0.27584  0.19149  1.0000
  H   H3090     1.0  0.84855  0.26884  0.38673  1.0000
  H   H3091     1.0  0.57839  0.37265  0.37637  1.0000
  S   S397      1.0  0.65493  0.38135  0.18804  1.0000
  H   H3092     1.0  0.71638  0.33280  0.39672  1.0000
  H   H3093     1.0  0.90206  0.22686  0.44479  1.0000
  S   S398      1.0  0.56692  0.27906  0.06724  1.0000
  H   H3094     1.0  0.94992  0.25408  0.13237  1.0000
  H   H3095     1.0  0.98192  0.24473  0.41894  1.0000
  C   C1765     1.0  0.57985  0.27838  0.01264  1.0000
  H   H3096     1.0  0.64189  0.23311  0.11114  1.0000
  H   H3097     1.0  0.96261  0.42757  0.39807  1.0000
  H   H3098     1.0  0.86837  0.31561  0.42818  1.0000
  C   C1766     1.0  0.91849  0.40755  0.10286  1.0000
  C   C1767     1.0  0.74243  0.30821  0.30314  1.0000
  C   C1768     1.0  0.73570  0.34016  0.36908  1.0000
  H   H3099     1.0  0.72100  0.31533  0.25450  1.0000
  Fe  Fe199     1.0  0.77514  0.36253  0.07585  1.0000
  C   C1769     1.0  0.73333  0.37858  0.21268  1.0000
  H   H3100     1.0  0.57571  0.21945  0.36545  1.0000
  H   H3101     1.0  0.94465  0.21576  0.40206  1.0000
  C   C1770     1.0  0.90068  0.22477  0.41058  1.0000
  C   C1771     1.0  0.58346  0.43513  0.45670  1.0000
  H   H3102     1.0  0.55804  0.19550  0.15548  1.0000
  H   H3103     1.0  0.94049  0.28374  0.25399  1.0000
  H   H3104     1.0  0.93629  0.40701  0.10814  1.0000
  H   H3105     1.0  0.64266  0.41686  0.06817  1.0000
  H   H3106     1.0  0.99952  0.43581  0.48116  1.0000
  H   H3107     1.0  0.68546  0.41776  0.41214  1.0000
  H   H3108     1.0  0.57654  0.29433  0.42367  1.0000
  C   C1772     1.0  0.67065  0.35410  0.46753  1.0000
  H   H3109     1.0  0.66392  0.30127  0.04282  1.0000
  C   C1773     1.0  0.57753  0.39254  0.06868  1.0000
  H   H3110     1.0  0.93611  0.29189  0.31940  1.0000
  C   C1774     1.0  0.78587  0.30662  0.38815  1.0000
  N   N99       1.0  0.62200  0.41679  0.37374  1.0000
  H   H3111     1.0  0.54388  0.38246  0.36684  1.0000
  H   H3112     1.0  0.87689  0.41401  0.12442  1.0000
  H   H3113     1.0  0.58619  0.39942  0.47275  1.0000
  H   H3114     1.0  0.82453  0.39795  0.32857  1.0000
  H   H3115     1.0  0.92239  0.36087  0.99333  1.0000
  H   H3116     1.0  0.53161  0.34237  0.36708  1.0000
  C   C1775     1.0  0.94834  0.25602  0.37183  1.0000
  H   H3117     1.0  0.88110  0.41450  0.47604  1.0000
  H   H3118     1.0  0.00900  0.41768  0.18984  1.0000
  H   H3119     1.0  0.56726  0.37437  0.43272  1.0000
  N   N100      1.0  0.84835  0.37948  0.19641  1.0000
  C   C1776     1.0  0.55156  0.40430  0.19225  1.0000
  H   H3120     1.0  0.81346  0.29475  0.28199  1.0000
  H   H3121     1.0  0.96406  0.27683  0.34282  1.0000
  C   C1777     1.0  0.58195  0.27856  0.43837  1.0000
  H   H3122     1.0  0.75494  0.37860  0.36932  1.0000
  S   S399      1.0  0.91019  0.41496  0.29690  1.0000
  C   C1778     1.0  0.85874  0.20461  0.24218  1.0000
  C   C1779     1.0  0.63832  0.22433  0.15211  1.0000
  C   C1780     1.0  0.82474  0.37818  0.18316  1.0000
  H   H3123     1.0  0.75584  0.20976  0.06705  1.0000
  H   H3124     1.0  0.81864  0.24248  0.03423  1.0000
  H   H3125     1.0  0.91214  0.39749  0.08011  1.0000
  C   C1781     1.0  0.83572  0.25513  0.04049  1.0000
  H   H3126     1.0  0.68965  0.38544  0.39007  1.0000
  H   H3127     1.0  0.80097  0.29612  0.06568  1.0000
  C   C1782     1.0  0.65172  0.20431  0.22015  1.0000
  H   H3128     1.0  0.96938  0.23018  0.10765  1.0000
  C   C1783     1.0  0.52074  0.32491  0.23780  1.0000
  Fe  Fe200     1.0  0.91940  0.31428  0.09496  1.0000
  H   H3129     1.0  0.75134  0.34379  0.23857  1.0000
  H   H3130     1.0  0.55754  0.24538  0.31631  1.0000
  C   C1784     1.0  0.60699  0.28908  0.44974  1.0000
  H   H3131     1.0  0.75435  0.35101  0.41891  1.0000
  H   H3132     1.0  0.59122  0.40798  0.02930  1.0000
  H   H3133     1.0  0.96128  0.27942  0.06747  1.0000
  C   C1785     1.0  0.00816  0.33046  0.26232  1.0000
  C   C1786     1.0  0.91259  0.37242  0.98447  1.0000
  H   H3134     1.0  0.86556  0.38287  0.12425  1.0000
  H   H3135     1.0  0.71070  0.38748  0.42641  1.0000
  H   H3136     1.0  0.94668  0.25623  0.40840  1.0000
  H   H3137     1.0  0.99985  0.26642  0.35145  1.0000
  H   H3138     1.0  0.57893  0.37406  0.07804  1.0000
  H   H3139     1.0  0.99501  0.38982  0.17772  1.0000
  H   H3140     1.0  0.94578  0.41590  0.21875  1.0000
  H   H3141     1.0  0.54954  0.32782  0.45188  1.0000
  H   H3142     1.0  0.81433  0.33760  0.07009  1.0000
  H   H3143     1.0  0.80693  0.36713  0.21797  1.0000
  H   H3144     1.0  0.63780  0.27954  0.38231  1.0000
  H   H3145     1.0  0.74831  0.44018  0.26453  1.0000
  H   H3146     1.0  0.82051  0.39861  0.24952  1.0000
  C   C1787     1.0  0.91551  0.28055  0.39544  1.0000
  H   H3147     1.0  0.53597  0.36858  0.11189  1.0000
  H   H3148     1.0  0.58506  0.27234  0.40928  1.0000
  C   C1788     1.0  0.87690  0.25290  0.19504  1.0000
  C   C1789     1.0  0.58049  0.36962  0.41314  1.0000
  H   H3149     1.0  0.66905  0.30037  0.29721  1.0000
  H   H3150     1.0  0.71122  0.39309  0.31303  1.0000
  C   C1790     1.0  0.87741  0.34772  0.44653  1.0000
  H   H3151     1.0  0.68251  0.32005  0.35690  1.0000
  H   H3152     1.0  0.87776  0.42357  0.39774  1.0000
  H   H3153     1.0  0.77665  0.36626  0.35530  1.0000
  H   H3154     1.0  0.79369  0.30492  0.35584  1.0000
  H   H3155     1.0  0.82816  0.24870  0.23115  1.0000
  C   C1791     1.0  0.69245  0.43356  0.37257  1.0000
  C   C1792     1.0  0.68501  0.24718  0.14635  1.0000
  H   H3156     1.0  0.58170  0.33364  0.42328  1.0000
  H   H3157     1.0  0.83896  0.42255  0.37720  1.0000
  H   H3158     1.0  0.74454  0.23159  0.03349  1.0000
  C   C1793     1.0  0.91214  0.30525  0.37925  1.0000
  C   C1794     1.0  0.53900  0.39688  0.34239  1.0000
  H   H3159     1.0  0.73403  0.21635  0.10159  1.0000
  H   H3160     1.0  0.81721  0.23411  0.14744  1.0000
  H   H3161     1.0  0.95541  0.24464  0.23755  1.0000
  C   C1795     1.0  0.86101  0.22542  0.15582  1.0000
  C   C1796     1.0  0.60505  0.42707  0.39046  1.0000
  C   C1797     1.0  0.94516  0.41647  0.39042  1.0000
  H   H3162     1.0  0.92928  0.32289  0.34520  1.0000
  H   H3163     1.0  0.86698  0.35687  0.42633  1.0000
  S   S400      1.0  0.74098  0.26240  0.40911  1.0000
  C   C1798     1.0  0.54866  0.42673  0.18303  1.0000
  H   H3164     1.0  0.93988  0.39499  0.40706  1.0000
  H   H3165     1.0  0.64595  0.42273  0.41897  1.0000
  H   H3166     1.0  0.90546  0.40807  0.40300  1.0000
  C   C1799     1.0  0.75073  0.22531  0.06618  1.0000
  H   H3167     1.0  0.99249  0.23199  0.38034  1.0000
  H   H3168     1.0  0.56537  0.26084  0.47294  1.0000
  C   C1800     1.0  0.60372  0.27873  0.00241  1.0000
  H   H3169     1.0  0.61650  0.42942  0.45453  1.0000
  C   C1801     1.0  0.72995  0.43499  0.25826  1.0000
  C   C1802     1.0  0.53628  0.20460  0.32498  1.0000
  H   H3170     1.0  0.93182  0.19955  0.25875  1.0000
  H   H3171     1.0  0.61407  0.20419  0.35644  1.0000
  H   H3172     1.0  0.67381  0.42921  0.07649  1.0000
  C   C1803     1.0  0.87919  0.19065  0.02491  1.0000
  H   H3173     1.0  0.00351  0.30713  0.04482  1.0000
  H   H3174     1.0  0.54014  0.19818  0.24468  1.0000
  S   S401      1.0  0.63042  0.43660  0.13281  1.0000
  C   C1804     1.0  0.53152  0.42629  0.99570  1.0000
  H   H3175     1.0  0.84714  0.26829  0.46997  1.0000
  H   H3176     1.0  0.70916  0.43404  0.34948  1.0000
  C   C1805     1.0  0.86451  0.31765  0.46278  1.0000
  H   H3177     1.0  0.69553  0.38477  0.99399  1.0000
  C   C1806     1.0  0.67041  0.19507  0.24035  1.0000
  C   C1807     1.0  0.85164  0.19370  0.46255  1.0000
  C   C1808     1.0  0.53557  0.19782  0.99834  1.0000
  H   H3178     1.0  0.99653  0.43822  0.23352  1.0000
  H   H3179     1.0  0.51712  0.19496  0.14163  1.0000
  H   H3180     1.0  0.57874  0.43123  0.30425  1.0000
  C   C1809     1.0  0.51943  0.19148  0.26541  1.0000
  Fe  Fe201     1.0  0.81996  0.37676  0.98598  1.0000
  C   C1810     1.0  0.82609  0.26273  0.48168  1.0000
  H   H3181     1.0  0.86213  0.25411  0.98430  1.0000
  H   H3182     1.0  0.51152  0.19687  0.23489  1.0000
  H   H3183     1.0  0.51684  0.43163  0.98434  1.0000
  C   C1811     1.0  0.84495  0.48754  0.85431  1.0000
  C   C1812     1.0  0.73675  0.54217  0.91928  1.0000
  H   H3184     1.0  0.60006  0.48303  0.49477  1.0000
  H   H3185     1.0  0.75455  0.48746  0.81226  1.0000
  C   C1813     1.0  0.93270  0.50440  0.86050  1.0000
  C   C1814     1.0  0.65854  0.57229  0.80552  1.0000
  C   C1815     1.0  0.64534  0.65017  0.95819  1.0000
  H   H3186     1.0  0.96211  0.59726  0.71223  1.0000
  S   S402      1.0  0.62447  0.49116  0.85425  1.0000
  H   H3187     1.0  0.99320  0.58470  0.70882  1.0000
  H   H3188     1.0  0.55049  0.63246  0.86931  1.0000
  C   C1816     1.0  0.00820  0.66669  0.74692  1.0000
  Fe  Fe202     1.0  0.66684  0.52288  0.81638  1.0000
  C   C1817     1.0  0.60608  0.49865  0.62666  1.0000
  S   S403      1.0  0.96794  0.50814  0.55314  1.0000
  C   C1818     1.0  0.72415  0.60466  0.96484  1.0000
  C   C1819     1.0  0.56881  0.47268  0.72396  1.0000
  H   H3189     1.0  0.91463  0.68465  0.88675  1.0000
  H   H3190     1.0  0.78595  0.51687  0.79117  1.0000
  C   C1820     1.0  0.87818  0.48145  0.51005  1.0000
  H   H3191     1.0  0.94776  0.66296  0.84990  1.0000
  C   C1821     1.0  0.68519  0.45361  0.72104  1.0000
  H   H3192     1.0  0.88715  0.55982  0.71126  1.0000
  S   S404      1.0  0.54084  0.67620  0.85351  1.0000
  H   H3193     1.0  0.54979  0.44599  0.98026  1.0000
  H   H3194     1.0  0.57999  0.57690  0.93845  1.0000
  C   C1822     1.0  0.84246  0.49383  0.71106  1.0000
  H   H3195     1.0  0.56535  0.44898  0.89456  1.0000
  H   H3196     1.0  0.75129  0.54203  0.66818  1.0000
  S   S405      1.0  0.54481  0.45392  0.78467  1.0000
  H   H3197     1.0  0.59520  0.64309  0.75841  1.0000
  H   H3198     1.0  0.83536  0.67832  0.88931  1.0000
  C   C1823     1.0  0.71470  0.64347  0.59499  1.0000
  H   H3199     1.0  0.95639  0.55893  0.85902  1.0000
  C   C1824     1.0  0.91431  0.52791  0.88878  1.0000
  H   H3200     1.0  0.75790  0.51732  0.53393  1.0000
  H   H3201     1.0  0.59396  0.50727  0.50580  1.0000
  H   H3202     1.0  0.71747  0.53709  0.94111  1.0000
  H   H3203     1.0  0.74653  0.52355  0.80575  1.0000
  C   C1825     1.0  0.67837  0.58191  0.76039  1.0000
  H   H3204     1.0  0.00204  0.64637  0.90659  1.0000
  H   H3205     1.0  0.68234  0.60413  0.93358  1.0000
  Fe  Fe203     1.0  0.62840  0.49593  0.92215  1.0000
  C   C1826     1.0  0.62055  0.55323  0.71649  1.0000
  N   N101      1.0  0.79200  0.49787  0.56511  1.0000
  C   C1827     1.0  0.69268  0.62671  0.58203  1.0000
  C   C1828     1.0  0.78644  0.55552  0.86160  1.0000
  H   H3206     1.0  0.54428  0.48353  0.68666  1.0000
  H   H3207     1.0  0.79592  0.58861  0.61590  1.0000
  H   H3208     1.0  0.75186  0.55176  0.54743  1.0000
  N   N102      1.0  0.82549  0.65850  0.97034  1.0000
  S   S406      1.0  0.60394  0.67837  0.87256  1.0000
  S   S407      1.0  0.81081  0.60566  0.85294  1.0000
  H   H3209     1.0  0.55980  0.65041  0.72619  1.0000
  C   C1829     1.0  0.56575  0.52202  0.95583  1.0000
  C   C1830     1.0  0.52793  0.57642  0.50545  1.0000
  H   H3210     1.0  0.81931  0.59622  0.64610  1.0000
  H   H3211     1.0  0.80843  0.54073  0.51666  1.0000
  H   H3212     1.0  0.71577  0.53252  0.63524  1.0000
  H   H3213     1.0  0.64311  0.61200  0.57269  1.0000
  H   H3214     1.0  0.52797  0.62529  0.83856  1.0000
  H   H3215     1.0  0.83577  0.47042  0.89327  1.0000
  H   H3216     1.0  0.55669  0.46400  0.48492  1.0000
  C   C1831     1.0  0.00680  0.55729  0.73827  1.0000
  H   H3217     1.0  0.83746  0.53102  0.58081  1.0000
  H   H3218     1.0  0.59815  0.46631  0.75030  1.0000
  H   H3219     1.0  0.55598  0.66391  0.76794  1.0000
  C   C1832     1.0  0.83414  0.51097  0.58682  1.0000
  H   H3220     1.0  0.76710  0.51563  0.87017  1.0000
  H   H3221     1.0  0.87134  0.52025  0.59757  1.0000
  Fe  Fe204     1.0  0.96724  0.52362  0.60839  1.0000
  Fe  Fe205     1.0  0.72408  0.67265  0.78929  1.0000
  C   C1833     1.0  0.80288  0.63378  0.97588  1.0000
  H   H3222     1.0  0.67514  0.55974  0.51417  1.0000
  H   H3223     1.0  0.88297  0.47124  0.54089  1.0000
  C   C1834     1.0  0.68177  0.61488  0.80464  1.0000
  H   H3224     1.0  0.90626  0.64838  0.83722  1.0000
  S   S408      1.0  0.83873  0.61515  0.72018  1.0000
  H   H3225     1.0  0.57017  0.57663  0.60539  1.0000
  C   C1835     1.0  0.80946  0.61301  0.96936  1.0000
  H   H3226     1.0  0.78091  0.48677  0.64480  1.0000
  H   H3227     1.0  0.61506  0.51377  0.76409  1.0000
  H   H3228     1.0  0.64544  0.58078  0.86362  1.0000
  H   H3229     1.0  0.59300  0.55704  0.64789  1.0000
  H   H3230     1.0  0.98710  0.45196  0.80084  1.0000
  H   H3231     1.0  0.91537  0.45988  0.49702  1.0000
  H   H3232     1.0  0.91650  0.47242  0.83980  1.0000
  C   C1836     1.0  0.95605  0.48219  0.83347  1.0000
  H   H3233     1.0  0.82899  0.67261  0.77551  1.0000
  H   H3234     1.0  0.58900  0.65560  0.79969  1.0000
  H   H3235     1.0  0.78425  0.55339  0.69517  1.0000
  H   H3236     1.0  0.81836  0.51078  0.96815  1.0000
  S   S409      1.0  0.89932  0.62813  0.67919  1.0000
  C   C1837     1.0  0.86101  0.51301  0.57445  1.0000
  C   C1838     1.0  0.56982  0.66047  0.74633  1.0000
  H   H3237     1.0  0.63538  0.56482  0.72849  1.0000
  S   S410      1.0  0.88387  0.68655  0.61275  1.0000
  C   C1839     1.0  0.78351  0.57406  0.87405  1.0000
  H   H3238     1.0  0.56054  0.64244  0.97825  1.0000
  C   C1840     1.0  0.00313  0.66210  0.58257  1.0000
  H   H3239     1.0  0.81602  0.50925  0.70098  1.0000
  H   H3240     1.0  0.77516  0.65587  0.88668  1.0000
  S   S411      1.0  0.51492  0.52181  0.88272  1.0000
  H   H3241     1.0  0.80537  0.56063  0.83854  1.0000
  C   C1841     1.0  0.51918  0.61311  0.63482  1.0000
  H   H3242     1.0  0.81103  0.63803  0.56775  1.0000
  Fe  Fe206     1.0  0.66244  0.45274  0.53138  1.0000
  N   N103      1.0  0.91773  0.51935  0.84907  1.0000
  H   H3243     1.0  0.63176  0.49112  0.66430  1.0000
  H   H3244     1.0  0.70468  0.55075  0.65869  1.0000
  H   H3245     1.0  0.75607  0.58164  0.91184  1.0000
  H   H3246     1.0  0.64107  0.65246  0.92330  1.0000
  H   H3247     1.0  0.58859  0.59841  0.62750  1.0000
  C   C1842     1.0  0.74739  0.60301  0.80184  1.0000
  H   H3248     1.0  0.92328  0.48836  0.90092  1.0000
  H   H3249     1.0  0.59723  0.52476  0.79568  1.0000
  H   H3250     1.0  0.00771  0.68144  0.55112  1.0000
  H   H3251     1.0  0.75438  0.47284  0.62665  1.0000
  C   C1843     1.0  0.86640  0.49833  0.71706  1.0000
  S   S412      1.0  0.83926  0.55924  0.70142  1.0000
  C   C1844     1.0  0.59357  0.47508  0.71761  1.0000
  H   H3252     1.0  0.84677  0.44357  0.64864  1.0000
  C   C1845     1.0  0.57123  0.50227  0.90290  1.0000
  H   H3253     1.0  0.82992  0.47558  0.71077  1.0000
  H   H3254     1.0  0.76932  0.58823  0.97644  1.0000
  Fe  Fe207     1.0  0.84363  0.61257  0.79217  1.0000
  C   C1846     1.0  0.54079  0.58147  0.73755  1.0000
  C   C1847     1.0  0.57924  0.64360  0.78191  1.0000
  H   H3255     1.0  0.87337  0.52747  0.53390  1.0000
  C   C1848     1.0  0.54277  0.59963  0.79941  1.0000
  H   H3256     1.0  0.52776  0.58931  0.72574  1.0000
  S   S413      1.0  0.53535  0.51542  0.76054  1.0000
  N   N104      1.0  0.64944  0.58089  0.62110  1.0000
  S   S414      1.0  0.68068  0.49316  0.83538  1.0000
  C   C1849     1.0  0.74202  0.55466  0.66418  1.0000
  H   H3257     1.0  0.85872  0.49293  0.58352  1.0000
  H   H3258     1.0  0.88135  0.48108  0.89124  1.0000
  H   H3259     1.0  0.00203  0.55585  0.77623  1.0000
  H   H3260     1.0  0.65054  0.66901  0.96048  1.0000
  H   H3261     1.0  0.84780  0.48014  0.82702  1.0000
  S   S415      1.0  0.94441  0.48245  0.67619  1.0000
  H   H3262     1.0  0.72555  0.63291  0.60819  1.0000
  C   C1850     1.0  0.76895  0.50789  0.78045  1.0000
  H   H3263     1.0  0.93214  0.57644  0.70714  1.0000
  H   H3264     1.0  0.63535  0.55476  0.95585  1.0000
  S   S416      1.0  0.62711  0.50914  0.56690  1.0000
  C   C1851     1.0  0.92959  0.56805  0.78455  1.0000
  H   H3265     1.0  0.73985  0.51568  0.75706  1.0000
  H   H3266     1.0  0.79282  0.56222  0.74109  1.0000
  H   H3267     1.0  0.60433  0.63374  0.84933  1.0000
  H   H3268     1.0  0.93507  0.60319  0.72052  1.0000
  S   S417      1.0  0.70115  0.45896  0.66180  1.0000
  C   C1852     1.0  0.67819  0.56653  0.57883  1.0000
  H   H3269     1.0  0.53014  0.67593  0.60435  1.0000
  H   H3270     1.0  0.94054  0.57945  0.80201  1.0000
  H   H3271     1.0  0.69461  0.57769  0.58846  1.0000
  H   H3272     1.0  0.51146  0.56650  0.54178  1.0000
  H   H3273     1.0  0.78909  0.57246  0.97945  1.0000
  H   H3274     1.0  0.71733  0.64524  0.73953  1.0000
  C   C1853     1.0  0.51918  0.59086  0.90723  1.0000
  H   H3275     1.0  0.95302  0.51830  0.85557  1.0000
  C   C1854     1.0  0.75974  0.57791  0.76183  1.0000
  C   C1855     1.0  0.84510  0.67405  0.91703  1.0000
  C   C1856     1.0  0.85051  0.53651  0.70632  1.0000
  H   H3276     1.0  0.73293  0.58395  0.83699  1.0000
  C   C1857     1.0  0.87478  0.54145  0.71109  1.0000
  H   H3277     1.0  0.77635  0.61205  0.65238  1.0000
  C   C1858     1.0  0.77147  0.45578  0.94033  1.0000
  H   H3278     1.0  0.70660  0.64731  0.62492  1.0000
  H   H3279     1.0  0.99019  0.47186  0.92994  1.0000
  H   H3280     1.0  0.72433  0.54531  0.74184  1.0000
  C   C1859     1.0  0.77514  0.47784  0.62002  1.0000
  C   C1860     1.0  0.98161  0.64738  0.77567  1.0000
  H   H3281     1.0  0.55248  0.58180  0.70491  1.0000
  S   S418      1.0  0.87444  0.47277  0.73007  1.0000
  C   C1861     1.0  0.59306  0.68809  0.70642  1.0000
  H   H3282     1.0  0.63900  0.46394  0.77676  1.0000
  H   H3283     1.0  0.73075  0.64142  0.89963  1.0000
  H   H3284     1.0  0.70202  0.62400  0.55152  1.0000
  C   C1862     1.0  0.94041  0.58725  0.72766  1.0000
  H   H3285     1.0  0.54639  0.49915  0.85898  1.0000
  H   H3286     1.0  0.94142  0.50467  0.78704  1.0000
  H   H3287     1.0  0.66521  0.60357  0.65898  1.0000
  H   H3288     1.0  0.85162  0.55841  0.93137  1.0000
  C   C1863     1.0  0.83525  0.67801  0.66069  1.0000
  C   C1864     1.0  0.70049  0.62520  0.75740  1.0000
  C   C1865     1.0  0.87123  0.50979  0.84718  1.0000
  H   H3289     1.0  0.85275  0.66164  0.90923  1.0000
  C   C1866     1.0  0.61242  0.48871  0.66898  1.0000
  S   S419      1.0  0.51309  0.54291  0.65121  1.0000
  C   C1867     1.0  0.76695  0.52428  0.55854  1.0000
  C   C1868     1.0  0.60543  0.57554  0.61077  1.0000
  C   C1869     1.0  0.69051  0.56923  0.52777  1.0000
  H   H3290     1.0  0.80011  0.53080  0.58163  1.0000
  H   H3291     1.0  0.00786  0.45222  0.88335  1.0000
  H   H3292     1.0  0.60751  0.56187  0.71108  1.0000
  H   H3293     1.0  0.75269  0.51093  0.59810  1.0000
  C   C1870     1.0  0.56331  0.48500  0.68173  1.0000
  H   H3294     1.0  0.72553  0.61385  0.88782  1.0000
  H   H3295     1.0  0.51213  0.61577  0.54029  1.0000
  H   H3296     1.0  0.71426  0.67470  0.97874  1.0000
  C   C1871     1.0  0.88288  0.52245  0.71586  1.0000
  H   H3297     1.0  0.97581  0.63304  0.81480  1.0000
  H   H3298     1.0  0.74032  0.61758  0.79656  1.0000
  C   C1872     1.0  0.78607  0.60138  0.67154  1.0000
  S   S420      1.0  0.67084  0.52871  0.88342  1.0000
  C   C1873     1.0  0.92252  0.67953  0.85903  1.0000
  Fe  Fe208     1.0  0.68042  0.49557  0.90642  1.0000
  H   H3299     1.0  0.77588  0.50614  0.74663  1.0000
  H   H3300     1.0  0.82283  0.49626  0.62746  1.0000
  H   H3301     1.0  0.52903  0.57833  0.82893  1.0000
  H   H3302     1.0  0.98922  0.51121  0.69217  1.0000
  H   H3303     1.0  0.64520  0.66916  0.83761  1.0000
  H   H3304     1.0  0.77968  0.56036  0.56714  1.0000
  H   H3305     1.0  0.80865  0.45266  0.81498  1.0000
  S   S421      1.0  0.92931  0.62372  0.79220  1.0000
  C   C1874     1.0  0.80596  0.60227  0.63035  1.0000
  H   H3306     1.0  0.83550  0.66480  0.69542  1.0000
  H   H3307     1.0  0.79839  0.61491  0.68440  1.0000
  C   C1875     1.0  0.79330  0.52432  0.55451  1.0000
  C   C1876     1.0  0.59072  0.49559  0.48505  1.0000
  C   C1877     1.0  0.73503  0.62477  0.90738  1.0000
  S   S422      1.0  0.93193  0.52735  0.60225  1.0000
  H   H3308     1.0  0.66249  0.64706  0.95556  1.0000
  H   H3309     1.0  0.79006  0.45595  0.94145  1.0000
  Fe  Fe209     1.0  0.63844  0.46174  0.88026  1.0000
  H   H3310     1.0  0.62927  0.60093  0.63777  1.0000
  H   H3311     1.0  0.77070  0.64325  0.84278  1.0000
  C   C1878     1.0  0.77456  0.45053  0.64055  1.0000
  C   C1879     1.0  0.99947  0.44196  0.72387  1.0000
  H   H3312     1.0  0.76682  0.61156  0.80565  1.0000
  H   H3313     1.0  0.91294  0.44159  0.79858  1.0000
  H   H3314     1.0  0.71403  0.61628  0.70021  1.0000
  H   H3315     1.0  0.00787  0.63505  0.67190  1.0000
  Fe  Fe210     1.0  0.89955  0.62419  0.75546  1.0000
  H   H3316     1.0  0.60865  0.59250  0.88250  1.0000
  H   H3317     1.0  0.98990  0.67598  0.84791  1.0000
  C   C1880     1.0  0.83462  0.51294  0.70535  1.0000
  C   C1881     1.0  0.93285  0.54297  0.79597  1.0000
  C   C1882     1.0  0.63188  0.56755  0.97051  1.0000
  H   H3318     1.0  0.70229  0.55900  0.53183  1.0000
  H   H3319     1.0  0.82511  0.55546  0.90863  1.0000
  C   C1883     1.0  0.66879  0.46431  0.72556  1.0000
  S   S423      1.0  0.00491  0.55749  0.59751  1.0000
  H   H3320     1.0  0.53003  0.60741  0.78526  1.0000
  S   S424      1.0  0.90511  0.46582  0.61593  1.0000
  H   H3321     1.0  0.78147  0.46894  0.53749  1.0000
  H   H3322     1.0  0.99459  0.64607  0.57203  1.0000
  H   H3323     1.0  0.78415  0.49536  0.93095  1.0000
  C   C1884     1.0  0.84516  0.68985  0.77533  1.0000
  H   H3324     1.0  0.61898  0.53879  0.66147  1.0000
  H   H3325     1.0  0.63689  0.58679  0.93814  1.0000
  H   H3326     1.0  0.75336  0.57303  0.62663  1.0000
  H   H3327     1.0  0.90153  0.52608  0.71988  1.0000
  H   H3328     1.0  0.57355  0.67877  0.57011  1.0000
  H   H3329     1.0  0.52840  0.56023  0.76812  1.0000
  H   H3330     1.0  0.56544  0.65569  0.48760  1.0000
  H   H3331     1.0  0.90894  0.56278  0.79974  1.0000
  H   H3332     1.0  0.68322  0.63858  0.56716  1.0000
  H   H3333     1.0  0.53412  0.63418  0.61452  1.0000
  H   H3334     1.0  0.81975  0.48406  0.55512  1.0000
  H   H3335     1.0  0.55401  0.46242  0.54575  1.0000
  H   H3336     1.0  0.70226  0.51993  0.70234  1.0000
  S   S425      1.0  0.63116  0.44808  0.65685  1.0000
  C   C1885     1.0  0.63415  0.55373  0.66802  1.0000
  C   C1886     1.0  0.56113  0.47626  0.50456  1.0000
  H   H3337     1.0  0.83140  0.49552  0.84774  1.0000
  H   H3338     1.0  0.99797  0.50567  0.88880  1.0000
  C   C1887     1.0  0.54696  0.56617  0.51606  1.0000
  C   C1888     1.0  0.89945  0.65491  0.86337  1.0000
  H   H3339     1.0  0.95546  0.66468  0.68640  1.0000
  H   H3340     1.0  0.77225  0.46258  0.90073  1.0000
  N   N105      1.0  0.76566  0.57400  0.71617  1.0000
  C   C1889     1.0  0.93611  0.55834  0.92488  1.0000
  C   C1890     1.0  0.66020  0.58880  0.82758  1.0000
  H   H3341     1.0  0.64150  0.56241  0.57342  1.0000
  C   C1891     1.0  0.58190  0.49779  0.63287  1.0000
  H   H3342     1.0  0.99331  0.45220  0.51584  1.0000
  C   C1892     1.0  0.57102  0.60106  0.84935  1.0000
  H   H3343     1.0  0.58002  0.49247  0.89022  1.0000
  S   S426      1.0  0.60028  0.50340  0.96478  1.0000
  H   H3344     1.0  0.70363  0.59081  0.49911  1.0000
  H   H3345     1.0  0.92792  0.53617  0.76810  1.0000
  H   H3346     1.0  0.77167  0.62332  0.90096  1.0000
  H   H3347     1.0  0.87867  0.52639  0.80835  1.0000
  H   H3348     1.0  0.83734  0.63087  0.55688  1.0000
  H   H3349     1.0  0.79106  0.67625  0.93443  1.0000
  C   C1893     1.0  0.65857  0.57718  0.57677  1.0000
  C   C1894     1.0  0.00248  0.65709  0.92894  1.0000
  H   H3350     1.0  0.74439  0.55864  0.79574  1.0000
  H   H3351     1.0  0.97562  0.49976  0.82198  1.0000
  Fe  Fe211     1.0  0.93056  0.50824  0.55245  1.0000
  C   C1895     1.0  0.76475  0.53007  0.87930  1.0000
  H   H3352     1.0  0.78433  0.56651  0.50268  1.0000
  H   H3353     1.0  0.60764  0.56932  0.58143  1.0000
  H   H3354     1.0  0.83465  0.64485  0.59830  1.0000
  H   H3355     1.0  0.73450  0.44065  0.85550  1.0000
  S   S427      1.0  0.86065  0.58564  0.79844  1.0000
  H   H3356     1.0  0.58524  0.60030  0.82236  1.0000
  H   H3357     1.0  0.00085  0.62884  0.51422  1.0000
  H   H3358     1.0  0.90446  0.54007  0.88135  1.0000
  C   C1896     1.0  0.75581  0.52503  0.76966  1.0000
  H   H3359     1.0  0.84090  0.44634  0.53221  1.0000
  H   H3360     1.0  0.95017  0.46705  0.87325  1.0000
  S   S428      1.0  0.88241  0.65086  0.75346  1.0000
  H   H3361     1.0  0.66861  0.47863  0.69211  1.0000
  C   C1897     1.0  0.76484  0.63743  0.88343  1.0000
  C   C1898     1.0  0.55902  0.59855  0.75595  1.0000
  C   C1899     1.0  0.53945  0.51753  0.90343  1.0000
  C   C1900     1.0  0.77604  0.55466  0.72874  1.0000
  Fe  Fe212     1.0  0.52451  0.69055  0.90071  1.0000
  C   C1901     1.0  0.77109  0.55253  0.54294  1.0000
  H   H3362     1.0  0.75831  0.47937  0.54601  1.0000
  H   H3363     1.0  0.96276  0.64877  0.94247  1.0000
  H   H3364     1.0  0.93143  0.57379  0.90305  1.0000
  C   C1902     1.0  0.71450  0.53853  0.66517  1.0000
  H   H3365     1.0  0.95436  0.55077  0.78598  1.0000
  H   H3366     1.0  0.98815  0.65736  0.61665  1.0000
  C   C1903     1.0  0.63263  0.59362  0.61043  1.0000
  H   H3367     1.0  0.72884  0.66322  0.56089  1.0000
  H   H3368     1.0  0.99009  0.54041  0.73882  1.0000
  H   H3369     1.0  0.79449  0.45338  0.63649  1.0000
  H   H3370     1.0  0.99305  0.52039  0.97623  1.0000
  H   H3371     1.0  0.72987  0.58931  0.75513  1.0000
  C   C1904     1.0  0.52429  0.59417  0.62762  1.0000
  C   C1905     1.0  0.99681  0.68427  0.67448  1.0000
  C   C1906     1.0  0.60371  0.52444  0.75996  1.0000
  H   H3372     1.0  0.83211  0.51831  0.51348  1.0000
  H   H3373     1.0  0.57239  0.61897  0.72317  1.0000
  H   H3374     1.0  0.53652  0.53415  0.95321  1.0000
  H   H3375     1.0  0.55619  0.57958  0.87667  1.0000
  H   H3376     1.0  0.59491  0.63540  0.97226  1.0000
  Fe  Fe213     1.0  0.94284  0.46715  0.62017  1.0000
  H   H3377     1.0  0.99748  0.64295  0.96905  1.0000
  S   S429      1.0  0.68638  0.63362  0.83684  1.0000
  H   H3378     1.0  0.58604  0.51320  0.75314  1.0000
  C   C1907     1.0  0.53945  0.61744  0.85798  1.0000
  H   H3379     1.0  0.95789  0.47312  0.80879  1.0000
  Fe  Fe214     1.0  0.85906  0.59144  0.72240  1.0000
  H   H3380     1.0  0.53819  0.66145  0.49733  1.0000
  H   H3381     1.0  0.91996  0.54370  0.96239  1.0000
  H   H3382     1.0  0.97972  0.59258  0.55100  1.0000
  Fe  Fe215     1.0  0.51872  0.47128  0.78772  1.0000
  H   H3383     1.0  0.52921  0.58432  0.93253  1.0000
  Fe  Fe216     1.0  0.90899  0.48500  0.66602  1.0000
  N   N106      1.0  0.55818  0.61546  0.82210  1.0000
  H   H3384     1.0  0.66777  0.54487  0.60767  1.0000
  H   H3385     1.0  0.79861  0.67397  0.69729  1.0000
  H   H3386     1.0  0.64257  0.55161  0.82498  1.0000
  H   H3387     1.0  0.85721  0.68255  0.79355  1.0000
  Fe  Fe217     1.0  0.67163  0.45563  0.62391  1.0000
  H   H3388     1.0  0.77946  0.52084  0.96520  1.0000
  H   H3389     1.0  0.89296  0.49302  0.82474  1.0000
  H   H3390     1.0  0.86725  0.51654  0.87499  1.0000
  H   H3391     1.0  0.62327  0.56510  0.50276  1.0000
  H   H3392     1.0  0.74894  0.47296  0.95715  1.0000
  H   H3393     1.0  0.69799  0.63579  0.95703  1.0000
  H   H3394     1.0  0.60934  0.60702  0.92391  1.0000
  H   H3395     1.0  0.81922  0.62049  0.92858  1.0000
  C   C1908     1.0  0.69853  0.60883  0.73482  1.0000
  Fe  Fe218     1.0  0.63908  0.47784  0.57834  1.0000
  C   C1909     1.0  0.73992  0.52354  0.90759  1.0000
  C   C1910     1.0  0.55185  0.50579  0.88566  1.0000
  S   S430      1.0  0.62167  0.44613  0.55515  1.0000
  H   H3396     1.0  0.68307  0.58884  0.64448  1.0000
  H   H3397     1.0  0.55556  0.57230  0.54186  1.0000
  C   C1911     1.0  0.81959  0.50235  0.55326  1.0000
  Fe  Fe219     1.0  0.87862  0.65151  0.68125  1.0000
  C   C1912     1.0  0.67235  0.59913  0.62916  1.0000
  H   H3398     1.0  0.76276  0.61784  0.72198  1.0000
  C   C1913     1.0  0.94410  0.67326  0.87111  1.0000
  C   C1914     1.0  0.01008  0.52065  0.67271  1.0000
  C   C1915     1.0  0.54641  0.52559  0.93861  1.0000
  H   H3399     1.0  0.77759  0.58482  0.77173  1.0000
  C   C1916     1.0  0.98864  0.68653  0.87004  1.0000
  H   H3400     1.0  0.82764  0.56566  0.95669  1.0000
  C   C1917     1.0  0.59032  0.59067  0.60040  1.0000
  H   H3401     1.0  0.99320  0.55835  0.96518  1.0000
  H   H3402     1.0  0.90073  0.50993  0.92625  1.0000
  C   C1918     1.0  0.75866  0.56730  0.90308  1.0000
  H   H3403     1.0  0.73416  0.57793  0.69474  1.0000
  C   C1919     1.0  0.96251  0.64691  0.75418  1.0000
  C   C1920     1.0  0.82321  0.63077  0.58560  1.0000
  H   H3404     1.0  0.95449  0.56859  0.93097  1.0000
  C   C1921     1.0  0.65200  0.45597  0.77337  1.0000
  H   H3405     1.0  0.57487  0.61693  0.90362  1.0000
  S   S431      1.0  0.68056  0.55901  0.74181  1.0000
  H   H3406     1.0  0.96676  0.61333  0.52070  1.0000
  C   C1922     1.0  0.74065  0.56282  0.70628  1.0000
  H   H3407     1.0  0.64730  0.54545  0.67731  1.0000
  C   C1923     1.0  0.85434  0.46737  0.50518  1.0000
  C   C1924     1.0  0.83048  0.55240  0.94262  1.0000
  H   H3408     1.0  0.66731  0.59627  0.54061  1.0000
  H   H3409     1.0  0.98845  0.45266  0.71369  1.0000
  H   H3410     1.0  0.73861  0.65042  0.97540  1.0000
  C   C1925     1.0  0.59672  0.59639  0.90734  1.0000
  S   S432      1.0  0.76474  0.67903  0.76430  1.0000
  C   C1926     1.0  0.98438  0.61097  0.51673  1.0000
  H   H3411     1.0  0.88455  0.65998  0.85289  1.0000
  H   H3412     1.0  0.93506  0.65764  0.91160  1.0000
  C   C1927     1.0  0.76796  0.47458  0.95839  1.0000
  S   S433      1.0  0.63846  0.46311  0.95216  1.0000
  C   C1928     1.0  0.93550  0.49084  0.82773  1.0000
  C   C1929     1.0  0.81442  0.68343  0.66185  1.0000
  H   H3413     1.0  0.60021  0.60772  0.56115  1.0000
  C   C1930     1.0  0.58681  0.61393  0.87713  1.0000
  C   C1931     1.0  0.74972  0.59803  0.75648  1.0000
  H   H3414     1.0  0.55042  0.48761  0.49859  1.0000
  C   C1932     1.0  0.97012  0.66510  0.70333  1.0000
  H   H3415     1.0  0.68164  0.57337  0.95831  1.0000
  C   C1933     1.0  0.93995  0.54380  0.89590  1.0000
  H   H3416     1.0  0.57087  0.58925  0.76870  1.0000
  C   C1934     1.0  0.89100  0.49965  0.85370  1.0000
  H   H3417     1.0  0.51213  0.68415  0.54277  1.0000
  S   S434      1.0  0.68058  0.48728  0.54701  1.0000
  H   H3418     1.0  0.97158  0.48548  0.95030  1.0000
  H   H3419     1.0  0.57704  0.50576  0.60018  1.0000
  H   H3420     1.0  0.72406  0.58619  0.96735  1.0000
  H   H3421     1.0  0.53622  0.54380  0.53466  1.0000
  C   C1935     1.0  0.77988  0.48696  0.53290  1.0000
  H   H3422     1.0  0.54822  0.61198  0.51195  1.0000
  H   H3423     1.0  0.94588  0.52962  0.91813  1.0000
  H   H3424     1.0  0.98387  0.67699  0.94908  1.0000
  H   H3425     1.0  0.57148  0.67871  0.62982  1.0000
  C   C1936     1.0  0.98260  0.66683  0.92559  1.0000
  S   S435      1.0  0.71313  0.49186  0.92884  1.0000
  H   H3426     1.0  0.89001  0.63791  0.90265  1.0000
  H   H3427     1.0  0.54322  0.60065  0.60193  1.0000
  C   C1937     1.0  0.99150  0.49049  0.92888  1.0000
  C   C1938     1.0  0.57833  0.51043  0.93792  1.0000
  H   H3428     1.0  0.79388  0.63961  0.94790  1.0000
  H   H3429     1.0  0.01020  0.62158  0.63042  1.0000
  C   C1939     1.0  0.67832  0.58727  0.96988  1.0000
  C   C1940     1.0  0.01113  0.50113  0.95259  1.0000
  H   H3430     1.0  0.60674  0.68584  0.68154  1.0000
  C   C1941     1.0  0.80631  0.69031  0.94209  1.0000
  H   H3431     1.0  0.76662  0.44142  0.71931  1.0000
  H   H3432     1.0  0.95249  0.69031  0.93608  1.0000
  H   H3433     1.0  0.73848  0.61223  0.98215  1.0000
  C   C1942     1.0  0.81485  0.67495  0.98240  1.0000
  H   H3434     1.0  0.99102  0.68032  0.40457  1.0000
  C   C1943     1.0  0.89748  0.46097  0.01408  1.0000
  C   C1944     1.0  0.64869  0.57308  0.00185  1.0000
  H   H3435     1.0  0.97743  0.58687  0.14020  1.0000
  C   C1945     1.0  0.00567  0.56256  0.98764  1.0000
  C   C1946     1.0  0.57571  0.59553  0.10079  1.0000
  C   C1947     1.0  0.81380  0.52284  0.98350  1.0000
  C   C1948     1.0  0.77622  0.49484  0.44731  1.0000
  H   H3436     1.0  0.67832  0.54348  0.02836  1.0000
  H   H3437     1.0  0.52568  0.58470  0.20266  1.0000
  H   H3438     1.0  0.79741  0.66175  0.01818  1.0000
  C   C1949     1.0  0.00611  0.57162  0.43453  1.0000
  C   C1950     1.0  0.79418  0.65897  0.29911  1.0000
  H   H3439     1.0  0.51470  0.54337  0.19557  1.0000
  C   C1951     1.0  0.88957  0.52141  0.43417  1.0000
  H   H3440     1.0  0.00573  0.51080  0.04580  1.0000
  C   C1952     1.0  0.84242  0.55619  0.13246  1.0000
  H   H3441     1.0  0.95245  0.50336  0.32529  1.0000
  H   H3442     1.0  0.66721  0.54014  0.20958  1.0000
  C   C1953     1.0  0.53845  0.68973  0.31316  1.0000
  H   H3443     1.0  0.53070  0.64915  0.03261  1.0000
  H   H3444     1.0  0.69410  0.48647  0.04883  1.0000
  H   H3445     1.0  0.55672  0.57867  0.13135  1.0000
  C   C1954     1.0  0.89581  0.50854  0.47447  1.0000
  C   C1955     1.0  0.84662  0.51263  0.21407  1.0000
  H   H3446     1.0  0.80203  0.66637  0.20483  1.0000
  H   H3447     1.0  0.61481  0.58334  0.26062  1.0000
  H   H3448     1.0  0.98544  0.56728  0.44448  1.0000
  H   H3449     1.0  0.80772  0.61012  0.06609  1.0000
  H   H3450     1.0  0.00894  0.62690  0.13938  1.0000
  H   H3451     1.0  0.53784  0.66704  0.27405  1.0000
  H   H3452     1.0  0.97460  0.59094  0.47264  1.0000
  H   H3453     1.0  0.65817  0.46459  0.27854  1.0000
  C   C1956     1.0  0.74210  0.65699  0.14321  1.0000
  H   H3454     1.0  0.56283  0.59250  0.99744  1.0000
  C   C1957     1.0  0.94286  0.64246  0.37031  1.0000
  H   H3455     1.0  0.81251  0.51110  0.45918  1.0000
  H   H3456     1.0  0.93283  0.48815  0.41483  1.0000
  H   H3457     1.0  0.73454  0.48554  0.00610  1.0000
  S   S436      1.0  0.93500  0.48575  0.04622  1.0000
  H   H3458     1.0  0.75329  0.66399  0.34397  1.0000
  S   S437      1.0  0.58520  0.53774  0.20032  1.0000
  Fe  Fe220     1.0  0.92922  0.45448  0.22646  1.0000
  S   S438      1.0  0.71094  0.52721  0.18422  1.0000
  H   H3459     1.0  0.63688  0.50315  0.40156  1.0000
  H   H3460     1.0  0.67237  0.44296  0.01449  1.0000
  C   C1958     1.0  0.99597  0.60127  0.10661  1.0000
  H   H3461     1.0  0.94577  0.45816  0.40558  1.0000
  C   C1959     1.0  0.72967  0.49444  0.06668  1.0000
  H   H3462     1.0  0.52541  0.54877  0.01385  1.0000
  S   S439      1.0  0.75261  0.48860  0.19185  1.0000
  H   H3463     1.0  0.53487  0.60826  0.00223  1.0000
  C   C1960     1.0  0.97083  0.66593  0.41027  1.0000
  C   C1961     1.0  0.64511  0.51944  0.41179  1.0000
  C   C1962     1.0  0.54355  0.62455  0.01203  1.0000
  H   H3464     1.0  0.80721  0.47918  0.06506  1.0000
  Fe  Fe221     1.0  0.74049  0.56815  0.16903  1.0000
  H   H3465     1.0  0.62715  0.62375  0.03813  1.0000
  H   H3466     1.0  0.00289  0.61335  0.37606  1.0000
  C   C1963     1.0  0.51853  0.60167  0.35763  1.0000
  H   H3467     1.0  0.56115  0.65621  0.40573  1.0000
  H   H3468     1.0  0.83561  0.52104  0.31847  1.0000
  H   H3469     1.0  0.78686  0.62325  0.01287  1.0000
  Fe  Fe222     1.0  0.69565  0.52036  0.26304  1.0000
  H   H3470     1.0  0.85371  0.48894  0.04885  1.0000
  C   C1964     1.0  0.63819  0.45249  0.27989  1.0000
  C   C1965     1.0  0.62152  0.62601  0.00454  1.0000
  H   H3471     1.0  0.72313  0.45726  0.06598  1.0000
  H   H3472     1.0  0.83498  0.45163  0.36103  1.0000
  H   H3473     1.0  0.79856  0.65411  0.13804  1.0000
  C   C1966     1.0  0.52670  0.53953  0.05144  1.0000
  H   H3474     1.0  0.54855  0.45179  0.08293  1.0000
  H   H3475     1.0  0.76981  0.47186  0.37226  1.0000
  H   H3476     1.0  0.74158  0.56991  0.45973  1.0000
  N   N107      1.0  0.69715  0.59766  0.99426  1.0000
  H   H3477     1.0  0.67812  0.61590  0.02179  1.0000
  H   H3478     1.0  0.67868  0.44130  0.31118  1.0000
  H   H3479     1.0  0.61745  0.60788  0.00043  1.0000
  C   C1967     1.0  0.85874  0.46529  0.01516  1.0000
  H   H3480     1.0  0.64870  0.47761  0.20030  1.0000
  S   S440      1.0  0.94864  0.64039  0.05318  1.0000
  C   C1968     1.0  0.53319  0.61572  0.38438  1.0000
  H   H3481     1.0  0.87645  0.44081  0.47653  1.0000
  H   H3482     1.0  0.73025  0.61823  0.31630  1.0000
  H   H3483     1.0  0.85150  0.62593  0.19365  1.0000
  C   C1969     1.0  0.81500  0.59176  0.25137  1.0000
  H   H3484     1.0  0.57499  0.58519  0.19763  1.0000
  C   C1970     1.0  0.74721  0.63640  0.31210  1.0000
  H   H3485     1.0  0.85705  0.55075  0.12059  1.0000
  H   H3486     1.0  0.60273  0.55578  0.44302  1.0000
  C   C1971     1.0  0.93689  0.68296  0.28806  1.0000
  C   C1972     1.0  0.84038  0.61368  0.23366  1.0000
  H   H3487     1.0  0.57230  0.62175  0.13113  1.0000
  C   C1973     1.0  0.64644  0.53099  0.22942  1.0000
  H   H3488     1.0  0.63886  0.57359  0.24913  1.0000
  C   C1974     1.0  0.69708  0.62212  0.99420  1.0000
  N   N108      1.0  0.76529  0.48412  0.03456  1.0000
  H   H3489     1.0  0.69665  0.62331  0.36401  1.0000
  C   C1975     1.0  0.92349  0.56118  0.12907  1.0000
  H   H3490     1.0  0.73779  0.57599  0.35694  1.0000
  H   H3491     1.0  0.64230  0.55341  0.03469  1.0000
  H   H3492     1.0  0.89997  0.45383  0.34154  1.0000
  S   S441      1.0  0.95677  0.52696  0.11923  1.0000
  H   H3493     1.0  0.80795  0.54164  0.19390  1.0000
  C   C1976     1.0  0.73641  0.62022  0.12641  1.0000
  H   H3494     1.0  0.66260  0.50675  0.11237  1.0000
  Fe  Fe223     1.0  0.73936  0.51489  0.20880  1.0000
  Fe  Fe224     1.0  0.97843  0.51009  0.16057  1.0000
  N   N109      1.0  0.82890  0.52293  0.22706  1.0000
  H   H3495     1.0  0.99172  0.46548  0.23156  1.0000
  H   H3496     1.0  0.87746  0.47722  0.36535  1.0000
  H   H3497     1.0  0.67023  0.57351  0.07217  1.0000
  H   H3498     1.0  0.78029  0.44554  0.09334  1.0000
  C   C1977     1.0  0.63872  0.55278  0.42783  1.0000
  H   H3499     1.0  0.84896  0.56602  0.30680  1.0000
  Fe  Fe225     1.0  0.90541  0.66816  0.16398  1.0000
  H   H3500     1.0  0.96422  0.64622  0.44325  1.0000
  H   H3501     1.0  0.75345  0.44540  0.03790  1.0000
  S   S442      1.0  0.96176  0.47257  0.15320  1.0000
  C   C1978     1.0  0.76636  0.61101  0.36035  1.0000
  H   H3502     1.0  0.72972  0.44659  0.45329  1.0000
  H   H3503     1.0  0.54584  0.63756  0.35693  1.0000
  C   C1979     1.0  0.57102  0.45248  0.15886  1.0000
  S   S443      1.0  0.90627  0.52326  0.22736  1.0000
  C   C1980     1.0  0.88840  0.48605  0.05206  1.0000
  S   S444      1.0  0.94560  0.67338  0.14270  1.0000
  C   C1981     1.0  0.82020  0.53338  0.18415  1.0000
  C   C1982     1.0  0.59240  0.50656  0.28083  1.0000
  C   C1983     1.0  0.78480  0.64698  0.21477  1.0000
  C   C1984     1.0  0.78953  0.45956  0.14588  1.0000
  C   C1985     1.0  0.62437  0.56873  0.42871  1.0000
  H   H3504     1.0  0.59519  0.45718  0.43063  1.0000
  H   H3505     1.0  0.53888  0.48716  0.07488  1.0000
  H   H3506     1.0  0.60845  0.59885  0.15775  1.0000
  C   C1986     1.0  0.52288  0.46847  0.07897  1.0000
  C   C1987     1.0  0.60165  0.51473  0.42722  1.0000
  H   H3507     1.0  0.83235  0.55573  0.24133  1.0000
  S   S445      1.0  0.81870  0.46337  0.45776  1.0000
  H   H3508     1.0  0.70436  0.54967  0.05211  1.0000
  C   C1988     1.0  0.90461  0.47658  0.03819  1.0000
  C   C1989     1.0  0.68873  0.57676  0.04826  1.0000
  H   H3509     1.0  0.75804  0.60706  0.27667  1.0000
  H   H3510     1.0  0.72075  0.62713  0.04191  1.0000
  C   C1990     1.0  0.92906  0.60222  0.15267  1.0000
  S   S446      1.0  0.68269  0.45004  0.46750  1.0000
  H   H3511     1.0  0.96142  0.64019  0.23112  1.0000
  H   H3512     1.0  0.53384  0.66058  0.41687  1.0000
  H   H3513     1.0  0.84387  0.60968  0.34601  1.0000
  H   H3514     1.0  0.00843  0.47075  0.10685  1.0000
  C   C1991     1.0  0.59620  0.45569  0.14272  1.0000
  N   N110      1.0  0.63074  0.53515  0.40343  1.0000
  H   H3515     1.0  0.57157  0.49726  0.30093  1.0000
  H   H3516     1.0  0.94372  0.66286  0.24810  1.0000
  H   H3517     1.0  0.77012  0.66031  0.08361  1.0000
  C   C1992     1.0  0.59731  0.63003  0.00953  1.0000
  H   H3518     1.0  0.73527  0.62894  0.39114  1.0000
  H   H3519     1.0  0.69566  0.65097  0.04555  1.0000
  H   H3520     1.0  0.86277  0.58469  0.42289  1.0000
  H   H3521     1.0  0.68433  0.50862  0.43661  1.0000
  H   H3522     1.0  0.81651  0.47542  0.21901  1.0000
  S   S447      1.0  0.65375  0.50150  0.31211  1.0000
  C   C1993     1.0  0.79215  0.50676  0.47511  1.0000
  C   C1994     1.0  0.66521  0.52627  0.10848  1.0000
  C   C1995     1.0  0.60771  0.49853  0.30554  1.0000
  C   C1996     1.0  0.86565  0.50752  0.42970  1.0000
  H   H3523     1.0  0.53279  0.60677  0.32210  1.0000
  C   C1997     1.0  0.60419  0.52716  0.23065  1.0000
  H   H3524     1.0  0.62583  0.46089  0.28821  1.0000
  C   C1998     1.0  0.52283  0.63223  0.02399  1.0000
  C   C1999     1.0  0.80015  0.57633  0.30313  1.0000
  H   H3525     1.0  0.97248  0.52539  0.43438  1.0000
  H   H3526     1.0  0.80711  0.51662  0.17860  1.0000
  H   H3527     1.0  0.62052  0.44466  0.22645  1.0000
  H   H3528     1.0  0.99070  0.52838  0.23440  1.0000
  H   H3529     1.0  0.60528  0.63461  0.09125  1.0000
  C   C2000     1.0  0.91063  0.62101  0.33793  1.0000
  H   H3530     1.0  0.60966  0.56620  0.35066  1.0000
  H   H3531     1.0  0.77045  0.44303  0.17660  1.0000
  H   H3532     1.0  0.86142  0.55451  0.42579  1.0000
  H   H3533     1.0  0.92295  0.53292  0.33793  1.0000
  C   C2001     1.0  0.78669  0.50747  0.29839  1.0000
  H   H3534     1.0  0.86628  0.52965  0.18598  1.0000
  H   H3535     1.0  0.91525  0.67214  0.29861  1.0000
  H   H3536     1.0  0.59689  0.50204  0.40827  1.0000
  H   H3537     1.0  0.59858  0.48287  0.34451  1.0000
  H   H3538     1.0  0.72313  0.58669  0.39470  1.0000
  H   H3539     1.0  0.54664  0.66239  0.19787  1.0000
  C   C2002     1.0  0.85232  0.53803  0.28330  1.0000
  H   H3540     1.0  0.91550  0.57197  0.23027  1.0000
  C   C2003     1.0  0.70329  0.61295  0.19602  1.0000
  H   H3541     1.0  0.99527  0.52681  0.38563  1.0000
  H   H3542     1.0  0.86038  0.57790  0.37071  1.0000
  H   H3543     1.0  0.80958  0.63526  0.18024  1.0000
  C   C2004     1.0  0.83596  0.60453  0.31961  1.0000
  C   C2005     1.0  0.54376  0.65059  0.43674  1.0000
  H   H3544     1.0  0.70068  0.46372  0.18926  1.0000
  H   H3545     1.0  0.85583  0.44681  0.42408  1.0000
  H   H3546     1.0  0.90304  0.48629  0.41062  1.0000
  H   H3547     1.0  0.65581  0.45248  0.36321  1.0000
  H   H3548     1.0  0.58962  0.52456  0.42098  1.0000
  C   C2006     1.0  0.76869  0.46701  0.01227  1.0000
  H   H3549     1.0  0.89398  0.49838  0.07022  1.0000
  H   H3550     1.0  0.51323  0.67253  0.16250  1.0000
  H   H3551     1.0  0.90443  0.58080  0.35707  1.0000
  H   H3552     1.0  0.75413  0.55747  0.42244  1.0000
  H   H3553     1.0  0.86231  0.56171  0.20403  1.0000
  H   H3554     1.0  0.51925  0.56563  0.07390  1.0000
  H   H3555     1.0  0.70653  0.64853  0.38435  1.0000
  H   H3556     1.0  0.75134  0.46835  0.33143  1.0000
  S   S448      1.0  0.83127  0.46004  0.99710  1.0000
  C   C2007     1.0  0.78419  0.51381  0.99970  1.0000
  C   C2008     1.0  0.79260  0.63818  0.17712  1.0000
  H   H3557     1.0  0.97789  0.68347  0.33098  1.0000
  C   C2009     1.0  0.74012  0.58399  0.38387  1.0000
  H   H3558     1.0  0.77362  0.49238  0.09484  1.0000
  H   H3559     1.0  0.78778  0.46787  0.00942  1.0000
  C   C2010     1.0  0.61820  0.55882  0.32867  1.0000
  N   N111      1.0  0.77092  0.63292  0.31038  1.0000
  H   H3560     1.0  0.73982  0.51628  0.03909  1.0000
  C   C2011     1.0  0.83641  0.49274  0.19315  1.0000
  C   C2012     1.0  0.83878  0.65104  0.00666  1.0000
  C   C2013     1.0  0.86443  0.56199  0.29284  1.0000
  H   H3561     1.0  0.56888  0.46995  0.15146  1.0000
  H   H3562     1.0  0.93806  0.62305  0.40201  1.0000
  C   C2014     1.0  0.68519  0.54905  0.05609  1.0000
  C   C2015     1.0  0.00823  0.58780  0.98953  1.0000
  H   H3563     1.0  0.70330  0.58410  0.06529  1.0000
  C   C2016     1.0  0.81082  0.58237  0.33735  1.0000
  C   C2017     1.0  0.55219  0.61554  0.05761  1.0000
  Fe  Fe226     1.0  0.54459  0.50240  0.23052  1.0000
  C   C2018     1.0  0.93388  0.50318  0.33876  1.0000
  H   H3564     1.0  0.82925  0.68991  0.99005  1.0000
  H   H3565     1.0  0.93128  0.61805  0.16187  1.0000
  S   S449      1.0  0.90394  0.46728  0.18978  1.0000
  C   C2019     1.0  0.86905  0.57619  0.40036  1.0000
  C   C2020     1.0  0.96915  0.60774  0.25964  1.0000
  H   H3566     1.0  0.64444  0.58560  0.01615  1.0000
  H   H3567     1.0  0.81046  0.48839  0.30236  1.0000
  H   H3568     1.0  0.98835  0.58458  0.00555  1.0000
  C   C2021     1.0  0.71458  0.66080  0.01401  1.0000
  H   H3569     1.0  0.96694  0.60313  0.22824  1.0000
  C   C2022     1.0  0.51373  0.61152  0.43132  1.0000
  C   C2023     1.0  0.95340  0.62129  0.26707  1.0000
  C   C2024     1.0  0.93320  0.58732  0.09037  1.0000
  C   C2025     1.0  0.76316  0.48235  0.34380  1.0000
  H   H3570     1.0  0.84595  0.64589  0.09840  1.0000
  H   H3571     1.0  0.58830  0.58632  0.09902  1.0000
  H   H3572     1.0  0.99544  0.62700  0.43660  1.0000
  C   C2026     1.0  0.99176  0.60853  0.46921  1.0000
  H   H3573     1.0  0.81684  0.56875  0.10022  1.0000
  H   H3574     1.0  0.93836  0.59160  0.05134  1.0000
  H   H3575     1.0  0.99147  0.60185  0.07250  1.0000
  C   C2027     1.0  0.86569  0.48077  0.03978  1.0000
  H   H3576     1.0  0.79715  0.52126  0.31234  1.0000
  Fe  Fe227     1.0  0.93771  0.48816  0.11686  1.0000
  H   H3577     1.0  0.00998  0.59374  0.11108  1.0000
  H   H3578     1.0  0.75596  0.49140  0.46011  1.0000
  C   C2028     1.0  0.91871  0.48264  0.39587  1.0000
  C   C2029     1.0  0.84382  0.54568  0.23713  1.0000
  H   H3579     1.0  0.53427  0.59960  0.09178  1.0000
  H   H3580     1.0  0.86099  0.45337  0.31782  1.0000
  C   C2030     1.0  0.78450  0.58574  0.99086  1.0000
  S   S450      1.0  0.75033  0.60564  0.10057  1.0000
  H   H3581     1.0  0.84729  0.57904  0.05445  1.0000
  H   H3582     1.0  0.76742  0.61804  0.38901  1.0000
  H   H3583     1.0  0.85006  0.62157  0.08316  1.0000
  H   H3584     1.0  0.90645  0.58817  0.40804  1.0000
  C   C2031     1.0  0.67535  0.53588  0.38289  1.0000
  H   H3585     1.0  0.53382  0.54894  0.11016  1.0000
  S   S451      1.0  0.72113  0.50402  0.28909  1.0000
  H   H3586     1.0  0.78243  0.60623  0.35628  1.0000
  H   H3587     1.0  0.80473  0.45371  0.14985  1.0000
  H   H3588     1.0  0.95777  0.67372  0.41879  1.0000
  H   H3589     1.0  0.67752  0.68345  0.13385  1.0000
  H   H3590     1.0  0.51216  0.47411  0.05442  1.0000
  C   C2032     1.0  0.75104  0.64732  0.11361  1.0000
  C   C2033     1.0  0.99350  0.53221  0.41634  1.0000
  C   C2034     1.0  0.71938  0.63961  0.00674  1.0000
  H   H3591     1.0  0.77584  0.61918  0.18382  1.0000
  H   H3592     1.0  0.70067  0.58265  0.17537  1.0000
  H   H3593     1.0  0.77899  0.51735  0.27171  1.0000
  C   C2035     1.0  0.71204  0.60346  0.16600  1.0000
  C   C2036     1.0  0.00725  0.62924  0.10251  1.0000
  C   C2037     1.0  0.94867  0.66593  0.27962  1.0000
  H   H3594     1.0  0.63655  0.54066  0.46717  1.0000
  H   H3595     1.0  0.85287  0.66930  0.00701  1.0000
  C   C2038     1.0  0.77599  0.62511  0.27009  1.0000
  H   H3596     1.0  0.79093  0.61880  0.27230  1.0000
  C   C2039     1.0  0.73883  0.56266  0.43173  1.0000
  H   H3597     1.0  0.85288  0.57503  0.13452  1.0000
  S   S452      1.0  0.89597  0.65546  0.10632  1.0000
  H   H3598     1.0  0.61501  0.44920  0.36744  1.0000
  H   H3599     1.0  0.91000  0.45366  0.00357  1.0000
  C   C2040     1.0  0.59295  0.60383  0.16705  1.0000
  C   C2041     1.0  0.52615  0.67000  0.29971  1.0000
  C   C2042     1.0  0.95563  0.62738  0.31163  1.0000
  C   C2043     1.0  0.70313  0.44827  0.21582  1.0000
  H   H3600     1.0  0.86097  0.51751  0.39826  1.0000
  H   H3601     1.0  0.69505  0.49519  0.09895  1.0000
  H   H3602     1.0  0.75047  0.48815  0.36190  1.0000
  C   C2044     1.0  0.84966  0.44493  0.35840  1.0000
  H   H3603     1.0  0.79225  0.48500  0.26269  1.0000
  C   C2045     1.0  0.63865  0.55217  0.34701  1.0000
  H   H3604     1.0  0.79938  0.57032  0.37747  1.0000
  H   H3605     1.0  0.95278  0.53779  0.35082  1.0000
  H   H3606     1.0  0.79116  0.66318  0.33130  1.0000
  C   C2046     1.0  0.89902  0.59090  0.37666  1.0000
  Fe  Fe228     1.0  0.51438  0.45205  0.22263  1.0000
  C   C2047     1.0  0.63474  0.51082  0.27984  1.0000
  H   H3607     1.0  0.85530  0.47011  0.22361  1.0000
  H   H3608     1.0  0.68493  0.55172  0.39318  1.0000
  H   H3609     1.0  0.56301  0.57419  0.48033  1.0000
  H   H3610     1.0  0.97690  0.64145  0.30066  1.0000
  H   H3611     1.0  0.99280  0.63599  0.09679  1.0000
  H   H3612     1.0  0.92050  0.54522  0.11988  1.0000
  H   H3613     1.0  0.82011  0.52116  0.01619  1.0000
  S   S453      1.0  0.76753  0.55089  0.32569  1.0000
  S   S454      1.0  0.52993  0.49575  0.17119  1.0000
  H   H3614     1.0  0.79516  0.47795  0.14985  1.0000
  H   H3615     1.0  0.78582  0.50911  0.40606  1.0000
  H   H3616     1.0  0.92208  0.49833  0.31583  1.0000
  H   H3617     1.0  0.63122  0.58551  0.39008  1.0000
  C   C2048     1.0  0.91996  0.57616  0.19134  1.0000
  C   C2049     1.0  0.63124  0.53943  0.20489  1.0000
  H   H3618     1.0  0.80665  0.58717  0.22506  1.0000
  S   S455      1.0  0.72369  0.56182  0.24687  1.0000
  H   H3619     1.0  0.60255  0.64847  0.01353  1.0000
  H   H3620     1.0  0.60011  0.61850  0.18121  1.0000
  Fe  Fe229     1.0  0.93752  0.66484  0.08039  1.0000
  H   H3621     1.0  0.64035  0.55531  0.16603  1.0000
  H   H3622     1.0  0.70873  0.52940  0.37352  1.0000
  H   H3623     1.0  0.54615  0.60750  0.39446  1.0000
  H   H3624     1.0  0.01092  0.68036  0.05659  1.0000
  H   H3625     1.0  0.99038  0.62122  0.25005  1.0000
  H   H3626     1.0  0.64570  0.52492  0.11404  1.0000
  H   H3627     1.0  0.83572  0.50312  0.15548  1.0000
  H   H3628     1.0  0.80707  0.63672  0.07648  1.0000
  C   C2050     1.0  0.71861  0.63952  0.18540  1.0000
  H   H3629     1.0  0.78170  0.52574  0.01782  1.0000
  H   H3630     1.0  0.56027  0.63304  0.06468  1.0000
  H   H3631     1.0  0.00662  0.55786  0.46963  1.0000
  C   C2051     1.0  0.84809  0.48048  0.46506  1.0000
  N   N112      1.0  0.57187  0.60635  0.05127  1.0000
  H   H3632     1.0  0.57590  0.57609  0.03683  1.0000
  S   S456      1.0  0.77020  0.55660  0.18767  1.0000
  C   C2052     1.0  0.71251  0.64343  0.35492  1.0000
  H   H3633     1.0  0.65747  0.57146  0.33178  1.0000
  C   C2053     1.0  0.78730  0.46485  0.09433  1.0000
  Fe  Fe230     1.0  0.92488  0.50482  0.19522  1.0000
  H   H3634     1.0  0.68537  0.59931  0.22885  1.0000
  H   H3635     1.0  0.60182  0.54039  0.33255  1.0000
  H   H3636     1.0  0.89884  0.62854  0.35302  1.0000
  H   H3637     1.0  0.88004  0.58042  0.25777  1.0000
  H   H3638     1.0  0.90645  0.62165  0.30343  1.0000
  C   C2054     1.0  0.86807  0.45493  0.38446  1.0000
  C   C2055     1.0  0.94104  0.53170  0.32845  1.0000
  Fe  Fe231     1.0  0.75044  0.54618  0.26728  1.0000
  S   S457      1.0  0.94776  0.49050  0.23669  1.0000
  H   H3639     1.0  0.54120  0.53265  0.04839  1.0000
  H   H3640     1.0  0.73461  0.49220  0.10090  1.0000
  H   H3641     1.0  0.67829  0.50101  0.38684  1.0000
  H   H3642     1.0  0.84734  0.46784  0.17042  1.0000
  H   H3643     1.0  0.71503  0.65876  0.31797  1.0000
  H   H3644     1.0  0.65207  0.59479  0.45033  1.0000
  H   H3645     1.0  0.69945  0.45330  0.37154  1.0000
  H   H3646     1.0  0.95083  0.60861  0.34533  1.0000
  C   C2056     1.0  0.88885  0.44584  0.38214  1.0000
  C   C2057     1.0  0.82013  0.63020  0.06232  1.0000
  H   H3647     1.0  0.68896  0.46223  0.11101  1.0000
  C   C2058     1.0  0.73765  0.47927  0.04243  1.0000
  H   H3648     1.0  0.85039  0.50223  0.24806  1.0000
  H   H3649     1.0  0.76852  0.65063  0.20896  1.0000
  H   H3650     1.0  0.62061  0.59313  0.46228  1.0000
  C   C2059     1.0  0.82118  0.66022  0.28848  1.0000
  C   C2060     1.0  0.70014  0.48390  0.08213  1.0000
  H   H3651     1.0  0.86938  0.44322  0.98393  1.0000
  C   C2061     1.0  0.53483  0.45352  0.06318  1.0000
  C   C2062     1.0  0.93603  0.60783  0.10215  1.0000
  H   H3652     1.0  0.75428  0.67744  0.13528  1.0000
  C   C2063     1.0  0.63028  0.58020  0.27304  1.0000
  C   C2064     1.0  0.83114  0.56241  0.09086  1.0000
  H   H3653     1.0  0.74856  0.45896  0.11648  1.0000
  H   H3654     1.0  0.82112  0.54437  0.08610  1.0000
  C   C2065     1.0  0.83562  0.62688  0.09682  1.0000
  S   S458      1.0  0.53154  0.45890  0.27923  1.0000
  H   H3655     1.0  0.68038  0.54563  0.34137  1.0000
  C   C2066     1.0  0.80484  0.49986  0.27286  1.0000
  H   H3656     1.0  0.66781  0.68207  0.08159  1.0000
  C   C2067     1.0  0.00043  0.45295  0.24778  1.0000
  H   H3657     1.0  0.99550  0.54545  0.02663  1.0000
  H   H3658     1.0  0.92861  0.64774  0.38516  1.0000
  C   C2068     1.0  0.56235  0.58430  0.03686  1.0000
  S   S459      1.0  0.88210  0.64782  0.24690  1.0000
  H   H3659     1.0  0.64579  0.59969  0.26731  1.0000
  C   C2069     1.0  0.84335  0.68796  0.27481  1.0000
  C   C2070     1.0  0.76792  0.47548  0.08589  1.0000
  H   H3660     1.0  0.53801  0.68257  0.10697  1.0000
  H   H3661     1.0  0.82115  0.64503  0.32234  1.0000
  C   C2071     1.0  0.54192  0.60756  0.48251  1.0000
  C   C2072     1.0  0.68731  0.51760  0.39584  1.0000
  H   H3662     1.0  0.64214  0.50904  0.45252  1.0000
  H   H3663     1.0  0.82614  0.65651  0.25640  1.0000
  H   H3664     1.0  0.67197  0.52955  0.13830  1.0000
  H   H3665     1.0  0.77636  0.57587  0.03284  1.0000
  C   C2073     1.0  0.97073  0.66319  0.36263  1.0000
  C   C2074     1.0  0.58689  0.61602  0.12022  1.0000
  H   H3666     1.0  0.64285  0.54182  0.32660  1.0000
  C   C2075     1.0  0.85461  0.48157  0.18649  1.0000
  H   H3667     1.0  0.98490  0.65649  0.35490  1.0000
  S   S460      1.0  0.70946  0.64992  0.22757  1.0000
  C   C2076     1.0  0.00854  0.54733  0.21766  1.0000
  H   H3668     1.0  0.65314  0.44910  0.21399  1.0000
  H   H3669     1.0  0.77510  0.47544  0.45396  1.0000
  H   H3670     1.0  0.82197  0.61056  0.13556  1.0000
  C   C2077     1.0  0.53446  0.55967  0.07146  1.0000
  H   H3671     1.0  0.66000  0.56808  0.40839  1.0000
  C   C2078     1.0  0.01048  0.56270  0.39422  1.0000
  H   H3672     1.0  0.75102  0.65283  0.27546  1.0000
  C   C2079     1.0  0.91736  0.55572  0.17943  1.0000
  H   H3673     1.0  0.61342  0.47561  0.12306  1.0000
  H   H3674     1.0  0.93274  0.60782  0.27346  1.0000
  H   H3675     1.0  0.54627  0.46615  0.02255  1.0000
  H   H3676     1.0  0.73055  0.67276  0.02373  1.0000
  C   C2080     1.0  0.73832  0.64348  0.35294  1.0000
  C   C2081     1.0  0.85081  0.62015  0.26778  1.0000
  H   H3677     1.0  0.95280  0.54597  0.28757  1.0000
  H   H3678     1.0  0.99951  0.55393  0.28112  1.0000
  H   H3679     1.0  0.90350  0.54206  0.40609  1.0000
  H   H3680     1.0  0.97046  0.67851  0.26454  1.0000
  C   C2082     1.0  0.87445  0.45499  0.00322  1.0000
  H   H3681     1.0  0.79593  0.67636  0.26679  1.0000
  H   H3682     1.0  0.87480  0.49829  0.16025  1.0000
  H   H3683     1.0  0.86725  0.53211  0.27637  1.0000
  H   H3684     1.0  0.00002  0.52152  0.44479  1.0000
  H   H3685     1.0  0.52006  0.56967  0.47961  1.0000
  H   H3686     1.0  0.96197  0.58862  0.29458  1.0000
  N   N113      1.0  0.93950  0.63921  0.32481  1.0000
  H   H3687     1.0  0.87330  0.55731  0.32172  1.0000
  C   C2083     1.0  0.64025  0.45598  0.22711  1.0000
  C   C2084     1.0  0.72682  0.45508  0.22405  1.0000
  H   H3688     1.0  0.56065  0.61667  0.45093  1.0000
  C   C2085     1.0  0.63055  0.58121  0.46315  1.0000
  H   H3689     1.0  0.61074  0.55683  0.99426  1.0000
  C   C2086     1.0  0.55440  0.66417  0.46830  1.0000
  N   N114      1.0  0.52584  0.62040  0.46560  1.0000
  H   H3690     1.0  0.79274  0.52611  0.46621  1.0000
  H   H3691     1.0  0.99079  0.44155  0.28954  1.0000
  C   C2087     1.0  0.56265  0.68332  0.17034  1.0000
  H   H3692     1.0  0.93841  0.45877  0.35162  1.0000
  H   H3693     1.0  0.00840  0.67846  0.18427  1.0000
  H   H3694     1.0  0.85124  0.64352  0.99386  1.0000
  H   H3695     1.0  0.71934  0.54403  0.44914  1.0000
  H   H3696     1.0  0.00463  0.57216  0.36300  1.0000
  H   H3697     1.0  0.57399  0.68315  0.13795  1.0000
  H   H3698     1.0  0.86236  0.68819  0.26776  1.0000
  S   S461      1.0  0.92600  0.52689  0.47835  1.0000
  H   H3699     1.0  0.51714  0.63878  0.99072  1.0000
  H   H3700     1.0  0.69878  0.68403  0.08396  1.0000
  C   C2088     1.0  0.92948  0.44863  0.39364  1.0000
  H   H3701     1.0  0.94130  0.68767  0.31825  1.0000
  N   N115      1.0  0.90730  0.45338  0.40927  1.0000
  H   H3702     1.0  0.82278  0.60940  0.98862  1.0000
  H   H3703     1.0  0.00378  0.48500  0.99211  1.0000
  H   H3704     1.0  0.57059  0.52765  0.98397  1.0000
  H   H3705     1.0  0.60062  0.76842  0.50888  1.0000
  C   C2089     1.0  0.58225  0.91731  0.97954  1.0000
  C   C2090     1.0  0.63638  0.88573  0.59723  1.0000
  H   H3706     1.0  0.93663  0.74152  0.53944  1.0000
  H   H3707     1.0  0.80720  0.88551  0.62986  1.0000
  N   N116      1.0  0.62164  0.84095  0.67735  1.0000
  H   H3708     1.0  0.68238  0.76805  0.76107  1.0000
  H   H3709     1.0  0.59630  0.81129  0.57605  1.0000
  H   H3710     1.0  0.57683  0.77527  0.95713  1.0000
  H   H3711     1.0  0.98164  0.90349  0.81714  1.0000
  H   H3712     1.0  0.97453  0.87287  0.57966  1.0000
  H   H3713     1.0  0.52433  0.83999  0.84877  1.0000
  H   H3714     1.0  0.63582  0.91557  0.73804  1.0000
  H   H3715     1.0  0.54363  0.71315  0.50535  1.0000
  H   H3716     1.0  0.57828  0.72640  0.58623  1.0000
  N   N117      1.0  0.90467  0.75933  0.66748  1.0000
  H   H3717     1.0  0.94880  0.84479  0.57909  1.0000
  H   H3718     1.0  0.61518  0.92200  0.50768  1.0000
  H   H3719     1.0  0.59052  0.86268  0.90483  1.0000
  H   H3720     1.0  0.63577  0.73699  0.81889  1.0000
  C   C2091     1.0  0.63404  0.78129  0.84653  1.0000
  C   C2092     1.0  0.94065  0.75966  0.50549  1.0000
  C   C2093     1.0  0.92804  0.87202  0.52271  1.0000
  S   S462      1.0  0.59071  0.78649  0.84268  1.0000
  C   C2094     1.0  0.91691  0.79692  0.69393  1.0000
  H   H3721     1.0  0.86860  0.73854  0.62422  1.0000
  H   H3722     1.0  0.76497  0.83096  0.57375  1.0000
  C   C2095     1.0  0.71649  0.75029  0.61151  1.0000
  C   C2096     1.0  0.80713  0.88443  0.66696  1.0000
  C   C2097     1.0  0.93541  0.80177  0.89701  1.0000
  Fe  Fe232     1.0  0.76938  0.70785  0.68811  1.0000
  C   C2098     1.0  0.63710  0.82287  0.83893  1.0000
  H   H3723     1.0  0.72959  0.83142  0.62951  1.0000
  H   H3724     1.0  0.67173  0.79696  0.67789  1.0000
  H   H3725     1.0  0.95724  0.82954  0.66781  1.0000
  Fe  Fe233     1.0  0.74711  0.90523  0.87666  1.0000
  H   H3726     1.0  0.72429  0.74983  0.51910  1.0000
  H   H3727     1.0  0.66606  0.90611  0.69514  1.0000
  C   C2099     1.0  0.96609  0.86102  0.86700  1.0000
  C   C2100     1.0  0.91822  0.74919  0.64079  1.0000
  H   H3728     1.0  0.85555  0.76497  0.55926  1.0000
  S   S463      1.0  0.80596  0.72453  0.81837  1.0000
  H   H3729     1.0  0.94398  0.80462  0.73368  1.0000
  C   C2101     1.0  0.96627  0.70743  0.89766  1.0000
  H   H3730     1.0  0.93524  0.91784  0.93820  1.0000
  C   C2102     1.0  0.98203  0.71923  0.80727  1.0000
  H   H3731     1.0  0.94282  0.79481  0.63939  1.0000
  Fe  Fe234     1.0  0.57899  0.69773  0.86162  1.0000
  H   H3732     1.0  0.70131  0.77389  0.90580  1.0000
  Fe  Fe235     1.0  0.90559  0.87344  0.71274  1.0000
  C   C2103     1.0  0.91328  0.80537  0.88067  1.0000
  H   H3733     1.0  0.90118  0.91734  0.60694  1.0000
  H   H3734     1.0  0.95961  0.77361  0.93856  1.0000
  H   H3735     1.0  0.91678  0.71666  0.70617  1.0000
  C   C2104     1.0  0.65982  0.79049  0.84604  1.0000
  H   H3736     1.0  0.60116  0.70324  0.57458  1.0000
  H   H3737     1.0  0.53517  0.69306  0.64006  1.0000
  C   C2105     1.0  0.95462  0.86453  0.57782  1.0000
  C   C2106     1.0  0.93153  0.73490  0.67006  1.0000
  Fe  Fe236     1.0  0.76871  0.92692  0.76355  1.0000
  H   H3738     1.0  0.61163  0.92331  0.59781  1.0000
  C   C2107     1.0  0.91968  0.89750  0.95189  1.0000
  H   H3739     1.0  0.86388  0.71278  0.91747  1.0000
  H   H3740     1.0  0.78266  0.84806  0.85670  1.0000
  C   C2108     1.0  0.86952  0.70062  0.90445  1.0000
  C   C2109     1.0  0.59291  0.83246  0.68742  1.0000
  H   H3741     1.0  0.87415  0.84845  0.55879  1.0000
  H   H3742     1.0  0.63684  0.77619  0.69625  1.0000
  S   S464      1.0  0.55707  0.82720  0.57698  1.0000
  H   H3743     1.0  0.91164  0.80938  0.66557  1.0000
  H   H3744     1.0  0.95017  0.77738  0.51121  1.0000
  H   H3745     1.0  0.83206  0.83155  0.54327  1.0000
  Fe  Fe237     1.0  0.95620  0.91049  0.71921  1.0000
  C   C2110     1.0  0.78436  0.85693  0.76007  1.0000
  Fe  Fe238     1.0  0.51600  0.81802  0.58302  1.0000
  H   H3746     1.0  0.58318  0.74943  0.95421  1.0000
  H   H3747     1.0  0.83153  0.75701  0.71109  1.0000
  H   H3748     1.0  0.94697  0.74854  0.67816  1.0000
  C   C2111     1.0  0.80277  0.85715  0.82968  1.0000
  H   H3749     1.0  0.64550  0.89835  0.61431  1.0000
  H   H3750     1.0  0.74880  0.86218  0.56981  1.0000
  H   H3751     1.0  0.63700  0.90418  0.91379  1.0000
  C   C2112     1.0  0.53977  0.73988  0.56042  1.0000
  H   H3752     1.0  0.98517  0.71718  0.90297  1.0000
  S   S465      1.0  0.70578  0.88039  0.88367  1.0000
  H   H3753     1.0  0.70715  0.79279  0.59514  1.0000
  C   C2113     1.0  0.91279  0.88851  0.91742  1.0000
  H   H3754     1.0  0.67385  0.85178  0.83505  1.0000
  H   H3755     1.0  0.94268  0.72328  0.92122  1.0000
  H   H3756     1.0  0.58586  0.70021  0.68254  1.0000
  H   H3757     1.0  0.93270  0.77051  0.70351  1.0000
  H   H3758     1.0  0.92685  0.85638  0.51196  1.0000
  H   H3759     1.0  0.60370  0.69922  0.72466  1.0000
  C   C2114     1.0  0.62393  0.81578  0.69531  1.0000
  H   H3760     1.0  0.53235  0.79005  0.78849  1.0000
  H   H3761     1.0  0.96672  0.89289  0.88288  1.0000
  H   H3762     1.0  0.64277  0.89051  0.52165  1.0000
  H   H3763     1.0  0.81281  0.83977  0.71415  1.0000
  S   S466      1.0  0.93910  0.82034  0.49268  1.0000
  H   H3764     1.0  0.72546  0.78811  0.63450  1.0000
  H   H3765     1.0  0.51383  0.73634  0.72006  1.0000
  H   H3766     1.0  0.51211  0.71447  0.65927  1.0000
  S   S467      1.0  0.70642  0.82739  0.84157  1.0000
  H   H3767     1.0  0.85540  0.82382  0.51653  1.0000
  N   N118      1.0  0.52466  0.71032  0.57575  1.0000
  H   H3768     1.0  0.67844  0.70445  0.69922  1.0000
  N   N119      1.0  0.96968  0.69674  0.86126  1.0000
  H   H3769     1.0  0.79503  0.88956  0.54026  1.0000
  C   C2115     1.0  0.73104  0.80898  0.95561  1.0000
  H   H3770     1.0  0.54598  0.84861  0.78862  1.0000
  C   C2116     1.0  0.89293  0.86196  0.93507  1.0000
  H   H3771     1.0  0.67963  0.93378  0.90606  1.0000
  N   N120      1.0  0.78701  0.85678  0.71002  1.0000
  H   H3772     1.0  0.57004  0.92558  0.82200  1.0000
  C   C2117     1.0  0.85551  0.70754  0.57025  1.0000
  H   H3773     1.0  0.96269  0.85537  0.83739  1.0000
  H   H3774     1.0  0.66278  0.88637  0.97380  1.0000
  C   C2118     1.0  0.77047  0.76680  0.56520  1.0000
  H   H3775     1.0  0.00829  0.80136  0.91368  1.0000
  H   H3776     1.0  0.81707  0.92272  0.76339  1.0000
  H   H3777     1.0  0.62281  0.76155  0.85035  1.0000
  H   H3778     1.0  0.57516  0.91465  0.67119  1.0000
  H   H3779     1.0  0.76793  0.79270  0.59382  1.0000
  C   C2119     1.0  0.60937  0.92892  0.76229  1.0000
  H   H3780     1.0  0.56249  0.89744  0.76061  1.0000
  C   C2120     1.0  0.83434  0.71226  0.57120  1.0000
  C   C2121     1.0  0.67425  0.81592  0.84194  1.0000
  C   C2122     1.0  0.91152  0.92536  0.56617  1.0000
  H   H3781     1.0  0.53165  0.79631  0.51619  1.0000
  H   H3782     1.0  0.59001  0.85011  0.67729  1.0000
  Fe  Fe239     1.0  0.55349  0.71592  0.78811  1.0000
  C   C2123     1.0  0.73402  0.77191  0.49473  1.0000
  H   H3783     1.0  0.90329  0.73602  0.84027  1.0000
  H   H3784     1.0  0.72749  0.84377  0.94752  1.0000
  H   H3785     1.0  0.98914  0.75966  0.88769  1.0000
  H   H3786     1.0  0.65249  0.82212  0.62991  1.0000
  S   S468      1.0  0.72373  0.75777  0.72829  1.0000
  H   H3787     1.0  0.84565  0.93590  0.61192  1.0000
  C   C2124     1.0  0.67959  0.70816  0.78969  1.0000
  H   H3788     1.0  0.76224  0.75010  0.60454  1.0000
  C   C2125     1.0  0.80052  0.79625  0.97051  1.0000
  H   H3789     1.0  0.64151  0.93580  0.64781  1.0000
  H   H3790     1.0  0.55650  0.75042  0.52454  1.0000
  S   S469      1.0  0.88462  0.84920  0.89374  1.0000
  C   C2126     1.0  0.88013  0.76070  0.60344  1.0000
  H   H3791     1.0  0.86988  0.70411  0.70029  1.0000
  S   S470      1.0  0.88037  0.88099  0.76116  1.0000
  H   H3792     1.0  0.88275  0.69607  0.92312  1.0000
  H   H3793     1.0  0.51985  0.85634  0.79135  1.0000
  C   C2127     1.0  0.52365  0.70613  0.53026  1.0000
  H   H3794     1.0  0.71978  0.73725  0.59749  1.0000
  H   H3795     1.0  0.59667  0.93629  0.74660  1.0000
  C   C2128     1.0  0.95620  0.72795  0.88518  1.0000
  H   H3796     1.0  0.93057  0.71103  0.63202  1.0000
  C   C2129     1.0  0.80025  0.77901  0.54707  1.0000
  H   H3797     1.0  0.90450  0.73483  0.63126  1.0000
  C   C2130     1.0  0.73496  0.76970  0.91976  1.0000
  H   H3798     1.0  0.98615  0.86552  0.86610  1.0000
  Fe  Fe240     1.0  0.90442  0.87615  0.80972  1.0000
  C   C2131     1.0  0.54223  0.78509  0.51578  1.0000
  H   H3799     1.0  0.96008  0.74369  0.60265  1.0000
  H   H3800     1.0  0.94213  0.92931  0.48733  1.0000
  H   H3801     1.0  0.81697  0.93130  0.54622  1.0000
  H   H3802     1.0  0.60227  0.84082  0.49315  1.0000
  H   H3803     1.0  0.89979  0.78386  0.73011  1.0000
  H   H3804     1.0  0.99941  0.84876  0.77863  1.0000
  H   H3805     1.0  0.85739  0.91900  0.58531  1.0000
  C   C2132     1.0  0.92210  0.91236  0.49981  1.0000
  C   C2133     1.0  0.66064  0.86864  0.69746  1.0000
  C   C2134     1.0  0.95481  0.88406  0.52920  1.0000
  H   H3806     1.0  0.70591  0.76884  0.82922  1.0000
  H   H3807     1.0  0.66848  0.77785  0.84902  1.0000
  C   C2135     1.0  0.63256  0.80784  0.48377  1.0000
  H   H3808     1.0  0.74885  0.81668  0.96490  1.0000
  C   C2136     1.0  0.86655  0.81386  0.71764  1.0000
  H   H3809     1.0  0.99763  0.73611  0.59347  1.0000
  C   C2137     1.0  0.79361  0.83558  0.70993  1.0000
  H   H3810     1.0  0.87388  0.74523  0.73668  1.0000
  H   H3811     1.0  0.65361  0.92168  0.52420  1.0000
  C   C2138     1.0  0.94506  0.72602  0.63931  1.0000
  H   H3812     1.0  0.72209  0.74636  0.64549  1.0000
  C   C2139     1.0  0.55377  0.74965  0.67817  1.0000
  S   S471      1.0  0.78393  0.74367  0.70116  1.0000
  H   H3813     1.0  0.69157  0.69977  0.78249  1.0000
  C   C2140     1.0  0.68643  0.73931  0.63071  1.0000
  C   C2141     1.0  0.87271  0.86027  0.52309  1.0000
  H   H3814     1.0  0.60498  0.90177  0.72920  1.0000
  C   C2142     1.0  0.99771  0.88152  0.95459  1.0000
  H   H3815     1.0  0.81269  0.87939  0.81306  1.0000
  H   H3816     1.0  0.60875  0.80013  0.68993  1.0000
  C   C2143     1.0  0.57370  0.81179  0.74278  1.0000
  C   C2144     1.0  0.83030  0.75864  0.78026  1.0000
  C   C2145     1.0  0.88405  0.73727  0.71884  1.0000
  H   H3817     1.0  0.97589  0.82267  0.95800  1.0000
  C   C2146     1.0  0.86180  0.77097  0.58714  1.0000
  H   H3818     1.0  0.57845  0.82020  0.76850  1.0000
  H   H3819     1.0  0.91849  0.82675  0.86257  1.0000
  C   C2147     1.0  0.78225  0.93197  0.93906  1.0000
  C   C2148     1.0  0.52435  0.75532  0.55485  1.0000
  H   H3820     1.0  0.78867  0.71564  0.93043  1.0000
  H   H3821     1.0  0.65711  0.87950  0.75767  1.0000
  H   H3822     1.0  0.80988  0.79705  0.50910  1.0000
  H   H3823     1.0  0.61962  0.80648  0.73678  1.0000
  H   H3824     1.0  0.95305  0.81235  0.86205  1.0000
  H   H3825     1.0  0.62394  0.89571  0.82102  1.0000
  H   H3826     1.0  0.92621  0.83756  0.92320  1.0000
  H   H3827     1.0  0.93350  0.76632  0.60351  1.0000
  H   H3828     1.0  0.63771  0.87942  0.89618  1.0000
  N   N121      1.0  0.73375  0.77977  0.57283  1.0000
  S   S472      1.0  0.93443  0.92002  0.76932  1.0000
  S   S473      1.0  0.53446  0.72904  0.83442  1.0000
  H   H3829     1.0  0.62528  0.87152  0.69883  1.0000
  H   H3830     1.0  0.00874  0.70381  0.85657  1.0000
  S   S474      1.0  0.93615  0.91715  0.66425  1.0000
  C   C2149     1.0  0.90966  0.90227  0.55705  1.0000
  C   C2150     1.0  0.69267  0.92754  0.92249  1.0000
  H   H3831     1.0  0.57430  0.79278  0.75564  1.0000
  H   H3832     1.0  0.98324  0.82492  0.89780  1.0000
  Fe  Fe241     1.0  0.57273  0.74618  0.84571  1.0000
  H   H3833     1.0  0.92279  0.90205  0.87735  1.0000
  S   S475      1.0  0.56154  0.70848  0.91534  1.0000
  H   H3834     1.0  0.82823  0.82532  0.65507  1.0000
  C   C2151     1.0  0.63608  0.85860  0.62088  1.0000
  H   H3835     1.0  0.66483  0.85267  0.71877  1.0000
  H   H3836     1.0  0.74130  0.80805  0.49680  1.0000
  H   H3837     1.0  0.80619  0.85058  0.62692  1.0000
  H   H3838     1.0  0.87590  0.74462  0.94202  1.0000
  H   H3839     1.0  0.82229  0.85885  0.76255  1.0000
  H   H3840     1.0  0.95984  0.90315  0.53007  1.0000
  H   H3841     1.0  0.58342  0.87189  0.81152  1.0000
  C   C2152     1.0  0.67150  0.70899  0.66714  1.0000
  H   H3842     1.0  0.94072  0.86166  0.61117  1.0000
  C   C2153     1.0  0.83560  0.89534  0.66583  1.0000
  C   C2154     1.0  0.89312  0.77321  0.63454  1.0000
  C   C2155     1.0  0.96798  0.81224  0.93662  1.0000
  S   S476      1.0  0.00028  0.93352  0.69154  1.0000
  H   H3843     1.0  0.54106  0.88888  0.82026  1.0000
  H   H3844     1.0  0.90861  0.79429  0.60577  1.0000
  H   H3845     1.0  0.00002  0.70304  0.76890  1.0000
  C   C2156     1.0  0.98663  0.71130  0.76551  1.0000
  S   S477      1.0  0.92781  0.86597  0.76361  1.0000
  C   C2157     1.0  0.65238  0.90176  0.54057  1.0000
  H   H3846     1.0  0.53895  0.79512  0.72489  1.0000
  H   H3847     1.0  0.54910  0.74302  0.58789  1.0000
  H   H3848     1.0  0.77530  0.80708  0.52743  1.0000
  S   S478      1.0  0.88925  0.84808  0.67663  1.0000
  H   H3849     1.0  0.78811  0.87705  0.75504  1.0000
  C   C2158     1.0  0.97834  0.75725  0.86188  1.0000
  C   C2159     1.0  0.66289  0.83215  0.83813  1.0000
  H   H3850     1.0  0.96988  0.77073  0.85571  1.0000
  H   H3851     1.0  0.67322  0.87947  0.65700  1.0000
  H   H3852     1.0  0.96780  0.69615  0.76757  1.0000
  H   H3853     1.0  0.60592  0.77487  0.96503  1.0000
  S   S479      1.0  0.51853  0.90485  0.72451  1.0000
  C   C2160     1.0  0.53853  0.69642  0.60065  1.0000
  H   H3854     1.0  0.74597  0.82818  0.73226  1.0000
  H   H3855     1.0  0.84836  0.71798  0.70479  1.0000
  C   C2161     1.0  0.00881  0.86999  0.76755  1.0000
  H   H3856     1.0  0.67424  0.69786  0.64734  1.0000
  C   C2162     1.0  0.66877  0.88905  0.71684  1.0000
  H   H3857     1.0  0.93321  0.82893  0.71306  1.0000
  H   H3858     1.0  0.98761  0.74583  0.70693  1.0000
  C   C2163     1.0  0.62494  0.88407  0.91740  1.0000
  C   C2164     1.0  0.57421  0.88184  0.82516  1.0000
  C   C2165     1.0  0.72874  0.78616  0.52400  1.0000
  N   N122      1.0  0.59492  0.90835  0.81766  1.0000
  H   H3859     1.0  0.77891  0.81567  0.74354  1.0000
  C   C2166     1.0  0.99484  0.78903  0.95396  1.0000
  S   S480      1.0  0.72919  0.90419  0.76130  1.0000
  C   C2167     1.0  0.00073  0.72937  0.52903  1.0000
  H   H3860     1.0  0.70836  0.83517  0.73530  1.0000
  H   H3861     1.0  0.73300  0.76323  0.83428  1.0000
  C   C2168     1.0  0.85911  0.80273  0.77024  1.0000
  C   C2169     1.0  0.72256  0.77345  0.84273  1.0000
  H   H3862     1.0  0.00302  0.79918  0.97553  1.0000
  H   H3863     1.0  0.56304  0.86757  0.86603  1.0000
  H   H3864     1.0  0.86592  0.87381  0.52817  1.0000
  C   C2170     1.0  0.81409  0.70087  0.61711  1.0000
  C   C2171     1.0  0.74621  0.82660  0.56723  1.0000
  H   H3865     1.0  0.70823  0.78215  0.53051  1.0000
  C   C2172     1.0  0.67423  0.74648  0.77746  1.0000
  H   H3866     1.0  0.00596  0.93187  0.57229  1.0000
  C   C2173     1.0  0.85618  0.79736  0.69659  1.0000
  S   S481      1.0  0.72774  0.69909  0.71198  1.0000
  C   C2174     1.0  0.79491  0.70512  0.95975  1.0000
  C   C2175     1.0  0.92541  0.78015  0.67531  1.0000
  H   H3867     1.0  0.92036  0.89434  0.57848  1.0000
  H   H3868     1.0  0.56713  0.90330  0.88155  1.0000
  H   H3869     1.0  0.61638  0.86869  0.95789  1.0000
  C   C2176     1.0  0.84099  0.77500  0.80166  1.0000
  H   H3870     1.0  0.75079  0.83607  0.52590  1.0000
  H   H3871     1.0  0.00171  0.72965  0.68346  1.0000
  N   N123      1.0  0.92348  0.89216  0.48468  1.0000
  C   C2177     1.0  0.71215  0.76367  0.89950  1.0000
  H   H3872     1.0  0.70205  0.92176  0.89801  1.0000
  C   C2178     1.0  0.61439  0.90372  0.83996  1.0000
  C   C2179     1.0  0.74913  0.86749  0.70662  1.0000
  C   C2180     1.0  0.62272  0.79751  0.84285  1.0000
  H   H3873     1.0  0.89049  0.70659  0.83187  1.0000
  C   C2181     1.0  0.59214  0.91999  0.59635  1.0000
  H   H3874     1.0  0.90251  0.93562  0.54369  1.0000
  H   H3875     1.0  0.83623  0.69698  0.79760  1.0000
  H   H3876     1.0  0.80775  0.78435  0.57464  1.0000
  H   H3877     1.0  0.56011  0.79409  0.52418  1.0000
  H   H3878     1.0  0.99399  0.76926  0.96944  1.0000
  C   C2182     1.0  0.65222  0.79366  0.69684  1.0000
  H   H3879     1.0  0.67279  0.90538  0.53292  1.0000
  H   H3880     1.0  0.64985  0.78904  0.73662  1.0000
  H   H3881     1.0  0.71298  0.86860  0.71048  1.0000
  H   H3882     1.0  0.86207  0.80590  0.65593  1.0000
  H   H3883     1.0  0.85974  0.92447  0.75888  1.0000
  C   C2183     1.0  0.57829  0.79498  0.60738  1.0000
  C   C2184     1.0  0.69028  0.73610  0.76756  1.0000
  H   H3884     1.0  0.74464  0.75850  0.91284  1.0000
  H   H3885     1.0  0.72218  0.85744  0.66760  1.0000
  H   H3886     1.0  0.52284  0.74674  0.93382  1.0000
  H   H3887     1.0  0.58587  0.82368  0.66313  1.0000
  H   H3888     1.0  0.79350  0.82697  0.80596  1.0000
  C   C2185     1.0  0.83848  0.76979  0.72778  1.0000
  H   H3889     1.0  0.89356  0.73001  0.74462  1.0000
  C   C2186     1.0  0.81565  0.90377  0.51820  1.0000
  H   H3890     1.0  0.84391  0.76209  0.62032  1.0000
  H   H3891     1.0  0.57444  0.88516  0.67123  1.0000
  C   C2187     1.0  0.76084  0.84948  0.70343  1.0000
  S   S482      1.0  0.76399  0.89125  0.82917  1.0000
  C   C2188     1.0  0.54539  0.80462  0.74831  1.0000
  Fe  Fe242     1.0  0.74172  0.73161  0.73377  1.0000
  H   H3892     1.0  0.77897  0.81051  0.92987  1.0000
  C   C2189     1.0  0.58477  0.76190  0.97322  1.0000
  H   H3893     1.0  0.82327  0.70571  0.90610  1.0000
  H   H3894     1.0  0.65697  0.86394  0.60964  1.0000
  H   H3895     1.0  0.00143  0.73541  0.80129  1.0000
  H   H3896     1.0  0.89477  0.79427  0.91346  1.0000
  H   H3897     1.0  0.86706  0.81552  0.78663  1.0000
  H   H3898     1.0  0.87153  0.71725  0.53479  1.0000
  H   H3899     1.0  0.81982  0.81280  0.94024  1.0000
  H   H3900     1.0  0.89561  0.76639  0.56899  1.0000
  H   H3901     1.0  0.79723  0.79522  0.69936  1.0000
  C   C2190     1.0  0.64772  0.72888  0.80990  1.0000
  Fe  Fe243     1.0  0.72331  0.86945  0.83075  1.0000
  H   H3902     1.0  0.87847  0.77505  0.65790  1.0000
  C   C2191     1.0  0.80176  0.84916  0.78811  1.0000
  C   C2192     1.0  0.86187  0.71244  0.72083  1.0000
  C   C2193     1.0  0.96514  0.88691  0.85300  1.0000
  H   H3903     1.0  0.73607  0.79555  0.82174  1.0000
  C   C2194     1.0  0.96728  0.78483  0.95875  1.0000
  S   S483      1.0  0.59267  0.73669  0.79286  1.0000
  S   S484      1.0  0.68532  0.93064  0.80558  1.0000
  H   H3904     1.0  0.93005  0.69626  0.82013  1.0000
  C   C2195     1.0  0.51926  0.92263  0.62761  1.0000
  H   H3905     1.0  0.88874  0.88641  0.57369  1.0000
  H   H3906     1.0  0.69813  0.74171  0.91782  1.0000
  H   H3907     1.0  0.74780  0.86872  0.74207  1.0000
  C   C2196     1.0  0.57229  0.90283  0.65068  1.0000
  C   C2197     1.0  0.57705  0.77080  0.63773  1.0000
  H   H3908     1.0  0.76331  0.75773  0.54174  1.0000
  H   H3909     1.0  0.74975  0.79137  0.89477  1.0000
  S   S485      1.0  0.78896  0.70911  0.61704  1.0000
  C   C2198     1.0  0.99960  0.73587  0.71286  1.0000
  H   H3910     1.0  0.84314  0.88158  0.66598  1.0000
  C   C2199     1.0  0.53182  0.75269  0.68863  1.0000
  H   H3911     1.0  0.94446  0.72658  0.86087  1.0000
  C   C2200     1.0  0.72149  0.85639  0.70483  1.0000
  H   H3912     1.0  0.65023  0.70180  0.68291  1.0000
  H   H3913     1.0  0.63588  0.80227  0.51905  1.0000
  H   H3914     1.0  0.51562  0.77865  0.66477  1.0000
  H   H3915     1.0  0.66762  0.83607  0.66635  1.0000
  H   H3916     1.0  0.80991  0.72040  0.96579  1.0000
  C   C2201     1.0  0.76238  0.78804  0.56393  1.0000
  H   H3917     1.0  0.68138  0.74896  0.65192  1.0000
  H   H3918     1.0  0.95160  0.84531  0.94693  1.0000
  S   S486      1.0  0.55169  0.71893  0.71391  1.0000
  C   C2202     1.0  0.60298  0.88360  0.89745  1.0000
  H   H3919     1.0  0.59402  0.76841  0.62966  1.0000
  H   H3920     1.0  0.92903  0.77998  0.91238  1.0000
  C   C2203     1.0  0.88503  0.71807  0.84766  1.0000
  H   H3921     1.0  0.71636  0.83784  0.57984  1.0000
  C   C2204     1.0  0.73447  0.84029  0.58800  1.0000
  H   H3922     1.0  0.80453  0.80840  0.63227  1.0000
  H   H3923     1.0  0.98449  0.87757  0.72573  1.0000
  H   H3924     1.0  0.87191  0.79329  0.56954  1.0000
  H   H3925     1.0  0.87309  0.93251  0.62205  1.0000
  H   H3926     1.0  0.76238  0.85056  0.66587  1.0000
  H   H3927     1.0  0.55196  0.89520  0.65075  1.0000
  H   H3928     1.0  0.63081  0.92315  0.83244  1.0000
  H   H3929     1.0  0.62078  0.84191  0.74765  1.0000
  C   C2205     1.0  0.62057  0.91991  0.72747  1.0000
  C   C2206     1.0  0.85145  0.84024  0.51420  1.0000
  H   H3930     1.0  0.83669  0.89884  0.69856  1.0000
  H   H3931     1.0  0.87870  0.92638  0.86463  1.0000
  H   H3932     1.0  0.98652  0.70805  0.55123  1.0000
  C   C2207     1.0  0.55328  0.88288  0.80154  1.0000
  H   H3933     1.0  0.54338  0.82285  0.73678  1.0000
  C   C2208     1.0  0.63097  0.85576  0.70622  1.0000
  H   H3934     1.0  0.97028  0.72917  0.79869  1.0000
  Fe  Fe244     1.0  0.91269  0.92416  0.71670  1.0000
  C   C2209     1.0  0.72692  0.79570  0.59445  1.0000
  H   H3935     1.0  0.67925  0.74283  0.59892  1.0000
  H   H3936     1.0  0.57546  0.72197  0.53230  1.0000
  C   C2210     1.0  0.80689  0.81398  0.66246  1.0000
  C   C2211     1.0  0.58183  0.91926  0.84299  1.0000
  H   H3937     1.0  0.99254  0.76386  0.82498  1.0000
  C   C2212     1.0  0.00036  0.88622  0.73776  1.0000
  C   C2213     1.0  0.82803  0.92745  0.52134  1.0000
  H   H3938     1.0  0.97064  0.88839  0.49715  1.0000
  C   C2214     1.0  0.67674  0.90393  0.97623  1.0000
  C   C2215     1.0  0.85399  0.92233  0.61836  1.0000
  C   C2216     1.0  0.55601  0.79766  0.61666  1.0000
  H   H3939     1.0  0.92573  0.80839  0.80692  1.0000
  C   C2217     1.0  0.85832  0.93840  0.72682  1.0000
  C   C2218     1.0  0.53278  0.77652  0.65721  1.0000
  H   H3940     1.0  0.00198  0.87577  0.92527  1.0000
  H   H3941     1.0  0.87307  0.72512  0.82851  1.0000
  H   H3942     1.0  0.81427  0.85015  0.85042  1.0000
  H   H3943     1.0  0.59093  0.88834  0.91978  1.0000
  C   C2219     1.0  0.93925  0.81612  0.70264  1.0000
  H   H3944     1.0  0.76379  0.84259  0.78777  1.0000
  H   H3945     1.0  0.77424  0.82062  0.66367  1.0000
  H   H3946     1.0  0.76138  0.88827  0.67437  1.0000
  C   C2220     1.0  0.00679  0.74525  0.55298  1.0000
  C   C2221     1.0  0.56889  0.71124  0.57405  1.0000
  H   H3947     1.0  0.61627  0.88247  0.60183  1.0000
  H   H3948     1.0  0.93247  0.94002  0.55574  1.0000
  H   H3949     1.0  0.80189  0.89963  0.66825  1.0000
  C   C2222     1.0  0.79706  0.92931  0.96959  1.0000
  H   H3950     1.0  0.90343  0.77428  0.85735  1.0000
  H   H3951     1.0  0.92158  0.75690  0.50183  1.0000
  C   C2223     1.0  0.90815  0.79553  0.84235  1.0000
  C   C2224     1.0  0.51259  0.91841  0.58838  1.0000
  H   H3952     1.0  0.62820  0.83524  0.83695  1.0000
  H   H3953     1.0  0.68986  0.89723  0.71173  1.0000
  H   H3954     1.0  0.78315  0.93778  0.59331  1.0000
  H   H3955     1.0  0.60719  0.93669  0.87943  1.0000
  H   H3956     1.0  0.83480  0.76646  0.84234  1.0000
  H   H3957     1.0  0.94646  0.88395  0.84731  1.0000
  H   H3958     1.0  0.89130  0.79697  0.83351  1.0000
  C   C2225     1.0  0.94546  0.83838  0.92008  1.0000
  C   C2226     1.0  0.71519  0.82144  0.96895  1.0000
  N   N124      1.0  0.72767  0.76290  0.97474  1.0000
  H   H3959     1.0  0.58563  0.90785  0.57717  1.0000
  S   S487      1.0  0.99343  0.83535  0.55038  1.0000
  C   C2227     1.0  0.79450  0.83131  0.66286  1.0000
  C   C2228     1.0  0.65051  0.81886  0.66896  1.0000
  Fe  Fe245     1.0  0.71481  0.91705  0.81379  1.0000
  H   H3960     1.0  0.73668  0.81616  0.91439  1.0000
  H   H3961     1.0  0.80543  0.76410  0.54416  1.0000
  H   H3962     1.0  0.95492  0.71649  0.66062  1.0000
  H   H3963     1.0  0.62759  0.84722  0.60107  1.0000
  H   H3964     1.0  0.91233  0.86055  0.56056  1.0000
  H   H3965     1.0  0.58239  0.94023  0.49637  1.0000
  H   H3966     1.0  0.78436  0.78610  0.91875  1.0000
  N   N125      1.0  0.94233  0.81090  0.93485  1.0000
  S   S488      1.0  0.52004  0.83423  0.95695  1.0000
  Fe  Fe246     1.0  0.77756  0.71427  0.77897  1.0000
  C   C2229     1.0  0.53482  0.85523  0.80804  1.0000
  H   H3967     1.0  0.00271  0.69855  0.63534  1.0000
  C   C2230     1.0  0.77892  0.79138  0.94827  1.0000
  S   S489      1.0  0.75673  0.90256  0.94564  1.0000
  H   H3968     1.0  0.83413  0.72557  0.53644  1.0000
  C   C2231     1.0  0.00961  0.93910  0.53229  1.0000
  C   C2232     1.0  0.63707  0.70090  0.83181  1.0000
  S   S490      1.0  0.73630  0.70467  0.81226  1.0000
  H   H3969     1.0  0.52238  0.93476  0.55003  1.0000
  H   H3970     1.0  0.84890  0.76290  0.96521  1.0000
  H   H3971     1.0  0.97917  0.88215  0.95818  1.0000
  H   H3972     1.0  0.69744  0.81535  0.95872  1.0000
  C   C2233     1.0  0.57935  0.69171  0.58819  1.0000
  C   C2234     1.0  0.82985  0.89866  0.48614  1.0000
  C   C2235     1.0  0.83418  0.93738  0.72944  1.0000
  H   H3973     1.0  0.70516  0.89067  0.98017  1.0000
  H   H3974     1.0  0.51642  0.75399  0.59172  1.0000
  C   C2236     1.0  0.51215  0.72028  0.49543  1.0000
  C   C2237     1.0  0.85618  0.69064  0.61500  1.0000
  H   H3975     1.0  0.96845  0.93689  0.82445  1.0000
  C   C2238     1.0  0.86697  0.73841  0.98126  1.0000
  H   H3976     1.0  0.89161  0.93869  0.79756  1.0000
  H   H3977     1.0  0.89521  0.92767  0.97788  1.0000
  H   H3978     1.0  0.59818  0.91319  0.97367  1.0000
  C   C2239     1.0  0.65311  0.69066  0.82137  1.0000
  H   H3979     1.0  0.69546  0.77103  0.98194  1.0000
  H   H3980     1.0  0.52249  0.78673  0.23282  1.0000
  H   H3981     1.0  0.53265  0.70794  0.35860  1.0000
  C   C2240     1.0  0.55132  0.70177  0.15197  1.0000
  H   H3982     1.0  0.57919  0.73176  0.04425  1.0000
  C   C2241     1.0  0.71675  0.78508  0.14431  1.0000
  C   C2242     1.0  0.90584  0.88033  0.00396  1.0000
  H   H3983     1.0  0.87163  0.79640  0.37298  1.0000
  C   C2243     1.0  0.00825  0.80760  0.35838  1.0000
  C   C2244     1.0  0.84144  0.74244  0.04457  1.0000
  H   H3984     1.0  0.51963  0.74472  0.08860  1.0000
  C   C2245     1.0  0.98471  0.78391  0.17774  1.0000
  C   C2246     1.0  0.65886  0.85117  0.06714  1.0000
  H   H3985     1.0  0.97000  0.72175  0.22884  1.0000
  H   H3986     1.0  0.59367  0.90945  0.06865  1.0000
  C   C2247     1.0  0.58212  0.82746  0.13942  1.0000
  H   H3987     1.0  0.65602  0.79589  0.36048  1.0000
  H   H3988     1.0  0.70918  0.81516  0.00998  1.0000
  H   H3989     1.0  0.95344  0.89750  0.15827  1.0000
  H   H3990     1.0  0.54000  0.83710  0.19778  1.0000
  H   H3991     1.0  0.67492  0.85060  0.99712  1.0000
  C   C2248     1.0  0.87954  0.84476  0.98711  1.0000
  C   C2249     1.0  0.85873  0.79370  0.16376  1.0000
  H   H3992     1.0  0.57989  0.70403  0.45773  1.0000
  H   H3993     1.0  0.86528  0.84036  0.25750  1.0000
  Fe  Fe247     1.0  0.95252  0.92744  0.02061  1.0000
  C   C2250     1.0  0.91372  0.86621  0.17959  1.0000
  H   H3994     1.0  0.95240  0.92566  0.21116  1.0000
  H   H3995     1.0  0.72464  0.88282  0.36282  1.0000
  C   C2251     1.0  0.88570  0.85402  0.02135  1.0000
  H   H3996     1.0  0.90836  0.86543  0.21676  1.0000
  C   C2252     1.0  0.00968  0.73749  0.11979  1.0000
  H   H3997     1.0  0.55270  0.87861  0.99313  1.0000
  H   H3998     1.0  0.75778  0.76149  0.26213  1.0000
  C   C2253     1.0  0.55883  0.84275  0.31137  1.0000
  S   S491      1.0  0.78335  0.73125  0.29662  1.0000
  C   C2254     1.0  0.72631  0.89305  0.07284  1.0000
  C   C2255     1.0  0.69736  0.81337  0.35205  1.0000
  H   H3999     1.0  0.96077  0.72412  0.33887  1.0000
  H   H4000     1.0  0.74861  0.84875  0.34840  1.0000
  H   H4001     1.0  0.79645  0.80203  0.99996  1.0000
  C   C2256     1.0  0.89451  0.92944  0.14420  1.0000
  H   H4002     1.0  0.64929  0.92971  0.18540  1.0000
  H   H4003     1.0  0.64603  0.85256  0.16015  1.0000
  N   N126      1.0  0.52266  0.70962  0.09800  1.0000
  C   C2257     1.0  0.57647  0.84018  0.05866  1.0000
  H   H4004     1.0  0.65605  0.89024  0.07847  1.0000
  H   H4005     1.0  0.82801  0.75134  0.20403  1.0000
  H   H4006     1.0  0.84000  0.78625  0.36682  1.0000
  H   H4007     1.0  0.54008  0.71167  0.02739  1.0000
  H   H4008     1.0  0.57775  0.91293  0.36499  1.0000
  C   C2258     1.0  0.99542  0.86174  0.00550  1.0000
  C   C2259     1.0  0.94590  0.72087  0.37130  1.0000
  C   C2260     1.0  0.73444  0.89067  0.26274  1.0000
  Fe  Fe248     1.0  0.59612  0.80453  0.23931  1.0000
  C   C2261     1.0  0.52158  0.83447  0.19105  1.0000
  S   S492      1.0  0.56605  0.80788  0.01454  1.0000
  H   H4009     1.0  0.86116  0.75700  0.18685  1.0000
  Fe  Fe249     1.0  0.73926  0.69310  0.19833  1.0000
  C   C2262     1.0  0.63931  0.81329  0.04568  1.0000
  H   H4010     1.0  0.54097  0.81235  0.28905  1.0000
  H   H4011     1.0  0.53820  0.79879  0.35436  1.0000
  H   H4012     1.0  0.83728  0.71951  0.12137  1.0000
  C   C2263     1.0  0.66815  0.79449  0.38431  1.0000
  H   H4013     1.0  0.95484  0.79862  0.32207  1.0000
  H   H4014     1.0  0.86630  0.85934  0.17366  1.0000
  C   C2264     1.0  0.65642  0.88785  0.16886  1.0000
  H   H4015     1.0  0.75383  0.75009  0.00382  1.0000
  S   S493      1.0  0.77985  0.70724  0.20019  1.0000
  H   H4016     1.0  0.54383  0.87924  0.10632  1.0000
  C   C2265     1.0  0.55659  0.89775  0.99070  1.0000
  H   H4017     1.0  0.63943  0.88945  0.16096  1.0000
  H   H4018     1.0  0.52414  0.83341  0.15514  1.0000
  S   S494      1.0  0.85146  0.88008  0.27393  1.0000
  H   H4019     1.0  0.70847  0.81231  0.37768  1.0000
  C   C2266     1.0  0.58831  0.85335  0.43244  1.0000
  H   H4020     1.0  0.84621  0.80077  0.14700  1.0000
  C   C2267     1.0  0.77979  0.75505  0.31015  1.0000
  H   H4021     1.0  0.73294  0.79874  0.42580  1.0000
  H   H4022     1.0  0.99314  0.86995  0.03138  1.0000
  H   H4023     1.0  0.95291  0.84059  0.28081  1.0000
  H   H4024     1.0  0.90561  0.77793  0.11143  1.0000
  C   C2268     1.0  0.93129  0.83473  0.44040  1.0000
  H   H4025     1.0  0.56798  0.72217  0.12470  1.0000
  S   S495      1.0  0.78753  0.76815  0.15430  1.0000
  H   H4026     1.0  0.97142  0.86341  0.38937  1.0000
  H   H4027     1.0  0.71508  0.72926  0.07699  1.0000
  S   S496      1.0  0.68690  0.82160  0.22667  1.0000
  H   H4028     1.0  0.58511  0.90667  0.46810  1.0000
  H   H4029     1.0  0.65091  0.87693  0.21042  1.0000
  C   C2269     1.0  0.84510  0.72425  0.08248  1.0000
  C   C2270     1.0  0.69863  0.72167  0.06441  1.0000
  C   C2271     1.0  0.95093  0.85600  0.39401  1.0000
  C   C2272     1.0  0.60683  0.85978  0.46062  1.0000
  C   C2273     1.0  0.76667  0.76738  0.28694  1.0000
  C   C2274     1.0  0.60808  0.79575  0.43251  1.0000
  C   C2275     1.0  0.74507  0.86588  0.33189  1.0000
  H   H4030     1.0  0.87041  0.78899  0.29830  1.0000
  C   C2276     1.0  0.67301  0.88854  0.08649  1.0000
  S   S497      1.0  0.95321  0.70788  0.02476  1.0000
  H   H4031     1.0  0.71631  0.72142  0.99635  1.0000
  H   H4032     1.0  0.71038  0.86319  0.04963  1.0000
  H   H4033     1.0  0.86786  0.91294  0.43402  1.0000
  H   H4034     1.0  0.71107  0.91645  0.99622  1.0000
  C   C2277     1.0  0.90483  0.82525  0.44593  1.0000
  C   C2278     1.0  0.94402  0.86789  0.35353  1.0000
  S   S498      1.0  0.01011  0.88480  0.43813  1.0000
  C   C2279     1.0  0.61714  0.93779  0.47238  1.0000
  S   S499      1.0  0.99540  0.75075  0.07943  1.0000
  Fe  Fe250     1.0  0.79313  0.74195  0.12441  1.0000
  C   C2280     1.0  0.00358  0.82337  0.08928  1.0000
  H   H4035     1.0  0.74520  0.78973  0.18058  1.0000
  H   H4036     1.0  0.62711  0.82084  0.02854  1.0000
  C   C2281     1.0  0.87326  0.80833  0.29578  1.0000
  C   C2282     1.0  0.66366  0.87263  0.14495  1.0000
  H   H4037     1.0  0.53899  0.89456  0.27479  1.0000
  C   C2283     1.0  0.72996  0.86693  0.37658  1.0000
  C   C2284     1.0  0.55963  0.89325  0.39056  1.0000
  H   H4038     1.0  0.83997  0.69266  0.30615  1.0000
  H   H4039     1.0  0.65611  0.86168  0.36761  1.0000
  H   H4040     1.0  0.64413  0.80267  0.02660  1.0000
  S   S500      1.0  0.89548  0.71365  0.99780  1.0000
  S   S501      1.0  0.77738  0.82287  0.33234  1.0000
  H   H4041     1.0  0.71172  0.84721  0.40182  1.0000
  H   H4042     1.0  0.62790  0.79868  0.08654  1.0000
  H   H4043     1.0  0.88320  0.93159  0.17332  1.0000
  C   C2285     1.0  0.52264  0.72927  0.11608  1.0000
  H   H4044     1.0  0.51742  0.87911  0.41478  1.0000
  C   C2286     1.0  0.94398  0.92638  0.38820  1.0000
  C   C2287     1.0  0.59946  0.87665  0.37763  1.0000
  C   C2288     1.0  0.70802  0.73306  0.00611  1.0000
  H   H4045     1.0  0.98106  0.76975  0.16205  1.0000
  H   H4046     1.0  0.70213  0.76749  0.46590  1.0000
  H   H4047     1.0  0.74928  0.77253  0.02197  1.0000
  S   S502      1.0  0.61821  0.78724  0.21167  1.0000
  C   C2289     1.0  0.71489  0.77786  0.98632  1.0000
  C   C2290     1.0  0.86090  0.71411  0.06904  1.0000
  H   H4048     1.0  0.89468  0.82245  0.28246  1.0000
  H   H4049     1.0  0.57079  0.85817  0.27114  1.0000
  H   H4050     1.0  0.66393  0.77337  0.40339  1.0000
  S   S503      1.0  0.51282  0.81804  0.07536  1.0000
  H   H4051     1.0  0.72966  0.81088  0.22395  1.0000
  H   H4052     1.0  0.94852  0.71050  0.40685  1.0000
  C   C2291     1.0  0.69511  0.89715  0.00214  1.0000
  C   C2292     1.0  0.51310  0.93909  0.10318  1.0000
  H   H4053     1.0  0.73813  0.90986  0.03367  1.0000
  H   H4054     1.0  0.67030  0.80303  0.15820  1.0000
  H   H4055     1.0  0.86620  0.92433  0.10836  1.0000
  H   H4056     1.0  0.67341  0.90835  0.15408  1.0000
  S   S504      1.0  0.72966  0.71572  0.23332  1.0000
  C   C2293     1.0  0.96170  0.78573  0.40919  1.0000
  S   S505      1.0  0.80948  0.88076  0.35502  1.0000
  C   C2294     1.0  0.62380  0.82218  0.39286  1.0000
  H   H4057     1.0  0.98261  0.75546  0.38854  1.0000
  H   H4058     1.0  0.86494  0.70118  0.09773  1.0000
  C   C2295     1.0  0.87238  0.72190  0.01804  1.0000
  H   H4059     1.0  0.56928  0.81409  0.30432  1.0000
  H   H4060     1.0  0.54830  0.78737  0.47733  1.0000
  Fe  Fe251     1.0  0.77121  0.73195  0.23071  1.0000
  H   H4061     1.0  0.72037  0.90119  0.09641  1.0000
  H   H4062     1.0  0.84474  0.70377  0.23987  1.0000
  H   H4063     1.0  0.73562  0.85220  0.23544  1.0000
  H   H4064     1.0  0.51447  0.92410  0.09456  1.0000
  H   H4065     1.0  0.86409  0.82424  0.00103  1.0000
  C   C2296     1.0  0.52320  0.69306  0.34738  1.0000
  Fe  Fe252     1.0  0.87062  0.87328  0.33123  1.0000
  H   H4066     1.0  0.73462  0.87292  0.44075  1.0000
  C   C2297     1.0  0.72902  0.79289  0.17542  1.0000
  H   H4067     1.0  0.56885  0.84875  0.45483  1.0000
  H   H4068     1.0  0.54200  0.70298  0.18485  1.0000
  C   C2298     1.0  0.72667  0.89411  0.21542  1.0000
  H   H4069     1.0  0.80814  0.88384  0.17243  1.0000
  H   H4070     1.0  0.62013  0.82807  0.35828  1.0000
  N   N127      1.0  0.73221  0.86384  0.29382  1.0000
  Fe  Fe253     1.0  0.91220  0.69933  0.05506  1.0000
  C   C2299     1.0  0.57639  0.79845  0.10135  1.0000
  H   H4071     1.0  0.96484  0.91942  0.43808  1.0000
  H   H4072     1.0  0.75520  0.79726  0.27715  1.0000
  H   H4073     1.0  0.77662  0.86791  0.16708  1.0000
  H   H4074     1.0  0.91156  0.92157  0.48000  1.0000
  C   C2300     1.0  0.51839  0.88818  0.27747  1.0000
  H   H4075     1.0  0.90676  0.82559  0.20270  1.0000
  Fe  Fe254     1.0  0.68857  0.90017  0.39319  1.0000
  H   H4076     1.0  0.57475  0.85411  0.02712  1.0000
  C   C2301     1.0  0.89792  0.83770  0.40614  1.0000
  H   H4077     1.0  0.98633  0.80981  0.28102  1.0000
  H   H4078     1.0  0.74495  0.83711  0.28436  1.0000
  N   N128      1.0  0.98069  0.79218  0.36075  1.0000
  H   H4079     1.0  0.61785  0.87805  0.35825  1.0000
  H   H4080     1.0  0.94315  0.79609  0.03505  1.0000
  H   H4081     1.0  0.79938  0.78969  0.37411  1.0000
  H   H4082     1.0  0.53697  0.90002  0.12596  1.0000
  H   H4083     1.0  0.52648  0.74213  0.19545  1.0000
  N   N129      1.0  0.86916  0.82341  0.20785  1.0000
  C   C2302     1.0  0.69880  0.80810  0.19422  1.0000
  C   C2303     1.0  0.68666  0.80031  0.16304  1.0000
  Fe  Fe255     1.0  0.52865  0.80852  0.01788  1.0000
  H   H4084     1.0  0.53713  0.90929  0.35421  1.0000
  C   C2304     1.0  0.85667  0.91704  0.45802  1.0000
  C   C2305     1.0  0.64845  0.83413  0.44381  1.0000
  H   H4085     1.0  0.97531  0.93022  0.33242  1.0000
  S   S506      1.0  0.58707  0.83430  0.18877  1.0000
  H   H4086     1.0  0.00644  0.85061  0.28984  1.0000
  Fe  Fe256     1.0  0.59558  0.77852  0.34571  1.0000
  H   H4087     1.0  0.93327  0.74337  0.39710  1.0000
  H   H4088     1.0  0.90442  0.84149  0.14357  1.0000
  C   C2306     1.0  0.56816  0.89418  0.14534  1.0000
  C   C2307     1.0  0.89871  0.83813  0.18303  1.0000
  C   C2308     1.0  0.85818  0.79548  0.21314  1.0000
  C   C2309     1.0  0.63046  0.92585  0.20894  1.0000
  H   H4089     1.0  0.79342  0.92595  0.12108  1.0000
  Fe  Fe257     1.0  0.84875  0.91078  0.29315  1.0000
  C   C2310     1.0  0.54046  0.72539  0.04296  1.0000
  Fe  Fe258     1.0  0.95887  0.71620  0.08842  1.0000
  H   H4090     1.0  0.88959  0.80868  0.48142  1.0000
  H   H4091     1.0  0.78474  0.93918  0.37811  1.0000
  H   H4092     1.0  0.52857  0.90396  0.19707  1.0000
  H   H4093     1.0  0.95046  0.74350  0.45965  1.0000
  H   H4094     1.0  0.96746  0.80408  0.41362  1.0000
  C   C2311     1.0  0.55626  0.87148  0.37421  1.0000
  C   C2312     1.0  0.94836  0.70974  0.23987  1.0000
  C   C2313     1.0  0.59021  0.91708  0.09515  1.0000
  H   H4095     1.0  0.91575  0.77017  0.99568  1.0000
  H   H4096     1.0  0.98214  0.87252  0.25734  1.0000
  H   H4097     1.0  0.87903  0.80601  0.13528  1.0000
  H   H4098     1.0  0.54298  0.85141  0.40848  1.0000
  H   H4099     1.0  0.61756  0.91752  0.42820  1.0000
  H   H4100     1.0  0.83416  0.93251  0.07279  1.0000
  H   H4101     1.0  0.54473  0.87249  0.34926  1.0000
  H   H4102     1.0  0.61629  0.88389  0.25687  1.0000
  C   C2314     1.0  0.72030  0.80489  0.19975  1.0000
  H   H4103     1.0  0.60427  0.87280  0.47553  1.0000
  H   H4104     1.0  0.86909  0.78575  0.22972  1.0000
  H   H4105     1.0  0.54035  0.84303  0.32261  1.0000
  H   H4106     1.0  0.58104  0.89697  0.27577  1.0000
  H   H4107     1.0  0.53576  0.86233  0.24039  1.0000
  C   C2315     1.0  0.78690  0.86888  0.19411  1.0000
  H   H4108     1.0  0.63593  0.90632  0.27708  1.0000
  S   S507      1.0  0.75352  0.72545  0.11904  1.0000
  H   H4109     1.0  0.88955  0.90807  0.16016  1.0000
  H   H4110     1.0  0.69264  0.84789  0.34345  1.0000
  H   H4111     1.0  0.71979  0.92708  0.20947  1.0000
  H   H4112     1.0  0.68865  0.90953  0.07353  1.0000
  C   C2316     1.0  0.80853  0.94025  0.27078  1.0000
  C   C2317     1.0  0.62006  0.90184  0.26153  1.0000
  H   H4113     1.0  0.53200  0.72064  0.42858  1.0000
  H   H4114     1.0  0.87481  0.84062  0.06130  1.0000
  H   H4115     1.0  0.92597  0.70770  0.37367  1.0000
  C   C2318     1.0  0.86097  0.82062  0.25979  1.0000
  H   H4116     1.0  0.90005  0.75388  0.08862  1.0000
  C   C2319     1.0  0.74625  0.87268  0.40879  1.0000
  H   H4117     1.0  0.56080  0.88619  0.42869  1.0000
  H   H4118     1.0  0.58513  0.93280  0.07740  1.0000
  H   H4119     1.0  0.73856  0.89098  0.18910  1.0000
  H   H4120     1.0  0.89793  0.93334  0.07056  1.0000
  H   H4121     1.0  0.82123  0.82865  0.22627  1.0000
  H   H4122     1.0  0.79834  0.82987  0.16553  1.0000
  H   H4123     1.0  0.68450  0.72766  0.07667  1.0000
  H   H4124     1.0  0.64293  0.85507  0.05870  1.0000
  N   N130      1.0  0.58134  0.87334  0.34848  1.0000
  H   H4125     1.0  0.72197  0.89454  0.28651  1.0000
  H   H4126     1.0  0.99014  0.77188  0.32265  1.0000
  H   H4127     1.0  0.76448  0.89265  0.38601  1.0000
  C   C2320     1.0  0.51790  0.86092  0.23224  1.0000
  H   H4128     1.0  0.75251  0.93767  0.17100  1.0000
  H   H4129     1.0  0.72920  0.76777  0.42886  1.0000
  H   H4130     1.0  0.68971  0.72792  0.99766  1.0000
  C   C2321     1.0  0.57434  0.81647  0.06037  1.0000
  C   C2322     1.0  0.92035  0.79110  0.98563  1.0000
  C   C2323     1.0  0.58062  0.84580  0.09794  1.0000
  H   H4131     1.0  0.86173  0.82106  0.34860  1.0000
  H   H4132     1.0  0.60601  0.89599  0.37848  1.0000
  H   H4133     1.0  0.60876  0.92641  0.10144  1.0000
  C   C2324     1.0  0.54121  0.92828  0.99320  1.0000
  H   H4134     1.0  0.58621  0.83489  0.43149  1.0000
  H   H4135     1.0  0.00575  0.72070  0.01827  1.0000
  H   H4136     1.0  0.70558  0.87973  0.22639  1.0000
  H   H4137     1.0  0.89539  0.89134  0.44750  1.0000
  H   H4138     1.0  0.94884  0.86411  0.18572  1.0000
  S   S508      1.0  0.56682  0.76549  0.30924  1.0000
  C   C2325     1.0  0.53622  0.90349  0.99635  1.0000
  H   H4139     1.0  0.56784  0.90240  0.17191  1.0000
  H   H4140     1.0  0.86671  0.84388  0.13577  1.0000
  H   H4141     1.0  0.99846  0.70202  0.11133  1.0000
  H   H4142     1.0  0.70259  0.80554  0.32700  1.0000
  H   H4143     1.0  0.82626  0.83647  0.11875  1.0000
  C   C2326     1.0  0.97610  0.80871  0.31631  1.0000
  H   H4144     1.0  0.90114  0.86392  0.46247  1.0000
  H   H4145     1.0  0.99728  0.80789  0.07658  1.0000
  S   S509      1.0  0.00930  0.82975  0.44939  1.0000
  S   S510      1.0  0.90915  0.87437  0.30922  1.0000
  H   H4146     1.0  0.83751  0.78198  0.24065  1.0000
  H   H4147     1.0  0.75475  0.90746  0.24978  1.0000
  H   H4148     1.0  0.75555  0.78047  0.47754  1.0000
  H   H4149     1.0  0.60087  0.91640  0.29872  1.0000
  H   H4150     1.0  0.53760  0.91084  0.41185  1.0000
  H   H4151     1.0  0.72502  0.92421  0.15266  1.0000
  H   H4152     1.0  0.87743  0.83071  0.41145  1.0000
  C   C2327     1.0  0.79025  0.78341  0.34991  1.0000
  H   H4153     1.0  0.59245  0.84663  0.33367  1.0000
  H   H4154     1.0  0.92655  0.81532  0.02503  1.0000
  H   H4155     1.0  0.56838  0.93477  0.19945  1.0000
  C   C2328     1.0  0.57971  0.80366  0.14130  1.0000
  S   S511      1.0  0.83244  0.84020  0.39594  1.0000
  C   C2329     1.0  0.54112  0.88313  0.13904  1.0000
  C   C2330     1.0  0.75167  0.76832  0.98968  1.0000
  H   H4156     1.0  0.57304  0.75779  0.04673  1.0000
  H   H4157     1.0  0.60350  0.93861  0.40986  1.0000
  H   H4158     1.0  0.82903  0.86129  0.13871  1.0000
  H   H4159     1.0  0.94410  0.70624  0.20828  1.0000
  H   H4160     1.0  0.68650  0.78319  0.11327  1.0000
  H   H4161     1.0  0.66526  0.90969  0.99710  1.0000
  S   S512      1.0  0.91909  0.71173  0.11402  1.0000
  C   C2331     1.0  0.57443  0.84767  0.34585  1.0000
  H   H4162     1.0  0.92876  0.91480  0.37660  1.0000
  C   C2332     1.0  0.82849  0.82615  0.19364  1.0000
  H   H4163     1.0  0.51403  0.90395  0.27825  1.0000
  C   C2333     1.0  0.57301  0.69448  0.43449  1.0000
  H   H4164     1.0  0.67697  0.82847  0.05254  1.0000
  H   H4165     1.0  0.78479  0.84886  0.21644  1.0000
  H   H4166     1.0  0.66261  0.79975  0.41368  1.0000
  H   H4167     1.0  0.83929  0.80782  0.27883  1.0000
  C   C2334     1.0  0.60497  0.92432  0.44283  1.0000
  C   C2335     1.0  0.86082  0.80267  0.34930  1.0000
  H   H4168     1.0  0.98889  0.77571  0.21246  1.0000
  C   C2336     1.0  0.70219  0.86985  0.07416  1.0000
  H   H4169     1.0  0.57338  0.87830  0.16010  1.0000
  S   S513      1.0  0.61775  0.75949  0.32618  1.0000
  H   H4170     1.0  0.73400  0.86773  0.13301  1.0000
  C   C2337     1.0  0.94622  0.90701  0.43493  1.0000
  H   H4171     1.0  0.94932  0.89241  0.42549  1.0000
  C   C2338     1.0  0.72386  0.77677  0.45128  1.0000
  H   H4172     1.0  0.94502  0.75697  0.32968  1.0000
  C   C2339     1.0  0.89878  0.87720  0.47695  1.0000
  H   H4173     1.0  0.75056  0.87449  0.07052  1.0000
  C   C2340     1.0  0.69592  0.78923  0.13740  1.0000
  N   N131      1.0  0.68228  0.87664  0.05758  1.0000
  Fe  Fe259     1.0  0.74677  0.74940  0.15363  1.0000
  H   H4174     1.0  0.58241  0.86418  0.09625  1.0000
  H   H4175     1.0  0.76975  0.93338  0.30255  1.0000
  H   H4176     1.0  0.95924  0.88441  0.31770  1.0000
  H   H4177     1.0  0.95024  0.88017  0.12142  1.0000
  S   S514      1.0  0.62281  0.81886  0.27798  1.0000
  S   S515      1.0  0.67376  0.85766  0.45119  1.0000
  H   H4178     1.0  0.80098  0.75282  0.36083  1.0000
  C   C2341     1.0  0.98464  0.83806  0.30521  1.0000
  S   S516      1.0  0.00364  0.72079  0.44732  1.0000
  H   H4179     1.0  0.54199  0.74097  0.11708  1.0000
  H   H4180     1.0  0.81845  0.80435  0.20564  1.0000
  C   C2342     1.0  0.82011  0.83938  0.15149  1.0000
  H   H4181     1.0  0.96678  0.78532  0.18805  1.0000
  C   C2343     1.0  0.74597  0.85641  0.26094  1.0000
  C   C2344     1.0  0.91750  0.85898  0.35979  1.0000
  C   C2345     1.0  0.53648  0.89835  0.39297  1.0000
  H   H4182     1.0  0.71040  0.77292  0.02672  1.0000
  H   H4183     1.0  0.57489  0.78020  0.10281  1.0000
  C   C2346     1.0  0.55131  0.81525  0.31521  1.0000
  H   H4184     1.0  0.93948  0.72152  0.24641  1.0000
  C   C2347     1.0  0.59488  0.89755  0.29628  1.0000
  C   C2348     1.0  0.00823  0.81166  0.13920  1.0000
  C   C2349     1.0  0.88754  0.93760  0.09700  1.0000
  H   H4185     1.0  0.62760  0.86974  0.43588  1.0000
  H   H4186     1.0  0.97809  0.76796  0.46335  1.0000
  H   H4187     1.0  0.84658  0.76335  0.13960  1.0000
  C   C2350     1.0  0.84803  0.76454  0.17439  1.0000
  C   C2351     1.0  0.56998  0.74408  0.03031  1.0000
  C   C2352     1.0  0.66464  0.83678  0.03832  1.0000
  N   N132      1.0  0.51836  0.85827  0.18514  1.0000
  C   C2353     1.0  0.61235  0.78871  0.47815  1.0000
  C   C2354     1.0  0.73129  0.92252  0.18546  1.0000
  C   C2355     1.0  0.85173  0.74880  0.99440  1.0000
  S   S517      1.0  0.91269  0.89134  0.04816  1.0000
  C   C2356     1.0  0.00630  0.71192  0.13222  1.0000
  C   C2357     1.0  0.74429  0.88326  0.09250  1.0000
  C   C2358     1.0  0.70345  0.84261  0.31980  1.0000
  H   H4188     1.0  0.98597  0.82541  0.09923  1.0000
  S   S518      1.0  0.69122  0.91839  0.31237  1.0000
  S   S519      1.0  0.58342  0.77137  0.42501  1.0000
  S   S520      1.0  0.98806  0.92284  0.01262  1.0000
  S   S521      1.0  0.72938  0.93119  0.37713  1.0000
  C   C2359     1.0  0.64399  0.84137  0.39843  1.0000
  H   H4189     1.0  0.88364  0.77342  0.07729  1.0000
  H   H4190     1.0  0.79318  0.90948  0.99525  1.0000
  H   H4191     1.0  0.94166  0.77978  0.40786  1.0000
  S   S522      1.0  0.82855  0.76145  0.05614  1.0000
  C   C2360     1.0  0.85886  0.83926  0.17560  1.0000
  C   C2361     1.0  0.94337  0.87756  0.15997  1.0000
  C   C2362     1.0  0.97680  0.76684  0.35928  1.0000
  Fe  Fe260     1.0  0.59086  0.74906  0.28488  1.0000
  H   H4192     1.0  0.61614  0.92177  0.18981  1.0000
  H   H4193     1.0  0.56221  0.82987  0.38421  1.0000
  C   C2363     1.0  0.97475  0.85123  0.26599  1.0000
  C   C2364     1.0  0.77559  0.87711  0.22947  1.0000
  C   C2365     1.0  0.77760  0.79609  0.32579  1.0000
  H   H4194     1.0  0.80687  0.92521  0.30522  1.0000
  H   H4195     1.0  0.95463  0.77197  0.99946  1.0000
  H   H4196     1.0  0.64995  0.83608  0.10794  1.0000
  S   S523      1.0  0.66938  0.92127  0.41393  1.0000
  H   H4197     1.0  0.97697  0.84226  0.02062  1.0000
  H   H4198     1.0  0.69392  0.84199  0.29185  1.0000
  H   H4199     1.0  0.52541  0.93268  0.99767  1.0000
  H   H4200     1.0  0.76211  0.90044  0.08857  1.0000
  C   C2366     1.0  0.92504  0.79594  0.03046  1.0000
  H   H4201     1.0  0.75148  0.85681  0.42452  1.0000
  S   S524      1.0  0.87062  0.90627  0.34589  1.0000
  H   H4202     1.0  0.77894  0.89750  0.20620  1.0000
  H   H4203     1.0  0.67905  0.86957  0.15764  1.0000
  Fe  Fe261     1.0  0.83123  0.87381  0.40660  1.0000
  S   S525      1.0  0.57292  0.70828  0.28952  1.0000
  C   C2367     1.0  0.95889  0.76328  0.45887  1.0000
  H   H4204     1.0  0.90188  0.79128  0.98406  1.0000
  H   H4205     1.0  0.53321  0.73804  0.02029  1.0000
  H   H4206     1.0  0.57971  0.78886  0.17404  1.0000
  C   C2368     1.0  0.90215  0.77386  0.08001  1.0000
  H   H4207     1.0  0.76496  0.88417  0.31286  1.0000
  C   C2369     1.0  0.94878  0.74774  0.36440  1.0000
  H   H4208     1.0  0.69259  0.85233  0.11291  1.0000
  H   H4209     1.0  0.90958  0.88079  0.15317  1.0000
  H   H4210     1.0  0.97688  0.83862  0.33997  1.0000
  H   H4211     1.0  0.98202  0.85114  0.23027  1.0000
  C   C2370     1.0  0.51455  0.88464  0.23192  1.0000
  H   H4212     1.0  0.78695  0.87834  0.25472  1.0000
  Fe  Fe262     1.0  0.81344  0.84974  0.33953  1.0000
  C   C2371     1.0  0.76524  0.78764  0.29539  1.0000
  H   H4213     1.0  0.85076  0.85039  0.47640  1.0000
  C   C2372     1.0  0.79107  0.76259  0.34254  1.0000
  Fe  Fe263     1.0  0.64297  0.79908  0.25524  1.0000
  S   S526      1.0  0.72677  0.76971  0.11426  1.0000
  H   H4214     1.0  0.00970  0.92522  0.21854  1.0000
  H   H4215     1.0  0.56289  0.70403  0.41410  1.0000
  H   H4216     1.0  0.59045  0.69843  0.40623  1.0000
  H   H4217     1.0  0.83807  0.93819  0.12560  1.0000
  C   C2373     1.0  0.68481  0.69089  0.09241  1.0000
  S   S527      1.0  0.01079  0.93045  0.12124  1.0000
  H   H4218     1.0  0.80201  0.77780  0.98750  1.0000
  H   H4219     1.0  0.01116  0.82501  0.15654  1.0000
  H   H4220     1.0  0.57607  0.69075  0.18919  1.0000
  H   H4221     1.0  0.93892  0.94026  0.39646  1.0000
  H   H4222     1.0  0.52454  0.74248  0.47789  1.0000
  S   S528      1.0  0.81371  0.86901  0.48249  1.0000
  C   C2374     1.0  0.53066  0.69064  0.12940  1.0000
  H   H4223     1.0  0.77756  0.69073  0.99547  1.0000
  C   C2375     1.0  0.51169  0.71354  0.45215  1.0000
  H   H4224     1.0  0.01097  0.79594  0.39245  1.0000
  C   C2376     1.0  0.86927  0.94041  0.46235  1.0000
  Fe  Fe264     1.0  0.98179  0.84043  0.48263  1.0000
