data_image0
_chemical_formula_structural       FeSCFeSHFeSFeHS2CSC6H5NCNC4H6C2H2SCH2CH4SCH2CH3C2H3C2H3CH2CH2CH9CSCH7CH2CHCHCH4CH5CHNH2CH3CH2CH3CH4SFeSHFeSHFeSFeCS2HSC6H5C2HC2H6CH4CH3CNHCNH2C2H5CH3CHSCH2C2HC2H2C2HC3H2CH3CH3CH3C3H2C2H9CH3CH2CH3CH3CHCH5C2HNSH2SH2CH3CFeSHFeSCFeSFeHS2CSC6H2CH2CHC2H2CH4CNCHNC10HCH16SH4CH4CH3CH2CH6CSCH3CHCH4C2H3SHNC2HCH2C2H3CH6C2FeSHFeS2FeSFeHS2HFeC6H5CHC3H5C2H3CHNHCH5SH4CH3CH2CSH2CHC2H3CHCH5CHCHCH4CHCH4CH2CSCHC4H2CSH5NH4C2Fe2SHFeS2FeHFeHS2H2FeS2FeSHSHCHC2H6C6HC4HSH3C2HC2H7C2HCH3CH4CH4NHC3SHCH10CHCH2NHCH2C2H2CHC2H4SCHC2HC3HCHC3H6CH2CH3CHCSFeHFeH2FeSHFeS2FeSFeS3CHFeS2FeCHSH11C7H5CH2NCH3C2HCH2CH4C3HCH2CH2CH6SC2HC3H2CHCHNC9H16C2H5CHFeH2CHCH6C4SCHC2FeCH8SH3SH2CH10CN2CH4FeSHFeS2FeSFeS3HCFeS2FeH2SHCHCH7C6H2C3FeHCH2NHCHC2H2CHSC2SCH4CFeHC2H3C2HCH3CH2CNC5HC2HCH16CH2CH14CHCH5SH2CH3C2H2CH3SHNFeSCFeS2FeCFeCS2C2FeS2FeSHSH3C2H6C6H5C3H2CSHCHC2H2C3HSC2H3SH2C3H4C6HCH7CNH6NH3CH3CH4NH7CH2C7H9CH11CH3CHC2H3CH2CFeSHFeS2FeSFeCS2H5CHC3H2CH2C7H6C3HNH3CH3CHCH5NH2CH2CH2C3H2SC5H2CH4CHCHSC2H4C2H2C2H3C2H5CHCH7CHCH4C3HC2H3CH2CH4SH2CH3FeSHFeS2FeSFeHS2H8C4NHC8HC2HCH2CH6CH2CH2CHCHCH2C2H4CH3CSHCH2CHCHC2HSHC3HCH3CHCHCH3C2HCH4CH2C3H6C2H2CHNH9SCH2FeSCFeS2FeSFeCS2H6CHC3HCHSHC5H5CH2CH4C2HCH6CHCH5C2HCH4CSH3C2HCH2CHCH2CH4CH7CHNC7HC2H2CH4C2H5CSH2CHCHC3H3C2FeSHFeS2FeSFeS3CH3C2SHC2H5C7H5C4HCH4CH3CH3C2H19SH2C2H2C2H2CHC2HCH4CH2CH4CNC4NC6NCHCH9C2HCHCH5C3H5CHNSH3CH2CH3CHCH2C5
_chemical_formula_sum              "Fe64 S128 C576 H1024 N32"
_cell_length_a       34.4614
_cell_length_b       31.3336
_cell_length_c       31.3808
_cell_angle_alpha    90.037
_cell_angle_beta     89.9359
_cell_angle_gamma    89.9213

_space_group_name_H-M_alt    "P 1"
_space_group_IT_number       1

loop_
  _space_group_symop_operation_xyz
  'x, y, z'

loop_
  _atom_site_type_symbol
  _atom_site_label
  _atom_site_symmetry_multiplicity
  _atom_site_fract_x
  _atom_site_fract_y
  _atom_site_fract_z
  _atom_site_occupancy
  Fe  Fe1       1.0  0.07062  0.13496  0.12968  1.0000
  S   S1        1.0  0.06242  0.17429  0.07074  1.0000
  C   C1        1.0  0.26607  0.50237  0.19502  1.0000
  Fe  Fe2       1.0  0.12526  0.07254  0.08355  1.0000
  S   S2        1.0  0.12169  0.10922  0.02243  1.0000
  H   H1        1.0  0.04053  0.31364  0.05656  1.0000
  Fe  Fe3       1.0  0.12724  0.16767  0.06358  1.0000
  S   S3        1.0  0.16347  0.22481  0.04282  1.0000
  Fe  Fe4       1.0  0.05783  0.11140  0.03560  1.0000
  H   H2        1.0  0.12116  0.38968  0.24578  1.0000
  S   S4        1.0  0.13593  0.13069  0.12414  1.0000
  S   S5        1.0  0.06091  0.07250  0.09532  1.0000
  C   C2        1.0  0.29925  0.14411  0.06353  1.0000
  S   S6        1.0  0.04233  0.15124  0.19346  1.0000
  C   C3        1.0  0.20471  0.24078  0.07259  1.0000
  C   C4        1.0  0.22801  0.27448  0.05775  1.0000
  C   C5        1.0  0.25999  0.28904  0.08174  1.0000
  C   C6        1.0  0.26862  0.27015  0.12099  1.0000
  C   C7        1.0  0.24559  0.23620  0.13552  1.0000
  C   C8        1.0  0.21390  0.22151  0.11146  1.0000
  H   H3        1.0  0.22118  0.28953  0.02765  1.0000
  H   H4        1.0  0.27770  0.31503  0.07009  1.0000
  H   H5        1.0  0.25204  0.22136  0.16583  1.0000
  H   H6        1.0  0.19624  0.19571  0.12340  1.0000
  H   H7        1.0  0.12162  0.35970  0.15669  1.0000
  N   N1        1.0  0.17956  0.36432  0.18318  1.0000
  C   C9        1.0  0.26421  0.33234  0.26012  1.0000
  N   N2        1.0  0.33722  0.14040  0.08746  1.0000
  C   C10       1.0  0.08016  0.38549  0.04544  1.0000
  C   C11       1.0  0.23152  0.11644  0.04741  1.0000
  C   C12       1.0  0.24175  0.36130  0.22965  1.0000
  C   C13       1.0  0.05397  0.26151  0.98818  1.0000
  H   H8        1.0  0.08881  0.36724  0.07422  1.0000
  H   H9        1.0  0.34193  0.08043  0.05278  1.0000
  H   H10       1.0  0.27420  0.30310  0.24329  1.0000
  H   H11       1.0  0.16251  0.30023  0.12073  1.0000
  H   H12       1.0  0.09236  0.26969  0.17322  1.0000
  H   H13       1.0  0.16455  0.27377  0.17145  1.0000
  C   C14       1.0  0.16907  0.40693  0.20254  1.0000
  C   C15       1.0  0.10822  0.27562  0.14294  1.0000
  H   H14       1.0  0.19984  0.48556  0.11623  1.0000
  H   H15       1.0  0.29006  0.34951  0.27238  1.0000
  S   S7        1.0  0.30756  0.28742  0.15338  1.0000
  C   C16       1.0  0.14994  0.40544  0.24734  1.0000
  H   H16       1.0  0.12247  0.02331  0.24990  1.0000
  H   H17       1.0  0.21835  0.37064  0.05488  1.0000
  C   C17       1.0  0.22057  0.02586  0.12261  1.0000
  H   H18       1.0  0.20468  0.05228  0.13641  1.0000
  H   H19       1.0  0.27209  0.03663  0.16019  1.0000
  H   H20       1.0  0.30443  0.14054  0.02861  1.0000
  H   H21       1.0  0.05864  0.49672  0.38145  1.0000
  S   S8        1.0  0.33677  0.40929  0.11351  1.0000
  C   C18       1.0  0.32419  0.42612  0.43250  1.0000
  H   H22       1.0  0.22762  0.42346  0.07571  1.0000
  H   H23       1.0  0.31539  0.44674  0.40538  1.0000
  C   C19       1.0  0.01325  0.46164  0.47742  1.0000
  H   H24       1.0  0.17166  0.46728  0.26847  1.0000
  H   H25       1.0  0.09304  0.33599  0.00080  1.0000
  H   H26       1.0  0.10227  0.50769  0.35394  1.0000
  C   C20       1.0  0.03300  0.32717  0.02473  1.0000
  C   C21       1.0  0.25068  0.48819  0.15631  1.0000
  H   H27       1.0  0.06778  0.25318  0.01920  1.0000
  H   H28       1.0  0.01938  0.19902  0.43664  1.0000
  H   H29       1.0  0.14063  0.49655  0.42175  1.0000
  C   C22       1.0  0.26706  0.11181  0.07616  1.0000
  C   C23       1.0  0.14351  0.45040  0.26495  1.0000
  H   H30       1.0  0.18789  0.32648  0.24033  1.0000
  H   H31       1.0  0.01589  0.41429  0.13356  1.0000
  H   H32       1.0  0.12442  0.46905  0.24337  1.0000
  C   C24       1.0  0.17822  0.39083  0.10479  1.0000
  H   H33       1.0  0.21554  0.30918  0.19617  1.0000
  H   H34       1.0  0.33786  0.07430  0.10876  1.0000
  C   C25       1.0  0.21173  0.49701  0.14594  1.0000
  H   H35       1.0  0.09027  0.29615  0.12189  1.0000
  H   H36       1.0  0.14563  0.02805  0.19856  1.0000
  C   C26       1.0  0.20183  0.37221  0.14252  1.0000
  H   H37       1.0  0.16326  0.42081  0.11384  1.0000
  H   H38       1.0  0.18714  0.41450  0.04052  1.0000
  H   H39       1.0  0.20870  0.09362  0.05759  1.0000
  H   H40       1.0  0.25731  0.11728  0.10943  1.0000
  H   H41       1.0  0.30087  0.40261  0.43926  1.0000
  H   H42       1.0  0.21586  0.34235  0.13119  1.0000
  H   H43       1.0  0.23441  0.39085  0.24736  1.0000
  H   H44       1.0  0.22630  0.39459  0.14851  1.0000
  H   H45       1.0  0.12776  0.33236  0.20548  1.0000
  C   C27       1.0  0.14754  0.29639  0.15169  1.0000
  S   S9        1.0  0.31476  0.49187  0.20951  1.0000
  C   C28       1.0  0.20455  0.40041  0.06675  1.0000
  H   H46       1.0  0.32767  0.30503  0.33621  1.0000
  H   H47       1.0  0.02163  0.22430  0.13990  1.0000
  H   H48       1.0  0.16824  0.38803  0.27057  1.0000
  H   H49       1.0  0.11273  0.24445  0.12674  1.0000
  H   H50       1.0  0.19500  0.42802  0.20429  1.0000
  H   H51       1.0  0.26149  0.36980  0.20301  1.0000
  H   H52       1.0  0.30975  0.12823  0.14830  1.0000
  C   C29       1.0  0.20492  0.33846  0.21267  1.0000
  H   H53       1.0  0.24581  0.32310  0.28768  1.0000
  H   H54       1.0  0.26872  0.47036  0.13440  1.0000
  C   C30       1.0  0.12189  0.01196  0.21637  1.0000
  H   H55       1.0  0.27728  0.07839  0.07314  1.0000
  C   C31       1.0  0.14264  0.33981  0.17492  1.0000
  H   H56       1.0  0.14841  0.42440  0.18163  1.0000
  C   C32       1.0  0.02159  0.46733  0.25954  1.0000
  H   H57       1.0  0.15606  0.36782  0.09375  1.0000
  H   H58       1.0  0.02863  0.19715  0.98790  1.0000
  H   H59       1.0  0.12940  0.44851  0.29672  1.0000
  H   H60       1.0  0.28611  0.17626  0.06800  1.0000
  C   C33       1.0  0.11535  0.50976  0.43937  1.0000
  H   H61       1.0  0.21940  0.14920  0.04948  1.0000
  H   H62       1.0  0.23919  0.10933  0.01376  1.0000
  H   H63       1.0  0.33592  0.35001  0.39101  1.0000
  H   H64       1.0  0.33167  0.15486  0.22191  1.0000
  H   H65       1.0  0.04975  0.45017  0.25746  1.0000
  C   C34       1.0  0.32959  0.15190  0.13341  1.0000
  H   H66       1.0  0.05629  0.40769  0.05397  1.0000
  N   N3        1.0  0.02035  0.29163  0.99531  1.0000
  H   H67       1.0  0.32795  0.44661  0.46111  1.0000
  H   H68       1.0  0.32735  0.22615  0.05329  1.0000
  C   C35       1.0  0.25861  0.01686  0.13613  1.0000
  H   H69       1.0  0.09531  0.48336  0.44784  1.0000
  H   H70       1.0  0.31377  0.18282  0.13548  1.0000
  H   H71       1.0  0.10533  0.40472  0.03451  1.0000
  C   C36       1.0  0.06736  0.35523  0.00989  1.0000
  H   H72       1.0  0.02481  0.47143  0.32763  1.0000
  H   H73       1.0  0.04504  0.26526  0.46084  1.0000
  C   C37       1.0  0.01953  0.49351  0.30065  1.0000
  H   H74       1.0  0.05820  0.37548  0.98269  1.0000
  H   H75       1.0  0.34459  0.20725  0.20194  1.0000
  H   H76       1.0  0.33194  0.24358  0.28850  1.0000
  C   C38       1.0  0.01738  0.19983  0.20374  1.0000
  H   H77       1.0  0.04178  0.01447  0.01524  1.0000
  H   H78       1.0  0.09360  0.02123  0.20209  1.0000
  H   H79       1.0  0.01851  0.48826  0.23118  1.0000
  H   H80       1.0  0.34414  0.08489  0.47307  1.0000
  S   S10       1.0  0.01518  0.09677  0.98185  1.0000
  Fe  Fe5       1.0  0.03842  0.14984  0.68607  1.0000
  S   S11       1.0  0.04007  0.18287  0.62279  1.0000
  H   H81       1.0  0.21731  0.12603  0.54822  1.0000
  Fe  Fe6       1.0  0.10322  0.08756  0.65962  1.0000
  S   S12       1.0  0.11011  0.11688  0.59437  1.0000
  H   H82       1.0  0.01910  0.38734  0.66649  1.0000
  Fe  Fe7       1.0  0.10522  0.17969  0.62948  1.0000
  S   S13       1.0  0.13629  0.24322  0.62031  1.0000
  Fe  Fe8       1.0  0.04455  0.11723  0.59350  1.0000
  C   C39       1.0  0.18372  0.07959  0.77342  1.0000
  S   S14       1.0  0.10312  0.15013  0.69492  1.0000
  S   S15       1.0  0.03810  0.08445  0.65642  1.0000
  H   H83       1.0  0.06286  0.02783  0.79517  1.0000
  S   S16       1.0  0.31198  0.27020  0.56374  1.0000
  C   C40       1.0  0.18612  0.24927  0.60781  1.0000
  C   C41       1.0  0.20336  0.28974  0.61171  1.0000
  C   C42       1.0  0.24228  0.29637  0.59965  1.0000
  C   C43       1.0  0.26407  0.26268  0.58278  1.0000
  C   C44       1.0  0.24703  0.22205  0.57952  1.0000
  C   C45       1.0  0.20834  0.21526  0.59241  1.0000
  H   H84       1.0  0.18648  0.31624  0.62374  1.0000
  H   H85       1.0  0.25504  0.32781  0.60227  1.0000
  H   H86       1.0  0.26370  0.19586  0.56650  1.0000
  H   H87       1.0  0.19526  0.18409  0.58944  1.0000
  H   H88       1.0  0.05990  0.40636  0.56139  1.0000
  C   C46       1.0  0.20594  0.04928  0.65914  1.0000
  C   C47       1.0  0.21742  0.46439  0.59071  1.0000
  H   H89       1.0  0.05847  0.33513  0.92633  1.0000
  C   C48       1.0  0.25683  0.45745  0.60003  1.0000
  C   C49       1.0  0.27549  0.09981  0.54318  1.0000
  H   H90       1.0  0.19350  0.07895  0.64798  1.0000
  H   H91       1.0  0.26449  0.06647  0.64228  1.0000
  H   H92       1.0  0.27073  0.42799  0.59042  1.0000
  H   H93       1.0  0.20130  0.44014  0.57384  1.0000
  H   H94       1.0  0.10905  0.42326  0.50645  1.0000
  H   H95       1.0  0.08807  0.22904  0.51389  1.0000
  C   C50       1.0  0.27793  0.48826  0.62235  1.0000
  H   H96       1.0  0.32493  0.05759  0.60314  1.0000
  H   H97       1.0  0.05615  0.12195  0.81189  1.0000
  H   H98       1.0  0.10870  0.36596  0.49818  1.0000
  H   H99       1.0  0.31937  0.24625  0.76200  1.0000
  C   C51       1.0  0.15833  0.04994  0.80028  1.0000
  H   H100      1.0  0.33458  0.31989  0.79124  1.0000
  H   H101      1.0  0.04341  0.28543  0.90406  1.0000
  H   H102      1.0  0.11722  0.42513  0.64781  1.0000
  C   C52       1.0  0.08814  0.48753  0.69494  1.0000
  N   N4        1.0  0.09696  0.04950  0.84896  1.0000
  H   H103      1.0  0.08745  0.27478  0.69811  1.0000
  C   C53       1.0  0.03281  0.31639  0.91672  1.0000
  N   N5        1.0  0.07026  0.38446  0.62572  1.0000
  H   H104      1.0  0.13365  0.10370  0.83467  1.0000
  H   H105      1.0  0.28252  0.03126  0.55036  1.0000
  C   C54       1.0  0.23139  0.09507  0.54081  1.0000
  C   C55       1.0  0.31692  0.17901  0.71399  1.0000
  H   H106      1.0  0.23579  0.16638  0.72718  1.0000
  H   H107      1.0  0.17697  0.03655  0.82577  1.0000
  H   H108      1.0  0.01823  0.20654  0.50887  1.0000
  H   H109      1.0  0.25715  0.12352  0.69649  1.0000
  H   H110      1.0  0.33595  0.50131  0.54386  1.0000
  C   C56       1.0  0.02022  0.50390  0.49090  1.0000
  H   H111      1.0  0.03409  0.34442  0.85336  1.0000
  H   H112      1.0  0.22228  0.08523  0.50831  1.0000
  H   H113      1.0  0.29017  0.17913  0.65041  1.0000
  C   C57       1.0  0.08027  0.19599  0.94990  1.0000
  H   H114      1.0  0.27134  0.21984  0.68512  1.0000
  S   S17       1.0  0.32731  0.48008  0.63520  1.0000
  C   C58       1.0  0.28183  0.18639  0.68384  1.0000
  H   H115      1.0  0.30531  0.17744  0.74709  1.0000
  H   H116      1.0  0.13455  0.29959  0.70407  1.0000
  C   C59       1.0  0.10324  0.30229  0.71220  1.0000
  C   C60       1.0  0.07758  0.01446  0.82380  1.0000
  H   H117      1.0  0.11758  0.47805  0.70584  1.0000
  C   C61       1.0  0.24780  0.15741  0.69555  1.0000
  C   C62       1.0  0.29585  0.05727  0.53089  1.0000
  H   H118      1.0  0.10241  0.37060  0.71190  1.0000
  H   H119      1.0  0.06244  0.42638  0.70677  1.0000
  C   C63       1.0  0.12028  0.38589  0.56365  1.0000
  C   C64       1.0  0.12298  0.39257  0.51550  1.0000
  H   H120      1.0  0.02209  0.07878  0.81862  1.0000
  C   C65       1.0  0.08559  0.42733  0.64066  1.0000
  C   C66       1.0  0.07814  0.26248  0.51860  1.0000
  C   C67       1.0  0.09179  0.34834  0.64692  1.0000
  H   H121      1.0  0.03231  0.43630  0.48788  1.0000
  H   H122      1.0  0.03597  0.45974  0.67039  1.0000
  C   C68       1.0  0.10329  0.02409  0.92837  1.0000
  H   H123      1.0  0.13670  0.35639  0.57154  1.0000
  H   H124      1.0  0.10156  0.19261  0.97623  1.0000
  H   H125      1.0  0.28392  0.12566  0.52085  1.0000
  C   C69       1.0  0.04008  0.10264  0.83566  1.0000
  H   H126      1.0  0.01433  0.24767  0.70519  1.0000
  H   H127      1.0  0.16682  0.09308  0.74645  1.0000
  H   H128      1.0  0.07485  0.26855  0.55332  1.0000
  C   C70       1.0  0.04375  0.21891  0.96546  1.0000
  H   H129      1.0  0.28284  0.11010  0.57602  1.0000
  H   H130      1.0  0.06762  0.35035  0.56541  1.0000
  H   H131      1.0  0.13501  0.41324  0.57901  1.0000
  C   C71       1.0  0.06544  0.44856  0.67957  1.0000
  C   C72       1.0  0.12266  0.07429  0.81870  1.0000
  C   C73       1.0  0.33461  0.25269  0.73137  1.0000
  H   H132      1.0  0.03178  0.30427  0.50039  1.0000
  H   H133      1.0  0.04893  0.06485  0.89151  1.0000
  C   C74       1.0  0.06787  0.08048  0.86759  1.0000
  C   C75       1.0  0.08656  0.34438  0.69572  1.0000
  H   H134      1.0  0.08345  0.10592  0.88556  1.0000
  H   H135      1.0  0.12357  0.35155  0.64166  1.0000
  H   H136      1.0  0.09106  0.51136  0.66894  1.0000
  H   H137      1.0  0.19533  0.10607  0.79316  1.0000
  H   H138      1.0  0.10087  0.28419  0.50604  1.0000
  H   H139      1.0  0.09709  0.05531  0.94381  1.0000
  H   H140      1.0  0.22437  0.16077  0.67147  1.0000
  H   H141      1.0  0.08412  0.31735  0.63177  1.0000
  H   H142      1.0  0.14891  0.02336  0.77935  1.0000
  C   C76       1.0  0.01313  0.33971  0.87984  1.0000
  H   H143      1.0  0.31236  0.26789  0.71059  1.0000
  H   H144      1.0  0.02419  0.22407  0.93788  1.0000
  H   H145      1.0  0.14723  0.05294  0.89059  1.0000
  C   C77       1.0  0.01259  0.13305  0.85895  1.0000
  H   H146      1.0  0.20855  0.06131  0.76002  1.0000
  H   H147      1.0  0.10003  0.30075  0.74738  1.0000
  C   C78       1.0  0.07735  0.38153  0.57825  1.0000
  H   H148      1.0  0.07257  0.16358  0.93846  1.0000
  H   H149      1.0  0.33513  0.23501  0.64799  1.0000
  H   H150      1.0  0.09391  0.21398  0.92335  1.0000
  C   C79       1.0  0.03980  0.27034  0.49535  1.0000
  H   H151      1.0  0.10592  0.08528  0.79042  1.0000
  H   H152      1.0  0.05568  0.34549  0.70526  1.0000
  H   H153      1.0  0.22107  0.07104  0.56424  1.0000
  C   C80       1.0  0.24615  0.04208  0.65584  1.0000
  H   H154      1.0  0.15397  0.39385  0.50581  1.0000
  C   C81       1.0  0.02691  0.38147  0.63270  1.0000
  H   H155      1.0  0.32823  0.14628  0.70771  1.0000
  H   H156      1.0  0.15748  0.01673  0.96368  1.0000
  H   H157      1.0  0.08326  0.45158  0.61472  1.0000
  H   H158      1.0  0.28733  0.05095  0.49730  1.0000
  H   H159      1.0  0.07751  0.27695  0.96971  1.0000
  C   C82       1.0  0.19888  0.50239  0.60309  1.0000
  C   C83       1.0  0.18205  0.01836  0.67762  1.0000
  H   H160      1.0  0.07262  0.50283  0.72197  1.0000
  N   N6        1.0  0.33946  0.05624  0.53573  1.0000
  S   S18       1.0  0.14882  0.50861  0.59248  1.0000
  H   H161      1.0  0.02907  0.15904  0.87470  1.0000
  H   H162      1.0  0.03268  0.01827  0.56971  1.0000
  S   S19       1.0  0.13168  0.02687  0.68402  1.0000
  H   H163      1.0  0.32503  0.34067  0.73842  1.0000
  H   H164      1.0  0.01952  0.31201  0.64107  1.0000
  C   C84       1.0  0.12232  0.03123  0.88399  1.0000
  H   H165      1.0  0.04462  0.51090  0.51142  1.0000
  H   H166      1.0  0.01196  0.40724  0.61446  1.0000
  H   H167      1.0  0.01189  0.32985  0.58713  1.0000
  C   C85       1.0  0.01195  0.01238  0.54451  1.0000
  Fe  Fe9       1.0  0.04380  0.64604  0.18938  1.0000
  S   S20       1.0  0.04177  0.68217  0.12790  1.0000
  H   H168      1.0  0.11642  0.85610  0.03647  1.0000
  Fe  Fe10      1.0  0.10492  0.58332  0.15425  1.0000
  S   S21       1.0  0.10716  0.61568  0.09025  1.0000
  C   C86       1.0  0.20309  0.00026  0.09162  1.0000
  Fe  Fe11      1.0  0.10718  0.67670  0.12834  1.0000
  S   S22       1.0  0.14197  0.73808  0.11953  1.0000
  Fe  Fe12      1.0  0.04191  0.61750  0.09599  1.0000
  H   H169      1.0  0.03090  0.82442  0.17329  1.0000
  S   S23       1.0  0.10883  0.64392  0.19216  1.0000
  S   S24       1.0  0.03962  0.58165  0.15776  1.0000
  C   C87       1.0  0.07781  0.52337  0.37109  1.0000
  S   S25       1.0  0.31984  0.76041  0.06738  1.0000
  C   C88       1.0  0.19173  0.74271  0.10537  1.0000
  C   C89       1.0  0.21052  0.78191  0.11208  1.0000
  C   C90       1.0  0.24973  0.78766  0.10097  1.0000
  C   C91       1.0  0.27057  0.75425  0.08233  1.0000
  C   C92       1.0  0.25188  0.71497  0.07532  1.0000
  C   C93       1.0  0.21264  0.70915  0.08683  1.0000
  H   H170      1.0  0.19467  0.80808  0.12582  1.0000
  H   H171      1.0  0.26370  0.81810  0.10639  1.0000
  C   C94       1.0  0.22364  0.96562  0.07446  1.0000
  H   H172      1.0  0.30994  0.64272  0.24360  1.0000
  H   H173      1.0  0.26757  0.90218  0.18687  1.0000
  C   C95       1.0  0.09444  0.54341  0.41253  1.0000
  H   H174      1.0  0.06282  0.61406  0.31022  1.0000
  C   C96       1.0  0.27927  0.98236  0.11868  1.0000
  C   C97       1.0  0.26165  0.95671  0.08786  1.0000
  H   H175      1.0  0.25279  0.70005  0.18105  1.0000
  H   H176      1.0  0.07710  0.51733  0.28770  1.0000
  C   C98       1.0  0.02326  0.77276  0.03050  1.0000
  H   H177      1.0  0.27723  0.92992  0.07447  1.0000
  H   H178      1.0  0.25658  0.60191  0.17379  1.0000
  H   H179      1.0  0.18738  0.68711  0.20574  1.0000
  H   H180      1.0  0.07108  0.55730  0.43248  1.0000
  C   C99       1.0  0.32019  0.61865  0.22039  1.0000
  N   N7        1.0  0.31276  0.63238  0.17497  1.0000
  C   C100      1.0  0.20314  0.66010  0.19062  1.0000
  H   H181      1.0  0.03991  0.55364  0.27480  1.0000
  N   N8        1.0  0.13155  0.89958  0.16237  1.0000
  C   C101      1.0  0.12673  0.94704  0.16856  1.0000
  C   C102      1.0  0.13578  0.89091  0.11525  1.0000
  C   C103      1.0  0.09650  0.87725  0.18058  1.0000
  C   C104      1.0  0.16730  0.88344  0.18499  1.0000
  C   C105      1.0  0.20622  0.90465  0.17183  1.0000
  C   C106      1.0  0.12721  0.96348  0.21514  1.0000
  C   C107      1.0  0.09413  0.82842  0.17219  1.0000
  C   C108      1.0  0.09942  0.89980  0.08743  1.0000
  C   C109      1.0  0.10774  0.89003  0.04056  1.0000
  C   C110      1.0  0.24021  0.88655  0.19732  1.0000
  H   H182      1.0  0.12599  0.52444  0.46940  1.0000
  C   C111      1.0  0.05631  0.80980  0.18944  1.0000
  H   H183      1.0  0.09893  0.95813  0.15435  1.0000
  H   H184      1.0  0.14967  0.96456  0.15110  1.0000
  H   H185      1.0  0.15928  0.91100  0.10159  1.0000
  H   H186      1.0  0.14520  0.85743  0.10951  1.0000
  H   H187      1.0  0.06928  0.89234  0.16878  1.0000
  H   H188      1.0  0.09556  0.88123  0.21579  1.0000
  H   H189      1.0  0.16390  0.88618  0.22015  1.0000
  H   H190      1.0  0.17108  0.84877  0.17927  1.0000
  H   H191      1.0  0.20564  0.93964  0.17709  1.0000
  H   H192      1.0  0.21262  0.89838  0.13777  1.0000
  H   H193      1.0  0.10340  0.94904  0.23403  1.0000
  H   H194      1.0  0.15528  0.95623  0.23083  1.0000
  H   H195      1.0  0.11828  0.81133  0.18815  1.0000
  H   H196      1.0  0.09533  0.82091  0.13772  1.0000
  H   H197      1.0  0.07447  0.87980  0.09731  1.0000
  H   H198      1.0  0.09067  0.93382  0.08942  1.0000
  S   S26       1.0  0.13721  0.52109  0.16548  1.0000
  H   H199      1.0  0.08127  0.89596  0.02131  1.0000
  H   H200      1.0  0.18513  0.55158  0.23489  1.0000
  H   H201      1.0  0.08094  0.61311  0.36277  1.0000
  H   H202      1.0  0.24311  0.85165  0.19179  1.0000
  C   C112      1.0  0.20350  0.53487  0.21242  1.0000
  H   H203      1.0  0.25401  0.53701  0.25292  1.0000
  H   H204      1.0  0.07113  0.73025  0.04749  1.0000
  H   H205      1.0  0.31753  0.56632  0.15502  1.0000
  H   H206      1.0  0.05390  0.81511  0.22436  1.0000
  C   C113      1.0  0.04928  0.53068  0.29991  1.0000
  H   H207      1.0  0.05584  0.77485  0.18341  1.0000
  H   H208      1.0  0.26278  0.64151  0.13399  1.0000
  H   H209      1.0  0.19519  0.63012  0.20731  1.0000
  C   C114      1.0  0.24669  0.66764  0.19381  1.0000
  H   H210      1.0  0.30300  0.58952  0.22791  1.0000
  H   H211      1.0  0.21013  0.94552  0.05068  1.0000
  C   C115      1.0  0.02038  0.00853  0.99076  1.0000
  H   H212      1.0  0.26772  0.68906  0.06053  1.0000
  H   H213      1.0  0.34092  0.81119  0.98675  1.0000
  H   H214      1.0  0.30860  0.70992  0.22050  1.0000
  H   H215      1.0  0.13126  0.91104  0.02844  1.0000
  H   H216      1.0  0.25379  0.66685  0.22815  1.0000
  H   H217      1.0  0.19379  0.65775  0.15690  1.0000
  C   C116      1.0  0.07863  0.59344  0.33331  1.0000
  S   S27       1.0  0.32699  0.97227  0.13589  1.0000
  C   C117      1.0  0.26950  0.63395  0.16777  1.0000
  H   H218      1.0  0.14597  0.64360  0.34206  1.0000
  H   H219      1.0  0.12418  0.65228  0.29030  1.0000
  H   H220      1.0  0.19843  0.67901  0.08068  1.0000
  C   C118      1.0  0.24244  0.52616  0.22278  1.0000
  H   H221      1.0  0.23619  0.89274  0.23189  1.0000
  C   C119      1.0  0.11968  0.58694  0.31388  1.0000
  H   H222      1.0  0.11574  0.56892  0.40541  1.0000
  H   H223      1.0  0.07491  0.78348  0.06860  1.0000
  H   H224      1.0  0.29111  0.59732  0.08971  1.0000
  H   H225      1.0  0.13776  0.56536  0.33358  1.0000
  C   C120      1.0  0.33127  0.67467  0.16388  1.0000
  C   C121      1.0  0.32917  0.59822  0.14602  1.0000
  H   H226      1.0  0.02013  0.80752  0.02416  1.0000
  H   H227      1.0  0.31540  0.68982  0.13687  1.0000
  H   H228      1.0  0.01936  0.52098  0.07979  1.0000
  S   S28       1.0  0.15479  0.00862  0.07557  1.0000
  H   H229      1.0  0.08462  0.77404  0.01298  1.0000
  N   N9        1.0  0.05596  0.55320  0.34183  1.0000
  C   C122      1.0  0.32193  0.60403  0.09753  1.0000
  C   C123      1.0  0.06606  0.76452  0.04033  1.0000
  H   H230      1.0  0.11751  0.57321  0.28133  1.0000
  C   C124      1.0  0.14110  0.62944  0.31004  1.0000
  H   H231      1.0  0.34018  0.53935  0.08079  1.0000
  H   H232      1.0  0.02515  0.93996  0.99536  1.0000
  C   C125      1.0  0.18787  0.51997  0.17409  1.0000
  C   C126      1.0  0.33480  0.70805  0.20030  1.0000
  H   H233      1.0  0.16972  0.62426  0.29452  1.0000
  H   H234      1.0  0.31482  0.76484  0.16725  1.0000
  H   H235      1.0  0.02336  0.58147  0.39376  1.0000
  C   C127      1.0  0.34170  0.75266  0.18256  1.0000
  H   H236      1.0  0.01988  0.71314  0.99545  1.0000
  H   H237      1.0  0.32904  0.63689  0.08693  1.0000
  H   H238      1.0  0.11534  0.99475  0.98946  1.0000
  H   H239      1.0  0.34015  0.57670  0.03708  1.0000
  H   H240      1.0  0.02022  0.69103  0.47574  1.0000
  H   H241      1.0  0.31071  0.98828  0.47800  1.0000
  C   C128      1.0  0.01807  0.56488  0.36299  1.0000
  C   C129      1.0  0.34236  0.99432  0.48052  1.0000
  Fe  Fe13      1.0  0.06295  0.63840  0.63288  1.0000
  S   S29       1.0  0.05506  0.67338  0.57122  1.0000
  H   H242      1.0  0.01190  0.69698  0.92357  1.0000
  Fe  Fe14      1.0  0.11862  0.57305  0.59173  1.0000
  S   S30       1.0  0.11489  0.60496  0.52778  1.0000
  S   S31       1.0  0.31366  0.99754  0.66840  1.0000
  Fe  Fe15      1.0  0.11990  0.66623  0.56495  1.0000
  S   S32       1.0  0.15533  0.72299  0.54208  1.0000
  Fe  Fe16      1.0  0.05094  0.60821  0.54060  1.0000
  H   H243      1.0  0.14550  0.72100  0.67778  1.0000
  S   S33       1.0  0.12822  0.63405  0.62829  1.0000
  S   S34       1.0  0.05403  0.57364  0.60287  1.0000
  H   H244      1.0  0.20687  0.60003  0.56104  1.0000
  Fe  Fe17      1.0  0.34422  0.83959  0.63620  1.0000
  C   C130      1.0  0.19837  0.73817  0.56885  1.0000
  C   C131      1.0  0.22049  0.77248  0.55323  1.0000
  C   C132      1.0  0.25450  0.78570  0.57440  1.0000
  C   C133      1.0  0.26680  0.76435  0.61112  1.0000
  C   C134      1.0  0.24473  0.73003  0.62657  1.0000
  C   C135      1.0  0.21064  0.71710  0.60569  1.0000
  H   H245      1.0  0.21127  0.78891  0.52466  1.0000
  H   H246      1.0  0.27160  0.81178  0.56188  1.0000
  H   H247      1.0  0.25409  0.71330  0.65491  1.0000
  H   H248      1.0  0.19409  0.69063  0.61801  1.0000
  H   H249      1.0  0.06356  0.85326  0.65703  1.0000
  C   C136      1.0  0.22010  0.53351  0.62493  1.0000
  H   H250      1.0  0.31262  0.77571  0.78373  1.0000
  C   C137      1.0  0.21970  0.61155  0.53068  1.0000
  C   C138      1.0  0.23879  0.97272  0.68851  1.0000
  C   C139      1.0  0.19865  0.98019  0.69245  1.0000
  H   H251      1.0  0.20594  0.56260  0.63519  1.0000
  H   H252      1.0  0.32977  0.56883  0.50541  1.0000
  H   H253      1.0  0.25139  0.94345  0.70051  1.0000
  H   H254      1.0  0.18051  0.95650  0.70756  1.0000
  H   H255      1.0  0.12574  0.76845  0.61841  1.0000
  C   C140      1.0  0.34059  0.66172  0.69065  1.0000
  C   C141      1.0  0.12365  0.73844  0.69720  1.0000
  H   H256      1.0  0.16918  0.85117  0.65169  1.0000
  H   H257      1.0  0.32087  0.78736  0.89455  1.0000
  H   H258      1.0  0.05680  0.78357  0.57069  1.0000
  C   C142      1.0  0.15728  0.84714  0.61915  1.0000
  H   H259      1.0  0.03178  0.74645  0.48293  1.0000
  N   N10       1.0  0.11460  0.83630  0.62026  1.0000
  H   H260      1.0  0.07912  0.78209  0.63830  1.0000
  C   C143      1.0  0.11001  0.79208  0.63871  1.0000
  H   H261      1.0  0.02301  0.73413  0.64177  1.0000
  H   H262      1.0  0.15292  0.79797  0.69107  1.0000
  H   H263      1.0  0.30155  0.77823  0.96892  1.0000
  H   H264      1.0  0.13129  0.73469  0.73136  1.0000
  H   H265      1.0  0.10259  0.80196  0.70725  1.0000
  S   S35       1.0  0.03235  0.65756  0.69457  1.0000
  H   H266      1.0  0.11948  0.81360  0.55507  1.0000
  H   H267      1.0  0.21477  0.90654  0.63607  1.0000
  H   H268      1.0  0.04122  0.86687  0.52131  1.0000
  H   H269      1.0  0.17408  0.82001  0.60556  1.0000
  C   C144      1.0  0.12325  0.78574  0.68539  1.0000
  H   H270      1.0  0.20699  0.59272  0.50417  1.0000
  H   H271      1.0  0.16626  0.88036  0.55827  1.0000
  H   H272      1.0  0.02727  0.75958  0.96407  1.0000
  C   C145      1.0  0.16844  0.88729  0.59292  1.0000
  H   H273      1.0  0.13540  0.00041  0.87351  1.0000
  H   H274      1.0  0.23079  0.87535  0.59104  1.0000
  C   C146      1.0  0.12997  0.99911  0.95820  1.0000
  S   S36       1.0  0.31076  0.77695  0.63725  1.0000
  H   H275      1.0  0.09469  0.72396  0.69194  1.0000
  H   H276      1.0  0.27056  0.61377  0.59743  1.0000
  C   C147      1.0  0.34261  0.79551  0.91929  1.0000
  H   H277      1.0  0.29046  0.64222  0.65607  1.0000
  C   C148      1.0  0.10031  0.83463  0.57474  1.0000
  C   C149      1.0  0.02680  0.95621  0.81825  1.0000
  H   H278      1.0  0.12370  0.86946  0.70519  1.0000
  H   H279      1.0  0.10199  0.86688  0.56001  1.0000
  H   H280      1.0  0.05780  0.89922  0.72107  1.0000
  C   C150      1.0  0.26271  0.00374  0.67030  1.0000
  H   H281      1.0  0.06114  0.81827  0.49893  1.0000
  C   C151      1.0  0.04240  0.83157  0.52455  1.0000
  H   H282      1.0  0.27539  0.54993  0.65266  1.0000
  H   H283      1.0  0.13320  0.91364  0.67068  1.0000
  H   H284      1.0  0.03808  0.83258  0.59270  1.0000
  H   H285      1.0  0.21707  0.93051  0.58402  1.0000
  H   H286      1.0  0.08010  0.89443  0.62296  1.0000
  C   C152      1.0  0.25942  0.52627  0.63480  1.0000
  H   H287      1.0  0.13652  0.96705  0.94487  1.0000
  C   C153      1.0  0.08101  0.91940  0.70699  1.0000
  H   H288      1.0  0.07567  0.00651  0.92608  1.0000
  C   C154      1.0  0.09046  0.86860  0.64459  1.0000
  H   H289      1.0  0.30169  0.83433  0.95601  1.0000
  H   H290      1.0  0.27465  0.61800  0.49983  1.0000
  H   H291      1.0  0.33986  0.98859  0.54917  1.0000
  H   H292      1.0  0.06773  0.94361  0.68561  1.0000
  C   C155      1.0  0.04827  0.98632  0.84833  1.0000
  H   H293      1.0  0.26992  0.57145  0.53370  1.0000
  C   C156      1.0  0.21033  0.90066  0.60159  1.0000
  H   H294      1.0  0.01251  0.81913  0.52042  1.0000
  H   H295      1.0  0.14898  0.91458  0.60028  1.0000
  H   H296      1.0  0.09614  0.93656  0.73311  1.0000
  H   H297      1.0  0.26984  0.66319  0.56954  1.0000
  C   C157      1.0  0.26381  0.60616  0.53086  1.0000
  H   H298      1.0  0.04756  0.93596  0.80018  1.0000
  H   H299      1.0  0.21172  0.64562  0.52615  1.0000
  C   C158      1.0  0.11020  0.89195  0.68246  1.0000
  S   S37       1.0  0.34472  0.87385  0.69948  1.0000
  C   C159      1.0  0.33701  0.65671  0.60999  1.0000
  H   H300      1.0  0.06383  0.96594  0.87162  1.0000
  C   C160      1.0  0.05793  0.81897  0.56840  1.0000
  C   C161      1.0  0.28215  0.63027  0.56884  1.0000
  C   C162      1.0  0.32032  0.80567  0.96015  1.0000
  C   C163      1.0  0.34168  0.76108  0.77893  1.0000
  H   H301      1.0  0.09965  0.99203  0.81082  1.0000
  H   H302      1.0  0.33779  0.72652  0.77234  1.0000
  C   C164      1.0  0.32233  0.63821  0.65295  1.0000
  S   S38       1.0  0.33969  0.89986  0.59721  1.0000
  H   H303      1.0  0.32953  0.60381  0.65574  1.0000
  H   H304      1.0  0.01522  0.94376  0.55024  1.0000
  H   H305      1.0  0.32399  0.56628  0.59014  1.0000
  H   H306      1.0  0.33373  0.64166  0.50203  1.0000
  H   H307      1.0  0.02612  0.00571  0.86505  1.0000
  N   N11       1.0  0.32592  0.63236  0.57018  1.0000
  H   H308      1.0  0.32932  0.64833  0.72099  1.0000
  H   H309      1.0  0.32353  0.68876  0.53045  1.0000
  H   H310      1.0  0.32653  0.69034  0.60792  1.0000
  H   H311      1.0  0.33314  0.69624  0.68950  1.0000
  C   C165      1.0  0.33996  0.65809  0.53252  1.0000
  C   C166      1.0  0.34348  0.58808  0.57207  1.0000
  Fe  Fe18      1.0  0.34459  0.93387  0.66007  1.0000
  Fe  Fe19      1.0  0.61158  0.08768  0.37903  1.0000
  S   S39       1.0  0.62280  0.11427  0.44451  1.0000
  H   H312      1.0  0.47691  0.43474  0.31361  1.0000
  Fe  Fe20      1.0  0.54784  0.15404  0.35961  1.0000
  S   S40       1.0  0.55413  0.18391  0.42411  1.0000
  S   S41       1.0  0.50278  0.17518  0.31072  1.0000
  Fe  Fe21      1.0  0.61850  0.17831  0.41216  1.0000
  H   H313      1.0  0.40315  0.11008  0.43509  1.0000
  Fe  Fe22      1.0  0.55758  0.11677  0.44988  1.0000
  H   H314      1.0  0.63609  0.36643  0.31549  1.0000
  S   S42       1.0  0.61187  0.15165  0.34606  1.0000
  S   S43       1.0  0.54653  0.08706  0.38617  1.0000
  H   H315      1.0  0.40930  0.09869  0.05466  1.0000
  H   H316      1.0  0.46295  0.28363  0.45590  1.0000
  Fe  Fe23      1.0  0.41780  0.37781  0.19574  1.0000
  S   S44       1.0  0.41009  0.34408  0.13333  1.0000
  S   S45       1.0  0.46501  0.36324  0.24463  1.0000
  Fe  Fe24      1.0  0.40226  0.41021  0.10547  1.0000
  S   S46       1.0  0.43482  0.42692  0.04415  1.0000
  H   H317      1.0  0.35339  0.22930  0.10302  1.0000
  S   S47       1.0  0.41389  0.44377  0.16731  1.0000
  H   H318      1.0  0.48877  0.50345  0.20814  1.0000
  C   C167      1.0  0.49141  0.01964  0.98913  1.0000
  H   H319      1.0  0.53123  0.25940  0.33690  1.0000
  C   C168      1.0  0.49590  0.45494  0.43943  1.0000
  C   C169      1.0  0.45958  0.47550  0.03312  1.0000
  H   H320      1.0  0.51562  0.33236  0.31010  1.0000
  H   H321      1.0  0.59370  0.47441  0.20681  1.0000
  H   H322      1.0  0.43801  0.27901  0.21762  1.0000
  H   H323      1.0  0.50141  0.42765  0.41919  1.0000
  H   H324      1.0  0.45330  0.20630  0.24447  1.0000
  H   H325      1.0  0.58043  0.34267  0.41637  1.0000
  C   C170      1.0  0.49359  0.22779  0.29235  1.0000
  C   C171      1.0  0.46717  0.23377  0.25874  1.0000
  C   C172      1.0  0.45851  0.27495  0.24340  1.0000
  C   C173      1.0  0.47618  0.31068  0.26164  1.0000
  C   C174      1.0  0.50252  0.30479  0.29533  1.0000
  C   C175      1.0  0.51127  0.26356  0.31064  1.0000
  H   H326      1.0  0.41480  0.24199  0.06408  1.0000
  C   C176      1.0  0.48269  0.47847  0.99621  1.0000
  C   C177      1.0  0.56831  0.26822  0.20656  1.0000
  C   C178      1.0  0.45373  0.26374  0.42838  1.0000
  C   C179      1.0  0.64095  0.33316  0.32702  1.0000
  H   H327      1.0  0.58230  0.43943  0.28982  1.0000
  S   S48       1.0  0.65322  0.23887  0.42405  1.0000
  H   H328      1.0  0.56457  0.42556  0.15569  1.0000
  H   H329      1.0  0.43833  0.50954  0.08786  1.0000
  H   H330      1.0  0.61729  0.30981  0.20106  1.0000
  C   C180      1.0  0.35504  0.26820  0.28696  1.0000
  C   C181      1.0  0.60613  0.32245  0.35673  1.0000
  H   H331      1.0  0.37809  0.28055  0.05048  1.0000
  C   C182      1.0  0.60876  0.28203  0.22098  1.0000
  C   C183      1.0  0.35832  0.37417  0.38273  1.0000
  H   H332      1.0  0.43751  0.03478  0.08636  1.0000
  H   H333      1.0  0.53137  0.49762  0.40154  1.0000
  H   H334      1.0  0.57833  0.32930  0.34041  1.0000
  H   H335      1.0  0.39498  0.16775  0.08042  1.0000
  H   H336      1.0  0.41425  0.31647  0.31319  1.0000
  H   H337      1.0  0.52504  0.43506  0.21427  1.0000
  H   H338      1.0  0.56897  0.25944  0.17228  1.0000
  C   C184      1.0  0.35478  0.17382  0.20609  1.0000
  C   C185      1.0  0.51302  0.49458  0.42936  1.0000
  H   H339      1.0  0.39561  0.02683  0.11962  1.0000
  C   C186      1.0  0.45654  0.51113  0.05982  1.0000
  H   H340      1.0  0.66222  0.35605  0.24894  1.0000
  H   H341      1.0  0.59237  0.27011  0.28680  1.0000
  H   H342      1.0  0.54714  0.29467  0.21084  1.0000
  C   C187      1.0  0.60871  0.29493  0.26874  1.0000
  H   H343      1.0  0.50972  0.47308  0.14555  1.0000
  H   H344      1.0  0.62496  0.01601  0.98398  1.0000
  H   H345      1.0  0.39258  0.44203  0.34474  1.0000
  H   H346      1.0  0.37010  0.38398  0.45093  1.0000
  C   C188      1.0  0.60678  0.34952  0.39721  1.0000
  H   H347      1.0  0.58723  0.40551  0.24328  1.0000
  H   H348      1.0  0.34835  0.29023  0.26024  1.0000
  H   H349      1.0  0.59042  0.32429  0.26982  1.0000
  H   H350      1.0  0.45900  0.46762  0.35685  1.0000
  N   N12       1.0  0.39505  0.35241  0.36813  1.0000
  H   H351      1.0  0.54726  0.39796  0.27960  1.0000
  C   C189      1.0  0.38695  0.32925  0.32694  1.0000
  C   C190      1.0  0.40808  0.32188  0.40247  1.0000
  C   C191      1.0  0.42708  0.38432  0.36031  1.0000
  S   S49       1.0  0.64007  0.02675  0.35492  1.0000
  H   H352      1.0  0.52879  0.42193  0.08652  1.0000
  C   C192      1.0  0.44242  0.29201  0.39069  1.0000
  H   H353      1.0  0.44413  0.47828  0.30287  1.0000
  H   H354      1.0  0.40801  0.41190  0.29902  1.0000
  H   H355      1.0  0.59809  0.46277  0.13324  1.0000
  H   H356      1.0  0.41011  0.10355  0.11166  1.0000
  H   H357      1.0  0.37581  0.35180  0.30253  1.0000
  H   H358      1.0  0.57922  0.40734  0.08123  1.0000
  H   H359      1.0  0.41742  0.33988  0.43116  1.0000
  H   H360      1.0  0.43841  0.39710  0.39097  1.0000
  H   H361      1.0  0.45241  0.36838  0.34509  1.0000
  H   H362      1.0  0.62903  0.25557  0.21414  1.0000
  C   C193      1.0  0.35708  0.29232  0.32930  1.0000
  H   H363      1.0  0.63271  0.34169  0.41673  1.0000
  C   C194      1.0  0.36554  0.17076  0.06659  1.0000
  H   H364      1.0  0.46840  0.31082  0.38179  1.0000
  H   H365      1.0  0.43486  0.27062  0.36376  1.0000
  N   N13       1.0  0.64750  0.30308  0.28985  1.0000
  H   H366      1.0  0.38490  0.42808  0.41822  1.0000
  C   C195      1.0  0.67495  0.32500  0.25936  1.0000
  H   H367      1.0  0.55834  0.24000  0.22502  1.0000
  H   H368      1.0  0.42896  0.24327  0.43810  1.0000
  C   C196      1.0  0.38635  0.24633  0.04801  1.0000
  C   C197      1.0  0.41475  0.11986  0.46664  1.0000
  H   H369      1.0  0.36478  0.26876  0.35423  1.0000
  H   H370      1.0  0.51998  0.46771  0.26103  1.0000
  C   C198      1.0  0.47207  0.45040  0.47559  1.0000
  H   H371      1.0  0.60587  0.28846  0.36622  1.0000
  C   C199      1.0  0.55906  0.43411  0.08824  1.0000
  C   C200      1.0  0.66455  0.26233  0.30747  1.0000
  H   H372      1.0  0.56299  0.45912  0.06350  1.0000
  H   H373      1.0  0.49223  0.04525  0.01224  1.0000
  H   H374      1.0  0.53691  0.51015  0.11545  1.0000
  H   H375      1.0  0.38072  0.17418  0.22708  1.0000
  S   S50       1.0  0.35445  0.37647  0.21157  1.0000
  C   C201      1.0  0.40561  0.03947  0.08843  1.0000
  H   H376      1.0  0.47829  0.24273  0.41900  1.0000
  C   C202      1.0  0.56631  0.48905  0.21828  1.0000
  C   C203      1.0  0.39597  0.08695  0.08473  1.0000
  H   H377      1.0  0.38349  0.30185  0.41376  1.0000
  C   C204      1.0  0.53879  0.48865  0.14369  1.0000
  C   C205      1.0  0.56753  0.45215  0.13259  1.0000
  C   C206      1.0  0.54134  0.45330  0.23871  1.0000
  H   H378      1.0  0.64382  0.24661  0.32957  1.0000
  C   C207      1.0  0.56623  0.42218  0.26439  1.0000
  H   H379      1.0  0.65018  0.21039  0.26383  1.0000
  C   C208      1.0  0.41666  0.42280  0.33125  1.0000
  C   C209      1.0  0.45140  0.45260  0.32592  1.0000
  C   C210      1.0  0.36544  0.15424  0.16297  1.0000
  H   H380      1.0  0.60700  0.38408  0.38924  1.0000
  H   H381      1.0  0.38892  0.17408  0.14930  1.0000
  H   H382      1.0  0.40507  0.15289  0.47400  1.0000
  H   H383      1.0  0.37663  0.12158  0.16911  1.0000
  H   H384      1.0  0.36908  0.16226  0.03229  1.0000
  H   H385      1.0  0.38922  0.23794  0.01375  1.0000
  C   C211      1.0  0.35141  0.09467  0.08365  1.0000
  H   H386      1.0  0.51248  0.02516  0.45427  1.0000
  H   H387      1.0  0.38306  0.25193  0.28034  1.0000
  C   C212      1.0  0.35523  0.21894  0.06933  1.0000
  H   H388      1.0  0.44696  0.11962  0.46470  1.0000
  H   H389      1.0  0.39170  0.02098  0.06237  1.0000
  H   H390      1.0  0.66723  0.33471  0.34756  1.0000
  C   C213      1.0  0.67648  0.22768  0.27479  1.0000
  H   H391      1.0  0.56822  0.39005  0.47885  1.0000
  C   C214      1.0  0.36234  0.40327  0.42257  1.0000
  S   S51       1.0  0.65102  0.50559  0.29806  1.0000
  Fe  Fe25      1.0  0.34922  0.43892  0.17732  1.0000
  H   H392      1.0  0.35108  0.01712  0.45530  1.0000
  Fe  Fe26      1.0  0.34583  0.34645  0.14715  1.0000
  H   H393      1.0  0.57548  0.51063  0.24468  1.0000
  H   H394      1.0  0.34538  0.39316  0.35632  1.0000
  Fe  Fe27      1.0  0.61933  0.06272  0.80827  1.0000
  S   S52       1.0  0.62873  0.09438  0.87168  1.0000
  H   H395      1.0  0.40508  0.17360  0.65198  1.0000
  Fe  Fe28      1.0  0.55340  0.12418  0.78295  1.0000
  S   S53       1.0  0.55726  0.15912  0.84523  1.0000
  S   S54       1.0  0.51337  0.14029  0.72720  1.0000
  Fe  Fe29      1.0  0.62210  0.15620  0.83536  1.0000
  S   S55       1.0  0.65672  0.21816  0.83199  1.0000
  Fe  Fe30      1.0  0.56316  0.09379  0.87561  1.0000
  S   S56       1.0  0.53153  0.07531  0.93709  1.0000
  S   S57       1.0  0.61762  0.12392  0.77142  1.0000
  S   S58       1.0  0.55438  0.05916  0.81389  1.0000
  C   C215      1.0  0.61774  0.32597  0.77231  1.0000
  H   H396      1.0  0.39331  0.16349  0.72064  1.0000
  Fe  Fe31      1.0  0.41651  0.35147  0.63672  1.0000
  S   S59       1.0  0.41321  0.32019  0.57271  1.0000
  S   S60       1.0  0.45633  0.33068  0.69087  1.0000
  Fe  Fe32      1.0  0.41359  0.38683  0.54550  1.0000
  C   C216      1.0  0.35995  0.22074  0.66568  1.0000
  H   H397      1.0  0.40909  0.09904  0.63936  1.0000
  S   S61       1.0  0.42159  0.41773  0.60932  1.0000
  H   H398      1.0  0.38832  0.27582  0.76271  1.0000
  H   H399      1.0  0.51494  0.03999  0.66132  1.0000
  H   H400      1.0  0.51789  0.21891  0.77707  1.0000
  H   H401      1.0  0.42214  0.49761  0.70974  1.0000
  H   H402      1.0  0.61564  0.44741  0.89601  1.0000
  H   H403      1.0  0.49448  0.29242  0.76232  1.0000
  H   H404      1.0  0.38300  0.24541  0.66407  1.0000
  H   H405      1.0  0.45322  0.25245  0.63958  1.0000
  H   H406      1.0  0.54892  0.45100  0.92486  1.0000
  H   H407      1.0  0.47647  0.17862  0.65459  1.0000
  H   H408      1.0  0.48717  0.06126  0.58330  1.0000
  C   C217      1.0  0.49848  0.19356  0.71706  1.0000
  C   C218      1.0  0.48018  0.20342  0.67824  1.0000
  C   C219      1.0  0.46691  0.24518  0.66971  1.0000
  C   C220      1.0  0.47174  0.27746  0.70011  1.0000
  C   C221      1.0  0.49029  0.26763  0.73875  1.0000
  C   C222      1.0  0.50373  0.22598  0.74714  1.0000
  C   C223      1.0  0.35668  0.08863  0.50551  1.0000
  H   H409      1.0  0.60300  0.27970  0.67552  1.0000
  H   H410      1.0  0.38047  0.29681  0.71038  1.0000
  H   H411      1.0  0.45137  0.22359  0.53152  1.0000
  H   H412      1.0  0.44793  0.48270  0.52998  1.0000
  H   H413      1.0  0.62273  0.08559  0.65769  1.0000
  C   C224      1.0  0.62826  0.31222  0.91486  1.0000
  H   H414      1.0  0.57774  0.30528  0.48760  1.0000
  H   H415      1.0  0.57375  0.10573  0.66136  1.0000
  N   N14       1.0  0.63069  0.35530  0.89289  1.0000
  C   C225      1.0  0.59429  0.38104  0.90092  1.0000
  H   H416      1.0  0.51862  0.34165  0.50890  1.0000
  H   H417      1.0  0.60177  0.29521  0.83006  1.0000
  H   H418      1.0  0.35083  0.10281  0.58546  1.0000
  C   C226      1.0  0.59549  0.09114  0.63971  1.0000
  C   C227      1.0  0.59321  0.42664  0.88153  1.0000
  H   H419      1.0  0.46383  0.16910  0.54455  1.0000
  C   C228      1.0  0.58749  0.29163  0.91991  1.0000
  H   H420      1.0  0.66491  0.32950  0.84122  1.0000
  H   H421      1.0  0.56117  0.23175  0.93946  1.0000
  C   C229      1.0  0.55414  0.44821  0.89003  1.0000
  H   H422      1.0  0.60354  0.32457  0.53260  1.0000
  H   H423      1.0  0.64763  0.27348  0.51156  1.0000
  H   H424      1.0  0.56826  0.36432  0.88866  1.0000
  H   H425      1.0  0.63978  0.31421  0.94801  1.0000
  C   C230      1.0  0.60422  0.12408  0.60514  1.0000
  C   C231      1.0  0.48600  0.03812  0.55775  1.0000
  C   C232      1.0  0.39638  0.06696  0.64406  1.0000
  H   H426      1.0  0.52620  0.25228  0.49658  1.0000
  C   C233      1.0  0.37939  0.19136  0.59282  1.0000
  H   H427      1.0  0.57876  0.34654  0.82152  1.0000
  H   H428      1.0  0.50788  0.39422  0.74177  1.0000
  C   C234      1.0  0.41726  0.17310  0.80326  1.0000
  H   H429      1.0  0.64393  0.30558  0.76826  1.0000
  H   H430      1.0  0.46368  0.01188  0.70937  1.0000
  C   C235      1.0  0.54009  0.02782  0.68015  1.0000
  H   H431      1.0  0.55835  0.39513  0.75640  1.0000
  H   H432      1.0  0.57081  0.29155  0.88985  1.0000
  H   H433      1.0  0.57036  0.30960  0.94403  1.0000
  H   H434      1.0  0.60621  0.24373  0.96614  1.0000
  H   H435      1.0  0.41065  0.05160  0.57989  1.0000
  H   H436      1.0  0.59230  0.23003  0.49802  1.0000
  S   S62       1.0  0.35174  0.35600  0.64515  1.0000
  C   C236      1.0  0.49643  0.48268  0.74306  1.0000
  C   C237      1.0  0.58016  0.04907  0.61980  1.0000
  H   H437      1.0  0.59767  0.42581  0.84652  1.0000
  C   C238      1.0  0.36582  0.28726  0.74020  1.0000
  C   C239      1.0  0.37878  0.18618  0.78281  1.0000
  C   C240      1.0  0.50259  0.04801  0.51803  1.0000
  H   H438      1.0  0.64625  0.38091  0.83104  1.0000
  H   H439      1.0  0.61603  0.15335  0.62017  1.0000
  C   C241      1.0  0.46580  0.48583  0.50183  1.0000
  H   H440      1.0  0.48048  0.19175  0.49522  1.0000
  C   C242      1.0  0.38410  0.19461  0.73447  1.0000
  H   H441      1.0  0.50402  0.48755  0.70889  1.0000
  N   N15       1.0  0.56629  0.27057  0.54614  1.0000
  C   C243      1.0  0.59613  0.23801  0.53239  1.0000
  C   C244      1.0  0.52664  0.25573  0.53198  1.0000
  C   C245      1.0  0.57496  0.31155  0.52249  1.0000
  C   C246      1.0  0.56710  0.27948  0.59359  1.0000
  C   C247      1.0  0.57876  0.24207  0.62353  1.0000
  C   C248      1.0  0.54494  0.34819  0.52824  1.0000
  C   C249      1.0  0.51139  0.21371  0.55170  1.0000
  C   C250      1.0  0.56126  0.39103  0.51338  1.0000
  C   C251      1.0  0.57924  0.25642  0.67007  1.0000
  H   H442      1.0  0.37361  0.50526  0.50425  1.0000
  H   H443      1.0  0.59200  0.20725  0.54916  1.0000
  H   H444      1.0  0.50411  0.27993  0.53990  1.0000
  H   H445      1.0  0.41489  0.09993  0.53148  1.0000
  H   H446      1.0  0.66161  0.19257  0.56502  1.0000
  H   H447      1.0  0.58771  0.30589  0.60086  1.0000
  H   H448      1.0  0.53824  0.29140  0.60452  1.0000
  H   H449      1.0  0.60839  0.23035  0.61643  1.0000
  H   H450      1.0  0.55867  0.21474  0.62074  1.0000
  H   H451      1.0  0.37049  0.35190  0.76430  1.0000
  H   H452      1.0  0.53605  0.35177  0.56205  1.0000
  H   H453      1.0  0.47021  0.46194  0.74255  1.0000
  H   H454      1.0  0.53265  0.18735  0.54926  1.0000
  H   H455      1.0  0.50385  0.21897  0.58565  1.0000
  H   H456      1.0  0.43858  0.19958  0.80115  1.0000
  H   H457      1.0  0.62605  0.11162  0.58220  1.0000
  C   C252      1.0  0.52907  0.45593  0.76420  1.0000
  C   C253      1.0  0.34883  0.06765  0.58154  1.0000
  H   H458      1.0  0.58398  0.22842  0.69119  1.0000
  H   H459      1.0  0.66847  0.41078  0.89617  1.0000
  H   H460      1.0  0.58950  0.38432  0.93593  1.0000
  H   H461      1.0  0.57727  0.13249  0.58762  1.0000
  H   H462      1.0  0.58772  0.39955  0.53166  1.0000
  C   C254      1.0  0.66426  0.37954  0.91223  1.0000
  H   H463      1.0  0.40943  0.21608  0.72980  1.0000
  Fe  Fe33      1.0  0.34844  0.32858  0.57922  1.0000
  H   H464      1.0  0.55347  0.05710  0.60164  1.0000
  H   H465      1.0  0.55129  0.27156  0.67885  1.0000
  C   C255      1.0  0.40150  0.08891  0.50136  1.0000
  H   H466      1.0  0.65798  0.38697  0.94632  1.0000
  C   C256      1.0  0.60637  0.32849  0.81934  1.0000
  H   H467      1.0  0.37071  0.06904  0.66539  1.0000
  H   H468      1.0  0.64734  0.28862  0.89848  1.0000
  H   H469      1.0  0.42957  0.14446  0.78722  1.0000
  H   H470      1.0  0.41264  0.16542  0.83744  1.0000
  H   H471      1.0  0.36800  0.21480  0.79990  1.0000
  H   H472      1.0  0.60637  0.22565  0.91135  1.0000
  C   C257      1.0  0.53487  0.41360  0.74080  1.0000
  C   C258      1.0  0.50861  0.02566  0.94884  1.0000
  C   C259      1.0  0.63914  0.25176  0.53795  1.0000
  C   C260      1.0  0.59065  0.24542  0.93520  1.0000
  S   S63       1.0  0.45115  0.39985  0.48701  1.0000
  C   C261      1.0  0.47443  0.19886  0.52929  1.0000
  H   H473      1.0  0.35782  0.15979  0.78796  1.0000
  C   C262      1.0  0.37569  0.18191  0.64035  1.0000
  C   C263      1.0  0.63877  0.34976  0.84595  1.0000
  Fe  Fe34      1.0  0.35624  0.41931  0.61172  1.0000
  C   C264      1.0  0.38568  0.04735  0.60110  1.0000
  H   H474      1.0  0.39418  0.22236  0.58740  1.0000
  H   H475      1.0  0.53011  0.42981  0.87534  1.0000
  H   H476      1.0  0.59362  0.31146  0.75387  1.0000
  H   H477      1.0  0.55000  0.05509  0.70005  1.0000
  H   H478      1.0  0.64378  0.26918  0.56829  1.0000
  H   H479      1.0  0.66202  0.19433  0.50738  1.0000
  H   H480      1.0  0.62371  0.35827  0.75930  1.0000
  H   H481      1.0  0.54313  0.41923  0.70704  1.0000
  S   S64       1.0  0.34833  0.39227  0.54584  1.0000
  H   H482      1.0  0.52164  0.44835  0.79772  1.0000
  H   H483      1.0  0.44941  0.48943  0.80719  1.0000
  H   H484      1.0  0.55435  0.48086  0.87621  1.0000
  S   S65       1.0  0.52641  0.09786  0.51138  1.0000
  H   H485      1.0  0.41861  0.04673  0.65978  1.0000
  H   H486      1.0  0.49429  0.50443  0.82969  1.0000
  C   C265      1.0  0.66652  0.21333  0.53688  1.0000
  H   H487      1.0  0.38103  0.01262  0.60602  1.0000
  H   H488      1.0  0.39661  0.16585  0.57715  1.0000
  H   H489      1.0  0.53931  0.41648  0.51871  1.0000
  H   H490      1.0  0.55719  0.47312  0.76383  1.0000
  H   H491      1.0  0.60160  0.03961  0.59520  1.0000
  H   H492      1.0  0.48502  0.45122  0.97519  1.0000
  H   H493      1.0  0.35670  0.15370  0.64398  1.0000
  H   H494      1.0  0.41316  0.05704  0.49285  1.0000
  H   H495      1.0  0.49123  0.04091  0.74888  1.0000
  H   H496      1.0  0.61462  0.02847  0.69865  1.0000
  C   C266      1.0  0.50004  0.01802  0.48510  1.0000
  N   N16       1.0  0.57189  0.01295  0.65038  1.0000
  N   N17       1.0  0.34899  0.21173  0.71139  1.0000
  C   C267      1.0  0.34768  0.32729  0.75975  1.0000
  H   H497      1.0  0.65204  0.01285  0.62781  1.0000
  H   H498      1.0  0.34838  0.12152  0.51538  1.0000
  H   H499      1.0  0.35024  0.19203  0.57787  1.0000
  H   H500      1.0  0.65239  0.02221  0.93555  1.0000
  Fe  Fe35      1.0  0.62175  0.56749  0.31882  1.0000
  S   S66       1.0  0.62947  0.59882  0.38298  1.0000
  H   H501      1.0  0.51480  0.86076  0.04440  1.0000
  Fe  Fe36      1.0  0.55530  0.62837  0.29349  1.0000
  S   S67       1.0  0.55782  0.66252  0.35592  1.0000
  S   S68       1.0  0.51124  0.64348  0.24175  1.0000
  Fe  Fe37      1.0  0.62267  0.66083  0.34684  1.0000
  S   S69       1.0  0.65281  0.72565  0.34832  1.0000
  Fe  Fe38      1.0  0.56388  0.59732  0.38583  1.0000
  S   S70       1.0  0.52793  0.58068  0.44480  1.0000
  S   S71       1.0  0.61964  0.62927  0.28228  1.0000
  S   S72       1.0  0.55660  0.56323  0.32368  1.0000
  H   H502      1.0  0.57906  0.77841  0.38179  1.0000
  C   C268      1.0  0.52114  0.78704  0.35850  1.0000
  Fe  Fe39      1.0  0.42152  0.84963  0.13557  1.0000
  S   S73       1.0  0.41805  0.81690  0.07207  1.0000
  S   S74       1.0  0.46478  0.83234  0.18786  1.0000
  Fe  Fe40      1.0  0.41536  0.88284  0.04325  1.0000
  H   H503      1.0  0.59439  0.73504  0.01028  1.0000
  H   H504      1.0  0.36114  0.59602  0.14996  1.0000
  S   S75       1.0  0.42355  0.91535  0.10625  1.0000
  H   H505      1.0  0.36135  0.67000  0.15163  1.0000
  C   C269      1.0  0.52783  0.81696  0.09646  1.0000
  H   H506      1.0  0.53782  0.72694  0.27129  1.0000
  C   C270      1.0  0.50667  0.53011  0.45557  1.0000
  H   H507      1.0  0.42756  0.53933  0.18862  1.0000
  H   H508      1.0  0.51891  0.80041  0.24957  1.0000
  H   H509      1.0  0.58736  0.92897  0.36487  1.0000
  H   H510      1.0  0.43196  0.74941  0.16643  1.0000
  H   H511      1.0  0.54857  0.86821  0.35619  1.0000
  H   H512      1.0  0.45045  0.67581  0.18840  1.0000
  H   H513      1.0  0.49666  0.81258  0.10303  1.0000
  C   C271      1.0  0.49577  0.69630  0.23098  1.0000
  C   C272      1.0  0.46534  0.70297  0.20194  1.0000
  C   C273      1.0  0.45462  0.74456  0.18960  1.0000
  C   C274      1.0  0.47418  0.77988  0.20622  1.0000
  C   C275      1.0  0.50365  0.77326  0.23647  1.0000
  C   C276      1.0  0.51440  0.73166  0.24885  1.0000
  H   H514      1.0  0.57805  0.97959  0.47269  1.0000
  H   H515      1.0  0.49994  0.59187  0.16716  1.0000
  C   C277      1.0  0.61334  0.54528  0.15880  1.0000
  C   C278      1.0  0.34665  0.57285  0.07152  1.0000
  C   C279      1.0  0.36291  0.60800  0.23129  1.0000
  Fe  Fe41      1.0  0.35326  0.82185  0.08045  1.0000
  H   H516      1.0  0.40072  0.59904  0.28581  1.0000
  C   C280      1.0  0.43558  0.67790  0.08456  1.0000
  H   H517      1.0  0.61337  0.52980  0.12702  1.0000
  H   H518      1.0  0.66849  0.89240  0.43657  1.0000
  N   N18       1.0  0.60805  0.86512  0.37869  1.0000
  H   H519      1.0  0.62054  0.60855  0.13064  1.0000
  C   C281      1.0  0.56736  0.84751  0.37636  1.0000
  H   H520      1.0  0.64675  0.68377  0.00773  1.0000
  C   C282      1.0  0.60572  0.91219  0.38875  1.0000
  C   C283      1.0  0.58853  0.92385  0.43303  1.0000
  H   H521      1.0  0.63317  0.83185  0.25222  1.0000
  H   H522      1.0  0.50766  0.78897  0.39062  1.0000
  C   C284      1.0  0.50023  0.55180  0.01333  1.0000
  H   H523      1.0  0.57573  0.79690  0.32768  1.0000
  S   S76       1.0  0.52646  0.59965  0.00351  1.0000
  C   C285      1.0  0.59085  0.97189  0.44113  1.0000
  C   C286      1.0  0.48539  0.56055  0.17072  1.0000
  S   S77       1.0  0.35698  0.85131  0.14563  1.0000
  C   C287      1.0  0.62919  0.85951  0.33694  1.0000
  H   H524      1.0  0.60642  0.91315  0.29903  1.0000
  H   H525      1.0  0.60195  0.65388  0.00684  1.0000
  H   H526      1.0  0.57895  0.86465  0.29309  1.0000
  H   H527      1.0  0.63494  0.80739  0.40243  1.0000
  C   C288      1.0  0.56366  0.80078  0.36022  1.0000
  Fe  Fe42      1.0  0.35832  0.91382  0.11055  1.0000
  H   H528      1.0  0.35276  0.93909  0.44021  1.0000
  C   C289      1.0  0.53215  0.86007  0.07420  1.0000
  C   C290      1.0  0.63000  0.84103  0.41266  1.0000
  H   H529      1.0  0.46009  0.97670  0.03093  1.0000
  H   H530      1.0  0.43007  0.59239  0.16640  1.0000
  H   H531      1.0  0.62154  0.98274  0.44097  1.0000
  C   C291      1.0  0.62061  0.67485  0.02645  1.0000
  C   C292      1.0  0.60857  0.87784  0.29697  1.0000
  H   H532      1.0  0.61245  0.83842  0.44234  1.0000
  C   C293      1.0  0.63124  0.86702  0.25649  1.0000
  H   H533      1.0  0.55750  0.91457  0.43490  1.0000
  H   H534      1.0  0.39617  0.65522  0.46652  1.0000
  H   H535      1.0  0.55776  0.57245  0.14771  1.0000
  C   C294      1.0  0.44479  0.56924  0.18770  1.0000
  H   H536      1.0  0.47388  0.57660  0.07039  1.0000
  H   H537      1.0  0.51923  0.75349  0.34728  1.0000
  C   C295      1.0  0.50295  0.51635  0.98637  1.0000
  N   N19       1.0  0.53709  0.73538  0.08493  1.0000
  C   C296      1.0  0.54474  0.78014  0.06898  1.0000
  C   C297      1.0  0.55744  0.70289  0.05711  1.0000
  C   C298      1.0  0.49383  0.72768  0.08144  1.0000
  C   C299      1.0  0.54856  0.73000  0.13100  1.0000
  C   C300      1.0  0.59192  0.73678  0.14156  1.0000
  H   H538      1.0  0.51293  0.54782  0.23162  1.0000
  C   C301      1.0  0.47973  0.68105  0.08860  1.0000
  C   C302      1.0  0.59808  0.71478  0.03913  1.0000
  H   H539      1.0  0.37806  0.57912  0.07643  1.0000
  C   C303      1.0  0.59886  0.73695  0.18967  1.0000
  H   H540      1.0  0.63562  0.82515  0.33105  1.0000
  H   H541      1.0  0.53350  0.78348  0.03584  1.0000
  H   H542      1.0  0.57614  0.78707  0.06659  1.0000
  H   H543      1.0  0.55975  0.67184  0.07434  1.0000
  H   H544      1.0  0.53974  0.69579  0.02817  1.0000
  H   H545      1.0  0.48316  0.73759  0.04936  1.0000
  H   H546      1.0  0.47773  0.74762  0.10474  1.0000
  H   H547      1.0  0.53114  0.75161  0.15152  1.0000
  H   H548      1.0  0.54150  0.69738  0.14245  1.0000
  H   H549      1.0  0.60271  0.76753  0.12878  1.0000
  H   H550      1.0  0.60929  0.71006  0.12821  1.0000
  H   H551      1.0  0.55355  0.84827  0.40843  1.0000
  H   H552      1.0  0.54326  0.81893  0.12747  1.0000
  H   H553      1.0  0.48780  0.66917  0.12060  1.0000
  H   H554      1.0  0.49230  0.65905  0.06465  1.0000
  H   H555      1.0  0.61643  0.73272  0.06171  1.0000
  C   C304      1.0  0.47670  0.54906  0.04986  1.0000
  H   H556      1.0  0.38322  0.63091  0.21619  1.0000
  H   H557      1.0  0.48228  0.54606  0.13888  1.0000
  C   C305      1.0  0.47314  0.98075  0.99984  1.0000
  H   H558      1.0  0.63040  0.73971  0.19631  1.0000
  H   H559      1.0  0.58391  0.76457  0.20468  1.0000
  H   H560      1.0  0.58813  0.70688  0.20432  1.0000
  H   H561      1.0  0.62989  0.65695  0.05522  1.0000
  H   H562      1.0  0.56306  0.86672  0.06673  1.0000
  H   H563      1.0  0.61612  0.88074  0.22840  1.0000
  H   H564      1.0  0.47920  0.95580  0.46618  1.0000
  H   H565      1.0  0.34983  0.77472  0.20879  1.0000
  H   H566      1.0  0.63475  0.92745  0.38568  1.0000
  H   H567      1.0  0.42620  0.68718  0.05198  1.0000
  H   H568      1.0  0.52108  0.88575  0.09545  1.0000
  H   H569      1.0  0.57226  0.57466  0.20216  1.0000
  H   H570      1.0  0.42097  0.69895  0.10810  1.0000
  H   H571      1.0  0.42627  0.64450  0.09045  1.0000
  C   C306      1.0  0.57114  0.55330  0.17365  1.0000
  H   H572      1.0  0.44636  0.58311  0.22023  1.0000
  C   C307      1.0  0.37011  0.60817  0.27933  1.0000
  H   H573      1.0  0.65806  0.87528  0.33829  1.0000
  H   H574      1.0  0.36966  0.57539  0.21953  1.0000
  H   H575      1.0  0.66096  0.88066  0.25798  1.0000
  H   H576      1.0  0.39473  0.95709  0.46903  1.0000
  H   H577      1.0  0.60437  0.90782  0.45923  1.0000
  S   S78       1.0  0.34991  0.88479  0.04558  1.0000
  H   H578      1.0  0.63706  0.60416  0.18527  1.0000
  H   H579      1.0  0.50461  0.80747  0.33596  1.0000
  C   C308      1.0  0.50848  0.53061  0.20085  1.0000
  H   H580      1.0  0.57454  0.98971  0.41631  1.0000
  H   H581      1.0  0.36506  0.64053  0.29272  1.0000
  H   H582      1.0  0.36530  0.75243  0.15849  1.0000
  C   C309      1.0  0.67050  0.85916  0.42463  1.0000
  C   C310      1.0  0.63525  0.58745  0.15408  1.0000
  H   H583      1.0  0.66522  0.58107  0.14267  1.0000
  H   H584      1.0  0.62978  0.52545  0.18180  1.0000
  C   C311      1.0  0.36288  0.95210  0.47118  1.0000
  H   H585      1.0  0.35969  0.69987  0.22123  1.0000
  H   H586      1.0  0.38122  0.70992  0.47629  1.0000
  H   H587      1.0  0.58024  0.83692  0.98524  1.0000
  S   S79       1.0  0.44976  0.89728  0.98239  1.0000
  H   H588      1.0  0.35075  0.58485  0.29542  1.0000
  N   N20       1.0  0.54674  0.51449  0.18354  1.0000
  Fe  Fe43      1.0  0.61026  0.58677  0.86794  1.0000
  S   S80       1.0  0.62339  0.61099  0.93367  1.0000
  C   C312      1.0  0.48116  0.97866  0.49195  1.0000
  Fe  Fe44      1.0  0.54716  0.65386  0.85181  1.0000
  S   S81       1.0  0.55518  0.68249  0.91672  1.0000
  S   S82       1.0  0.49978  0.67108  0.80388  1.0000
  Fe  Fe45      1.0  0.61935  0.67633  0.90373  1.0000
  C   C313      1.0  0.41925  0.94343  0.83249  1.0000
  Fe  Fe46      1.0  0.55843  0.61511  0.94154  1.0000
  C   C314      1.0  0.50723  0.99218  0.91933  1.0000
  S   S83       1.0  0.61108  0.65165  0.83682  1.0000
  S   S84       1.0  0.54566  0.58672  0.87771  1.0000
  C   C315      1.0  0.47088  0.51594  0.80813  1.0000
  C   C316      1.0  0.36687  0.76690  0.81861  1.0000
  Fe  Fe47      1.0  0.40962  0.87332  0.69154  1.0000
  S   S85       1.0  0.40943  0.83670  0.63027  1.0000
  S   S86       1.0  0.45261  0.85919  0.74491  1.0000
  Fe  Fe48      1.0  0.40524  0.90091  0.59788  1.0000
  S   S87       1.0  0.44062  0.91917  0.53897  1.0000
  H   H589      1.0  0.39111  0.82616  0.79965  1.0000
  S   S88       1.0  0.40993  0.93739  0.65886  1.0000
  H   H590      1.0  0.45349  0.58132  0.74986  1.0000
  H   H591      1.0  0.46821  0.82839  0.91639  1.0000
  H   H592      1.0  0.53040  0.75549  0.82591  1.0000
  C   C317      1.0  0.48946  0.95309  0.93029  1.0000
  C   C318      1.0  0.46466  0.96879  0.53175  1.0000
  H   H593      1.0  0.51105  0.82816  0.80231  1.0000
  H   H594      1.0  0.56408  0.86808  0.83001  1.0000
  H   H595      1.0  0.42567  0.77453  0.71867  1.0000
  H   H596      1.0  0.48889  0.92733  0.90744  1.0000
  H   H597      1.0  0.44434  0.70183  0.74291  1.0000
  H   H598      1.0  0.38446  0.00763  0.52945  1.0000
  C   C319      1.0  0.48862  0.72356  0.78628  1.0000
  C   C320      1.0  0.45918  0.72936  0.75577  1.0000
  C   C321      1.0  0.44853  0.77058  0.74195  1.0000
  C   C322      1.0  0.46705  0.80652  0.75877  1.0000
  C   C323      1.0  0.49676  0.80067  0.78893  1.0000
  C   C324      1.0  0.50764  0.75946  0.80253  1.0000
  H   H599      1.0  0.35243  0.75061  0.84553  1.0000
  H   H600      1.0  0.38202  0.84812  0.93271  1.0000
  H   H601      1.0  0.51856  0.96292  0.69728  1.0000
  H   H602      1.0  0.62879  0.86447  0.93368  1.0000
  H   H603      1.0  0.37267  0.65817  0.69030  1.0000
  C   C325      1.0  0.52314  0.55170  0.76928  1.0000
  C   C326      1.0  0.41736  0.86738  0.86106  1.0000
  C   C327      1.0  0.46770  0.99852  0.56475  1.0000
  H   H604      1.0  0.66856  0.98500  0.97600  1.0000
  H   H605      1.0  0.39482  0.75029  0.81244  1.0000
  C   C328      1.0  0.61837  0.96365  0.93934  1.0000
  S   S89       1.0  0.63603  0.52576  0.84114  1.0000
  H   H606      1.0  0.43515  0.95473  0.86107  1.0000
  C   C329      1.0  0.36263  0.51891  0.53465  1.0000
  H   H607      1.0  0.59953  0.59277  0.70826  1.0000
  C   C330      1.0  0.44927  0.80008  0.92041  1.0000
  C   C331      1.0  0.64774  0.88954  0.84557  1.0000
  H   H608      1.0  0.67199  0.95637  0.70456  1.0000
  H   H609      1.0  0.40537  0.51605  0.76076  1.0000
  C   C332      1.0  0.64363  0.98839  0.65154  1.0000
  C   C333      1.0  0.48299  0.52542  0.49184  1.0000
  C   C334      1.0  0.64202  0.93938  0.90498  1.0000
  H   H610      1.0  0.36913  0.65868  0.61289  1.0000
  S   S90       1.0  0.64969  0.00243  0.78632  1.0000
  C   C335      1.0  0.52476  0.99415  0.71239  1.0000
  C   C336      1.0  0.47209  0.94717  0.97046  1.0000
  H   H611      1.0  0.47806  0.55260  0.51243  1.0000
  H   H612      1.0  0.36191  0.53919  0.70328  1.0000
  H   H613      1.0  0.45563  0.99112  0.59566  1.0000
  S   S91       1.0  0.65479  0.73472  0.92302  1.0000
  H   H614      1.0  0.42408  0.56377  0.81458  1.0000
  H   H615      1.0  0.41037  0.76079  0.88429  1.0000
  C   C337      1.0  0.47579  0.76196  0.92928  1.0000
  C   C338      1.0  0.55713  0.97399  0.62666  1.0000
  C   C339      1.0  0.37425  0.81493  0.82783  1.0000
  H   H616      1.0  0.43065  0.80471  0.94890  1.0000
  H   H617      1.0  0.44174  0.86150  0.83842  1.0000
  H   H618      1.0  0.52952  0.95572  0.80601  1.0000
  H   H619      1.0  0.44476  0.78759  0.85283  1.0000
  C   C340      1.0  0.57187  0.96666  0.58040  1.0000
  C   C341      1.0  0.55972  0.92276  0.56387  1.0000
  C   C342      1.0  0.41865  0.52627  0.73028  1.0000
  C   C343      1.0  0.39322  0.90560  0.84363  1.0000
  C   C344      1.0  0.58699  0.92800  0.85700  1.0000
  C   C345      1.0  0.36688  0.83431  0.90454  1.0000
  H   H620      1.0  0.56322  0.94443  0.64525  1.0000
  C   C346      1.0  0.64274  0.99878  0.95990  1.0000
  H   H621      1.0  0.47053  0.58260  0.83165  1.0000
  H   H622      1.0  0.67217  0.83442  0.48958  1.0000
  H   H623      1.0  0.58613  0.90334  0.79179  1.0000
  H   H624      1.0  0.51808  0.90683  0.77859  1.0000
  H   H625      1.0  0.40123  0.97018  0.82031  1.0000
  H   H626      1.0  0.63847  0.95751  0.63525  1.0000
  H   H627      1.0  0.47034  0.55363  0.70447  1.0000
  C   C347      1.0  0.52800  0.92049  0.80932  1.0000
  N   N21       1.0  0.48718  0.52469  0.76428  1.0000
  H   H628      1.0  0.42033  0.51601  0.87810  1.0000
  H   H629      1.0  0.44028  0.93436  0.80723  1.0000
  H   H630      1.0  0.60380  0.96889  0.57779  1.0000
  H   H631      1.0  0.56815  0.91942  0.52990  1.0000
  H   H632      1.0  0.57415  0.89710  0.58244  1.0000
  H   H633      1.0  0.52777  0.91868  0.56625  1.0000
  N   N22       1.0  0.62034  0.90627  0.87935  1.0000
  H   H634      1.0  0.51538  0.58361  0.78216  1.0000
  H   H635      1.0  0.60949  0.94151  0.96509  1.0000
  H   H636      1.0  0.52960  0.57770  0.70427  1.0000
  C   C348      1.0  0.56764  0.90204  0.82083  1.0000
  H   H637      1.0  0.38442  0.58474  0.72805  1.0000
  H   H638      1.0  0.59234  0.97934  0.92575  1.0000
  H   H639      1.0  0.60030  0.97466  0.69859  1.0000
  C   C349      1.0  0.38373  0.66996  0.53313  1.0000
  H   H640      1.0  0.57378  0.61881  0.75100  1.0000
  H   H641      1.0  0.55914  0.99100  0.55880  1.0000
  H   H642      1.0  0.56412  0.93760  0.87982  1.0000
  H   H643      1.0  0.37102  0.58824  0.59066  1.0000
  N   N23       1.0  0.39523  0.82642  0.86873  1.0000
  H   H644      1.0  0.38837  0.69770  0.55467  1.0000
  H   H645      1.0  0.40188  0.64321  0.54495  1.0000
  H   H646      1.0  0.66687  0.92468  0.92218  1.0000
  H   H647      1.0  0.54408  0.86838  0.90146  1.0000
  H   H648      1.0  0.49639  0.75722  0.90242  1.0000
  H   H649      1.0  0.47785  0.98599  0.75799  1.0000
  H   H650      1.0  0.43090  0.87901  0.89103  1.0000
  C   C350      1.0  0.54702  0.56007  0.72818  1.0000
  H   H651      1.0  0.42694  0.57124  0.89256  1.0000
  H   H652      1.0  0.65356  0.91469  0.82145  1.0000
  C   C351      1.0  0.56640  0.87127  0.92677  1.0000
  C   C352      1.0  0.44088  0.54327  0.87703  1.0000
  C   C353      1.0  0.60776  0.86920  0.90714  1.0000
  C   C354      1.0  0.42444  0.79225  0.87994  1.0000
  C   C355      1.0  0.35357  0.56631  0.52885  1.0000
  C   C356      1.0  0.45128  0.55437  0.83096  1.0000
  C   C357      1.0  0.58269  0.58729  0.73795  1.0000
  H   H653      1.0  0.40117  0.56598  0.67648  1.0000
  H   H654      1.0  0.60182  0.57097  0.76134  1.0000
  H   H655      1.0  0.56113  0.90155  0.94397  1.0000
  H   H656      1.0  0.35666  0.92826  0.49649  1.0000
  H   H657      1.0  0.60874  0.83855  0.88904  1.0000
  H   H658      1.0  0.63406  0.86280  0.82767  1.0000
  H   H659      1.0  0.54661  0.98899  0.73786  1.0000
  H   H660      1.0  0.59678  0.95864  0.84254  1.0000
  H   H661      1.0  0.49269  0.76777  0.95881  1.0000
  C   C358      1.0  0.55973  0.83467  0.95806  1.0000
  H   H662      1.0  0.37716  0.89709  0.81423  1.0000
  H   H663      1.0  0.42925  0.69233  0.49088  1.0000
  H   H664      1.0  0.56362  0.80335  0.94192  1.0000
  H   H665      1.0  0.46735  0.53500  0.89547  1.0000
  H   H666      1.0  0.45853  0.73239  0.93381  1.0000
  H   H667      1.0  0.52491  0.97505  0.62366  1.0000
  H   H668      1.0  0.50645  0.91237  0.83430  1.0000
  H   H669      1.0  0.65489  0.96363  0.88303  1.0000
  H   H670      1.0  0.54310  0.53765  0.79342  1.0000
  H   H671      1.0  0.34540  0.85908  0.89521  1.0000
  H   H672      1.0  0.35569  0.77593  0.75067  1.0000
  C   C359      1.0  0.45842  0.54857  0.73700  1.0000
  H   H673      1.0  0.55735  0.52987  0.71363  1.0000
  H   H674      1.0  0.52086  0.51809  0.95811  1.0000
  H   H675      1.0  0.38510  0.51419  0.55957  1.0000
  C   C360      1.0  0.39830  0.68262  0.48890  1.0000
  H   H676      1.0  0.52964  0.83659  0.97062  1.0000
  C   C361      1.0  0.38991  0.55604  0.70814  1.0000
  C   C362      1.0  0.60697  0.00173  0.67683  1.0000
  H   H677      1.0  0.51976  0.99657  0.88805  1.0000
  H   H678      1.0  0.34588  0.83191  0.82605  1.0000
  H   H679      1.0  0.37207  0.91678  0.86788  1.0000
  C   C363      1.0  0.48714  0.00933  0.73343  1.0000
  H   H680      1.0  0.36089  0.76723  0.92605  1.0000
  H   H681      1.0  0.37962  0.58137  0.51453  1.0000
  C   C364      1.0  0.35264  0.01128  0.52563  1.0000
  Fe  Fe49      1.0  0.86157  0.40863  0.32708  1.0000
  S   S92       1.0  0.86401  0.38364  0.39456  1.0000
  H   H682      1.0  0.85256  0.16848  0.46222  1.0000
  Fe  Fe50      1.0  0.92104  0.34303  0.29403  1.0000
  S   S93       1.0  0.92807  0.31394  0.35868  1.0000
  S   S94       1.0  0.95269  0.32551  0.23262  1.0000
  Fe  Fe51      1.0  0.86291  0.31866  0.36343  1.0000
  S   S95       1.0  0.83405  0.25733  0.38593  1.0000
  Fe  Fe52      1.0  0.92866  0.38122  0.38427  1.0000
  C   C365      1.0  0.70380  0.19483  0.29484  1.0000
  S   S96       1.0  0.85575  0.34384  0.29663  1.0000
  S   S97       1.0  0.92652  0.41007  0.31899  1.0000
  H   H683      1.0  0.85216  0.16557  0.38103  1.0000
  H   H684      1.0  0.97699  0.24151  0.99718  1.0000
  H   H685      1.0  0.81185  0.12749  0.33059  1.0000
  H   H686      1.0  0.90065  0.19891  0.24079  1.0000
  H   H687      1.0  0.83919  0.16604  0.27090  1.0000
  C   C366      1.0  0.89826  0.07452  0.34451  1.0000
  H   H688      1.0  0.94411  0.41877  0.20219  1.0000
  C   C367      1.0  0.78217  0.47998  0.30762  1.0000
  C   C368      1.0  0.97718  0.27664  0.22250  1.0000
  C   C369      1.0  0.98349  0.24635  0.25449  1.0000
  H   H689      1.0  0.77067  0.36244  0.25614  1.0000
  H   H690      1.0  0.90047  0.15116  0.39092  1.0000
  C   C370      1.0  0.82774  0.07504  0.28787  1.0000
  H   H691      1.0  0.97335  0.25253  0.28651  1.0000
  H   H692      1.0  0.89607  0.28470  0.06085  1.0000
  C   C371      1.0  0.70333  0.24327  0.41239  1.0000
  C   C372      1.0  0.72030  0.28400  0.41038  1.0000
  C   C373      1.0  0.76001  0.28885  0.40086  1.0000
  C   C374      1.0  0.78338  0.25287  0.39457  1.0000
  C   C375      1.0  0.76644  0.21210  0.39682  1.0000
  C   C376      1.0  0.72651  0.20731  0.40521  1.0000
  C   C377      1.0  0.99115  0.26838  0.18117  1.0000
  H   H693      1.0  0.77275  0.32038  0.39958  1.0000
  H   H694      1.0  0.78419  0.18403  0.39218  1.0000
  H   H695      1.0  0.71381  0.17577  0.40681  1.0000
  H   H696      1.0  0.86470  0.49346  0.20222  1.0000
  H   H697      1.0  0.77019  0.04991  0.30240  1.0000
  H   H698      1.0  0.95507  0.10694  0.34586  1.0000
  C   C378      1.0  0.96966  0.24318  0.44478  1.0000
  C   C379      1.0  0.75550  0.44673  0.31248  1.0000
  C   C380      1.0  0.71535  0.45514  0.31026  1.0000
  H   H699      1.0  0.69047  0.18038  0.32362  1.0000
  N   N24       1.0  0.87269  0.11358  0.34154  1.0000
  H   H700      1.0  0.76588  0.41451  0.31718  1.0000
  H   H701      1.0  0.84871  0.34151  0.14521  1.0000
  H   H702      1.0  0.00312  0.37436  0.17277  1.0000
  C   C381      1.0  0.93920  0.08186  0.36368  1.0000
  H   H703      1.0  0.99791  0.44329  0.25924  1.0000
  H   H704      1.0  0.91509  0.46880  0.09600  1.0000
  H   H705      1.0  0.90264  0.06033  0.31231  1.0000
  C   C382      1.0  0.71647  0.33363  0.27649  1.0000
  H   H706      1.0  0.76879  0.06305  0.41126  1.0000
  C   C383      1.0  0.71203  0.04730  0.38753  1.0000
  H   H707      1.0  0.84530  0.44399  0.14862  1.0000
  H   H708      1.0  0.90559  0.29727  0.45771  1.0000
  H   H709      1.0  0.70269  0.31199  0.41623  1.0000
  H   H710      1.0  0.84976  0.49960  0.10673  1.0000
  H   H711      1.0  0.86348  0.23720  0.25444  1.0000
  N   N25       1.0  0.90538  0.45748  0.16329  1.0000
  H   H712      1.0  0.93983  0.24423  0.43128  1.0000
  H   H713      1.0  0.93720  0.09155  0.39762  1.0000
  C   C384      1.0  0.89515  0.48154  0.20346  1.0000
  H   H714      1.0  0.95514  0.06489  0.47336  1.0000
  H   H715      1.0  0.93329  0.47820  0.41623  1.0000
  C   C385      1.0  0.87154  0.13737  0.38335  1.0000
  H   H716      1.0  0.82057  0.07791  0.35527  1.0000
  H   H717      1.0  0.67883  0.30644  0.22961  1.0000
  C   C386      1.0  0.74100  0.35718  0.24339  1.0000
  C   C387      1.0  0.00334  0.20807  0.24508  1.0000
  C   C388      1.0  0.83207  0.09973  0.33044  1.0000
  H   H718      1.0  0.72801  0.38880  0.23599  1.0000
  H   H719      1.0  0.73160  0.30322  0.28388  1.0000
  S   S98       1.0  0.97466  0.39850  0.43358  1.0000
  C   C389      1.0  0.92050  0.26477  0.04902  1.0000
  C   C390      1.0  0.98752  0.47358  0.04391  1.0000
  C   C391      1.0  0.94337  0.43438  0.17030  1.0000
  C   C392      1.0  0.96182  0.46555  0.01010  1.0000
  C   C393      1.0  0.85686  0.11155  0.42238  1.0000
  H   H720      1.0  0.94892  0.41073  0.10383  1.0000
  H   H721      1.0  0.94171  0.31386  0.00735  1.0000
  C   C394      1.0  0.98878  0.26705  0.01816  1.0000
  H   H722      1.0  0.69938  0.07758  0.39664  1.0000
  H   H723      1.0  0.89570  0.45960  0.23140  1.0000
  H   H724      1.0  0.88379  0.04879  0.36313  1.0000
  H   H725      1.0  0.84159  0.09207  0.26095  1.0000
  C   C395      1.0  0.88919  0.14305  0.30801  1.0000
  H   H726      1.0  0.73168  0.21006  0.30401  1.0000
  C   C396      1.0  0.96349  0.04106  0.36203  1.0000
  H   H727      1.0  0.71581  0.35342  0.30576  1.0000
  S   S99       1.0  0.83285  0.47043  0.30558  1.0000
  C   C397      1.0  0.95401  0.39968  0.13684  1.0000
  C   C398      1.0  0.86452  0.13554  0.46385  1.0000
  H   H728      1.0  0.78259  0.05002  0.24667  1.0000
  H   H729      1.0  0.93703  0.50693  0.12954  1.0000
  H   H730      1.0  0.89866  0.12489  0.27928  1.0000
  H   H731      1.0  0.69486  0.42921  0.31302  1.0000
  C   C399      1.0  0.99669  0.38667  0.14034  1.0000
  C   C400      1.0  0.75143  0.03903  0.39567  1.0000
  H   H732      1.0  0.96797  0.03061  0.32854  1.0000
  H   H733      1.0  0.82506  0.10670  0.42000  1.0000
  C   C401      1.0  0.88409  0.21333  0.26760  1.0000
  C   C402      1.0  0.70150  0.49698  0.30460  1.0000
  H   H734      1.0  0.91616  0.15843  0.31999  1.0000
  H   H735      1.0  0.80820  0.37413  0.16288  1.0000
  H   H736      1.0  0.84681  0.19533  0.31902  1.0000
  C   C403      1.0  0.95760  0.48515  0.43690  1.0000
  C   C404      1.0  0.78498  0.06832  0.27687  1.0000
  H   H737      1.0  0.98957  0.50626  0.30375  1.0000
  H   H738      1.0  0.89105  0.37652  0.19910  1.0000
  H   H739      1.0  0.85106  0.40872  0.21679  1.0000
  H   H740      1.0  0.87096  0.07985  0.42498  1.0000
  H   H741      1.0  0.90956  0.24454  0.02257  1.0000
  C   C405      1.0  0.95328  0.29363  0.03343  1.0000
  H   H742      1.0  0.84139  0.04300  0.29061  1.0000
  C   C406      1.0  0.86180  0.17923  0.29233  1.0000
  H   H743      1.0  0.93070  0.24406  0.07549  1.0000
  H   H744      1.0  0.89620  0.13671  0.47014  1.0000
  H   H745      1.0  0.90441  0.23034  0.28914  1.0000
  H   H746      1.0  0.96138  0.31450  0.06062  1.0000
  H   H747      1.0  0.74346  0.33815  0.21363  1.0000
  H   H748      1.0  0.69016  0.26961  0.32768  1.0000
  H   H749      1.0  0.93612  0.37066  0.14191  1.0000
  C   C407      1.0  0.87307  0.42660  0.15346  1.0000
  H   H750      1.0  0.96771  0.45768  0.17099  1.0000
  C   C408      1.0  0.86442  0.39307  0.18856  1.0000
  H   H751      1.0  0.83011  0.33598  0.19856  1.0000
  H   H752      1.0  0.87867  0.40984  0.12274  1.0000
  H   H753      1.0  0.71001  0.16894  0.27161  1.0000
  H   H754      1.0  0.99232  0.04690  0.37672  1.0000
  C   C409      1.0  0.98206  0.45206  0.45017  1.0000
  C   C410      1.0  0.83606  0.35919  0.17264  1.0000
  C   C411      1.0  0.98988  0.20529  0.37680  1.0000
  H   H755      1.0  0.96000  0.20824  0.36386  1.0000
  C   C412      1.0  0.91031  0.48727  0.12584  1.0000
  C   C413      1.0  0.98905  0.20279  0.42548  1.0000
  H   H756      1.0  0.00089  0.25036  0.04662  1.0000
  H   H757      1.0  0.00314  0.36112  0.11686  1.0000
  H   H758      1.0  0.77000  0.09945  0.27274  1.0000
  C   C414      1.0  0.01117  0.23025  0.17181  1.0000
  H   H759      1.0  0.98445  0.27192  0.43162  1.0000
  H   H760      1.0  0.94898  0.01511  0.38005  1.0000
  C   C415      1.0  0.68928  0.01668  0.36701  1.0000
  H   H761      1.0  0.69177  0.24109  0.24685  1.0000
  H   H762      1.0  0.00809  0.18480  0.26998  1.0000
  H   H763      1.0  0.99854  0.44725  0.06242  1.0000
  H   H764      1.0  0.98623  0.29143  0.15615  1.0000
  S   S100      1.0  0.94774  0.41202  0.99921  1.0000
  H   H765      1.0  0.00728  0.23317  0.36613  1.0000
  H   H766      1.0  0.00880  0.35008  0.03020  1.0000
  C   C416      1.0  0.94781  0.50011  0.98635  1.0000
  H   H767      1.0  0.97266  0.17361  0.43417  1.0000
  H   H768      1.0  0.00333  0.17589  0.36355  1.0000
  H   H769      1.0  0.95260  0.50895  0.21760  1.0000
  Fe  Fe53      1.0  0.84362  0.42860  0.88601  1.0000
  S   S101      1.0  0.84304  0.39619  0.94982  1.0000
  H   H770      1.0  0.71519  0.35721  0.87643  1.0000
  Fe  Fe54      1.0  0.90389  0.36598  0.84970  1.0000
  S   S102      1.0  0.90788  0.33042  0.91157  1.0000
  S   S103      1.0  0.94188  0.35131  0.79198  1.0000
  Fe  Fe55      1.0  0.84267  0.33518  0.91165  1.0000
  S   S104      1.0  0.80836  0.27644  0.93164  1.0000
  Fe  Fe56      1.0  0.90787  0.39513  0.94345  1.0000
  H   H771      1.0  0.69709  0.22451  0.53732  1.0000
  S   S105      1.0  0.83845  0.36778  0.84792  1.0000
  S   S106      1.0  0.90878  0.43029  0.88149  1.0000
  H   H772      1.0  0.81720  0.27133  0.78285  1.0000
  H   H773      1.0  0.91383  0.02306  0.68466  1.0000
  H   H774      1.0  0.89813  0.02811  0.60824  1.0000
  H   H775      1.0  0.70324  0.32374  0.92123  1.0000
  H   H776      1.0  0.96046  0.20637  0.57604  1.0000
  H   H777      1.0  0.74613  0.08816  0.89583  1.0000
  H   H778      1.0  0.96920  0.31431  0.49051  1.0000
  H   H779      1.0  0.86382  0.24721  0.77327  1.0000
  C   C417      1.0  0.95694  0.29890  0.77845  1.0000
  C   C418      1.0  0.94402  0.26320  0.80109  1.0000
  C   C419      1.0  0.95618  0.22202  0.78890  1.0000
  C   C420      1.0  0.70444  0.35718  0.90980  1.0000
  N   N26       1.0  0.96800  0.24525  0.49279  1.0000
  H   H780      1.0  0.92439  0.26734  0.82770  1.0000
  C   C421      1.0  0.97489  0.03437  0.93827  1.0000
  C   C422      1.0  0.99506  0.04689  0.52303  1.0000
  C   C423      1.0  0.72344  0.26417  0.84228  1.0000
  C   C424      1.0  0.75667  0.27817  0.86418  1.0000
  C   C425      1.0  0.76698  0.25944  0.90295  1.0000
  C   C426      1.0  0.74403  0.22619  0.91928  1.0000
  C   C427      1.0  0.71089  0.21189  0.89716  1.0000
  C   C428      1.0  0.86674  0.03559  0.53311  1.0000
  H   H781      1.0  0.77413  0.30364  0.85115  1.0000
  C   C429      1.0  0.90906  0.29710  0.49285  1.0000
  C   C430      1.0  0.89570  0.34068  0.50919  1.0000
  H   H782      1.0  0.91465  0.20887  0.49090  1.0000
  C   C431      1.0  0.72130  0.02933  0.81527  1.0000
  H   H783      1.0  0.95492  0.29340  0.54038  1.0000
  H   H784      1.0  0.00630  0.24556  0.54732  1.0000
  C   C432      1.0  0.74160  0.46860  0.85226  1.0000
  H   H785      1.0  0.71551  0.27918  0.81250  1.0000
  H   H786      1.0  0.98877  0.33996  0.96029  1.0000
  H   H787      1.0  0.77792  0.04939  0.83634  1.0000
  H   H788      1.0  0.75460  0.43830  0.84383  1.0000
  H   H789      1.0  0.89702  0.34191  0.54453  1.0000
  H   H790      1.0  0.94015  0.19040  0.93370  1.0000
  C   C433      1.0  0.96835  0.03853  0.49020  1.0000
  H   H791      1.0  0.93786  0.14719  0.97150  1.0000
  H   H792      1.0  0.95192  0.05794  0.79723  1.0000
  C   C434      1.0  0.76115  0.02361  0.82304  1.0000
  H   H793      1.0  0.91831  0.23912  0.56691  1.0000
  H   H794      1.0  0.68542  0.01191  0.69812  1.0000
  C   C435      1.0  0.80990  0.13732  0.87143  1.0000
  H   H795      1.0  0.95311  0.03847  0.65027  1.0000
  C   C436      1.0  0.00399  0.30919  0.95417  1.0000
  H   H796      1.0  0.85845  0.18949  0.90384  1.0000
  C   C437      1.0  0.76259  0.10237  0.92272  1.0000
  H   H797      1.0  0.92776  0.49450  0.96045  1.0000
  H   H798      1.0  0.79775  0.16872  0.88124  1.0000
  C   C438      1.0  0.96381  0.33975  0.62888  1.0000
  C   C439      1.0  0.90747  0.17180  0.56894  1.0000
  H   H799      1.0  0.94576  0.19470  0.80631  1.0000
  H   H800      1.0  0.96066  0.06056  0.92237  1.0000
  H   H801      1.0  0.85118  0.05694  0.55566  1.0000
  H   H802      1.0  0.73776  0.41411  0.92630  1.0000
  C   C440      1.0  0.92037  0.16739  0.94963  1.0000
  H   H803      1.0  0.87908  0.17420  0.55239  1.0000
  H   H804      1.0  0.81964  0.12312  0.93892  1.0000
  H   H805      1.0  0.83841  0.23080  0.84592  1.0000
  C   C441      1.0  0.00761  0.33818  0.62110  1.0000
  S   S107      1.0  0.99593  0.16345  0.74015  1.0000
  H   H806      1.0  0.70746  0.05943  0.82276  1.0000
  C   C442      1.0  0.80536  0.10822  0.91100  1.0000
  H   H807      1.0  0.92170  0.14109  0.56036  1.0000
  H   H808      1.0  0.98121  0.28754  0.94128  1.0000
  C   C443      1.0  0.70230  0.47672  0.84287  1.0000
  H   H809      1.0  0.88909  0.27290  0.50634  1.0000
  C   C444      1.0  0.76423  0.50027  0.87149  1.0000
  H   H810      1.0  0.94998  0.36383  0.60779  1.0000
  C   C445      1.0  0.94259  0.20944  0.50861  1.0000
  C   C446      1.0  0.00773  0.24006  0.51233  1.0000
  H   H811      1.0  0.90563  0.03136  0.80179  1.0000
  S   S108      1.0  0.81430  0.49318  0.88106  1.0000
  H   H812      1.0  0.68509  0.45253  0.82725  1.0000
  C   C447      1.0  0.82689  0.21285  0.81819  1.0000
  C   C448      1.0  0.70033  0.23111  0.85868  1.0000
  C   C449      1.0  0.95193  0.28829  0.50546  1.0000
  H   H813      1.0  0.99250  0.32045  0.72638  1.0000
  C   C450      1.0  0.92463  0.05625  0.81592  1.0000
  H   H814      1.0  0.90217  0.17191  0.60387  1.0000
  H   H815      1.0  0.75172  0.21173  0.94940  1.0000
  H   H816      1.0  0.97319  0.04730  0.72386  1.0000
  C   C451      1.0  0.99476  0.25178  0.73185  1.0000
  H   H817      1.0  0.93209  0.04701  0.84905  1.0000
  C   C452      1.0  0.73455  0.38045  0.93680  1.0000
  H   H818      1.0  0.79016  0.12505  0.84608  1.0000
  C   C453      1.0  0.90442  0.09970  0.81517  1.0000
  H   H819      1.0  0.82052  0.22420  0.74997  1.0000
  H   H820      1.0  0.89858  0.18517  0.96880  1.0000
  H   H821      1.0  0.95089  0.30803  0.62202  1.0000
  C   C454      1.0  0.84706  0.16876  0.81338  1.0000
  C   C455      1.0  0.83255  0.24042  0.77852  1.0000
  H   H822      1.0  0.89804  0.10760  0.78136  1.0000
  C   C456      1.0  0.98238  0.29297  0.74388  1.0000
  H   H823      1.0  0.81751  0.07592  0.90554  1.0000
  H   H824      1.0  0.92493  0.12394  0.82739  1.0000
  H   H825      1.0  0.92321  0.12129  0.89962  1.0000
  H   H826      1.0  0.83094  0.15061  0.78846  1.0000
  C   C457      1.0  0.00258  0.04292  0.97005  1.0000
  H   H827      1.0  0.84440  0.08133  0.82228  1.0000
  H   H828      1.0  0.76014  0.08067  0.95056  1.0000
  C   C458      1.0  0.93348  0.20947  0.55707  1.0000
  C   C459      1.0  0.86622  0.09926  0.84148  1.0000
  C   C460      1.0  0.90021  0.13915  0.91669  1.0000
  H   H829      1.0  0.88228  0.11559  0.93396  1.0000
  H   H830      1.0  0.87106  0.07900  0.86995  1.0000
  H   H831      1.0  0.87630  0.17509  0.79973  1.0000
  H   H832      1.0  0.89759  0.18653  0.86771  1.0000
  H   H833      1.0  0.95652  0.17804  0.50193  1.0000
  H   H834      1.0  0.69299  0.18684  0.91039  1.0000
  C   C461      1.0  0.87607  0.16633  0.88491  1.0000
  C   C462      1.0  0.97092  0.01429  0.71117  1.0000
  H   H835      1.0  0.99529  0.11573  0.88323  1.0000
  H   H836      1.0  0.79515  0.20846  0.82247  1.0000
  C   C463      1.0  0.98161  0.21603  0.75431  1.0000
  H   H837      1.0  0.95737  0.34791  0.66263  1.0000
  N   N27       1.0  0.85042  0.14259  0.85371  1.0000
  H   H838      1.0  0.98845  0.32060  0.86754  1.0000
  H   H839      1.0  0.84793  0.03014  0.50486  1.0000
  H   H840      1.0  0.89373  0.05155  0.52233  1.0000
  H   H841      1.0  0.91407  0.36650  0.49573  1.0000
  H   H842      1.0  0.00228  0.37149  0.89021  1.0000
  H   H843      1.0  0.85027  0.11865  0.49071  1.0000
  H   H844      1.0  0.76301  0.36420  0.93325  1.0000
  H   H845      1.0  0.86525  0.34650  0.49913  1.0000
  H   H846      1.0  0.99244  0.14767  0.83569  1.0000
  S   S109      1.0  0.00577  0.10073  0.53678  1.0000
  C   C464      1.0  0.94314  0.01378  0.67325  1.0000
  H   H847      1.0  0.74923  0.13341  0.93138  1.0000
  H   H848      1.0  0.72628  0.37976  0.97100  1.0000
  Fe  Fe57      1.0  0.84738  0.92742  0.39130  1.0000
  S   S110      1.0  0.85228  0.89428  0.45461  1.0000
  C   C465      1.0  0.85886  0.59205  0.47577  1.0000
  Fe  Fe58      1.0  0.90121  0.86174  0.34741  1.0000
  S   S111      1.0  0.91085  0.82637  0.40852  1.0000
  S   S112      1.0  0.92501  0.83949  0.28326  1.0000
  Fe  Fe59      1.0  0.84629  0.83351  0.41663  1.0000
  S   S113      1.0  0.81380  0.77314  0.43482  1.0000
  Fe  Fe60      1.0  0.91596  0.89132  0.43952  1.0000
  C   C466      1.0  0.75629  0.69933  0.24732  1.0000
  S   S114      1.0  0.83632  0.86697  0.35449  1.0000
  S   S115      1.0  0.91152  0.92628  0.37746  1.0000
  H   H849      1.0  0.71784  0.56274  0.29671  1.0000
  H   H850      1.0  0.78874  0.54777  0.29853  1.0000
  H   H851      1.0  0.89320  0.83981  0.03454  1.0000
  H   H852      1.0  0.85905  0.67990  0.47977  1.0000
  H   H853      1.0  0.85889  0.65940  0.32690  1.0000
  H   H854      1.0  0.97355  0.70393  0.06342  1.0000
  C   C467      1.0  0.98556  0.55000  0.03000  1.0000
  H   H855      1.0  0.96015  0.68000  0.99282  1.0000
  C   C468      1.0  0.94992  0.79051  0.27509  1.0000
  C   C469      1.0  0.95631  0.76154  0.30826  1.0000
  C   C470      1.0  0.97511  0.72237  0.30016  1.0000
  H   H856      1.0  0.95279  0.79735  0.02617  1.0000
  C   C471      1.0  0.95965  0.54210  0.99626  1.0000
  H   H857      1.0  0.94667  0.76926  0.34013  1.0000
  S   S116      1.0  0.81878  0.99275  0.39132  1.0000
  H   H858      1.0  0.69026  0.85890  0.39674  1.0000
  C   C472      1.0  0.71634  0.77607  0.36173  1.0000
  C   C473      1.0  0.75181  0.78737  0.38072  1.0000
  C   C474      1.0  0.77026  0.75910  0.40858  1.0000
  C   C475      1.0  0.75341  0.71904  0.41639  1.0000
  C   C476      1.0  0.71791  0.70766  0.39725  1.0000
  H   H859      1.0  0.89420  0.72272  0.22819  1.0000
  H   H860      1.0  0.76430  0.81839  0.37467  1.0000
  H   H861      1.0  0.76750  0.69695  0.43789  1.0000
  H   H862      1.0  0.98718  0.58360  0.30404  1.0000
  H   H863      1.0  0.83630  0.85110  0.25143  1.0000
  C   C477      1.0  0.98197  0.74099  0.22585  1.0000
  H   H864      1.0  0.87587  0.74120  0.30839  1.0000
  H   H865      1.0  0.92062  0.54495  0.19039  1.0000
  C   C478      1.0  0.74547  0.96899  0.36388  1.0000
  H   H866      1.0  0.88766  0.77055  0.99663  1.0000
  H   H867      1.0  0.86077  0.64618  0.99372  1.0000
  H   H868      1.0  0.81700  0.75703  0.21589  1.0000
  H   H869      1.0  0.75833  0.93901  0.35418  1.0000
  C   C479      1.0  0.94593  0.71082  0.00122  1.0000
  C   C480      1.0  0.70609  0.97747  0.35530  1.0000
  H   H870      1.0  0.99956  0.73080  0.44050  1.0000
  C   C481      1.0  0.95110  0.59881  0.35763  1.0000
  H   H871      1.0  0.91590  0.70788  0.98857  1.0000
  H   H872      1.0  0.86112  0.57056  0.07455  1.0000
  H   H873      1.0  0.76664  0.79029  0.26057  1.0000
  H   H874      1.0  0.00381  0.62743  0.33625  1.0000
  H   H875      1.0  0.92372  0.64561  0.05441  1.0000
  H   H876      1.0  0.80089  0.80290  0.30144  1.0000
  C   C482      1.0  0.88254  0.69575  0.37817  1.0000
  H   H877      1.0  0.94518  0.55255  0.44045  1.0000
  C   C483      1.0  0.76832  0.52186  0.30220  1.0000
  H   H878      1.0  0.99141  0.73320  0.19391  1.0000
  H   H879      1.0  0.75821  0.72492  0.22307  1.0000
  H   H880      1.0  0.71912  0.84458  0.46614  1.0000
  H   H881      1.0  0.95808  0.80219  0.20801  1.0000
  H   H882      1.0  0.76950  0.73163  0.30756  1.0000
  C   C484      1.0  0.76839  0.00002  0.38367  1.0000
  C   C485      1.0  0.71394  0.69586  0.26114  1.0000
  H   H883      1.0  0.68876  0.95385  0.33897  1.0000
  C   C486      1.0  0.94436  0.71143  0.05048  1.0000
  H   H884      1.0  0.85460  0.77574  0.24902  1.0000
  H   H885      1.0  0.82330  0.68255  0.36196  1.0000
  H   H886      1.0  0.88311  0.66819  0.40016  1.0000
  H   H887      1.0  0.93455  0.74260  0.06319  1.0000
  C   C487      1.0  0.91641  0.67760  0.06746  1.0000
  S   S117      1.0  0.99966  0.60330  0.04175  1.0000
  H   H888      1.0  0.83252  0.75316  0.33543  1.0000
  H   H889      1.0  0.78343  0.67774  0.30475  1.0000
  H   H890      1.0  0.70211  0.79836  0.34064  1.0000
  C   C488      1.0  0.96291  0.78003  0.23389  1.0000
  C   C489      1.0  0.99117  0.59491  0.33715  1.0000
  H   H891      1.0  0.76447  0.66869  0.23185  1.0000
  C   C490      1.0  0.69893  0.73649  0.37040  1.0000
  H   H892      1.0  0.93246  0.66081  0.20317  1.0000
  H   H893      1.0  0.70342  0.72724  0.27294  1.0000
  C   C491      1.0  0.98809  0.71188  0.25895  1.0000
  H   H894      1.0  0.71047  0.67163  0.28673  1.0000
  C   C492      1.0  0.90061  0.65778  0.20758  1.0000
  H   H895      1.0  0.93200  0.70348  0.45963  1.0000
  H   H896      1.0  0.89421  0.62491  0.21865  1.0000
  C   C493      1.0  0.90536  0.79612  0.98190  1.0000
  H   H897      1.0  0.88643  0.66318  0.17628  1.0000
  H   H898      1.0  0.93667  0.99043  0.45492  1.0000
  H   H899      1.0  0.90268  0.68482  0.27030  1.0000
  H   H900      1.0  0.87675  0.72515  0.39687  1.0000
  C   C494      1.0  0.88572  0.54833  0.08010  1.0000
  H   H901      1.0  0.91860  0.67611  0.10273  1.0000
  H   H902      1.0  0.88607  0.68576  0.05877  1.0000
  H   H903      1.0  0.83644  0.65440  0.26140  1.0000
  H   H904      1.0  0.91140  0.69847  0.36271  1.0000
  H   H905      1.0  0.82832  0.68588  0.21583  1.0000
  H   H906      1.0  0.78604  0.86575  0.25729  1.0000
  H   H907      1.0  0.80183  0.83809  0.20985  1.0000
  C   C495      1.0  0.72817  0.53045  0.30127  1.0000
  H   H908      1.0  0.70474  0.67709  0.40416  1.0000
  N   N28       1.0  0.82409  0.72113  0.27485  1.0000
  C   C496      1.0  0.84225  0.68659  0.24783  1.0000
  C   C497      1.0  0.78328  0.70786  0.28597  1.0000
  C   C498      1.0  0.82460  0.76241  0.24993  1.0000
  C   C499      1.0  0.84655  0.72812  0.31551  1.0000
  C   C500      1.0  0.85100  0.68859  0.34482  1.0000
  C   C501      1.0  0.88655  0.69056  0.24025  1.0000
  C   C502      1.0  0.79750  0.79829  0.26673  1.0000
  H   H909      1.0  0.91196  0.56742  0.08782  1.0000
  C   C503      1.0  0.80602  0.84082  0.24484  1.0000
  C   C504      1.0  0.68941  0.83245  0.45971  1.0000
  H   H910      1.0  0.87060  0.56256  0.46083  1.0000
  H   H911      1.0  0.92886  0.56756  0.26413  1.0000
  C   C505      1.0  0.89042  0.83867  0.99930  1.0000
  H   H912      1.0  0.87957  0.54983  0.25687  1.0000
  H   H913      1.0  0.93274  0.62044  0.33814  1.0000
  H   H914      1.0  0.95359  0.61242  0.39021  1.0000
  H   H915      1.0  0.97970  0.70019  0.32603  1.0000
  C   C506      1.0  0.91038  0.53935  0.25755  1.0000
  C   C507      1.0  0.96441  0.52733  0.45065  1.0000
  H   H916      1.0  0.93672  0.56712  0.35924  1.0000
  H   H917      1.0  0.83805  0.60699  0.45321  1.0000
  H   H918      1.0  0.69565  0.68632  0.23363  1.0000
  H   H919      1.0  0.00158  0.53563  0.37159  1.0000
  H   H920      1.0  0.90756  0.62904  0.45553  1.0000
  C   C508      1.0  0.99597  0.53705  0.47725  1.0000
  S   S118      1.0  0.00977  0.66125  0.24975  1.0000
  H   H921      1.0  0.69177  0.79847  0.44987  1.0000
  H   H922      1.0  0.85931  0.84259  0.99090  1.0000
  C   C509      1.0  0.94921  0.79023  0.99181  1.0000
  H   H923      1.0  0.00626  0.76496  0.05938  1.0000
  C   C510      1.0  0.99933  0.51546  0.05387  1.0000
  H   H924      1.0  0.90687  0.86569  0.98521  1.0000
  C   C511      1.0  0.00974  0.74669  0.99107  1.0000
  C   C512      1.0  0.92205  0.51951  0.21489  1.0000
  C   C513      1.0  0.00834  0.72398  0.47388  1.0000
  H   H925      1.0  0.86818  0.53746  0.14469  1.0000
  H   H926      1.0  0.91420  0.51594  0.28382  1.0000
  H   H927      1.0  0.89100  0.53013  0.05026  1.0000
  C   C514      1.0  0.87584  0.51782  0.11653  1.0000
  C   C515      1.0  0.95795  0.99630  0.47953  1.0000
  Fe  Fe61      1.0  0.85942  0.91545  0.83058  1.0000
  S   S119      1.0  0.86370  0.88558  0.89572  1.0000
  H   H928      1.0  0.84279  0.59587  0.97417  1.0000
  Fe  Fe62      1.0  0.91891  0.85322  0.79141  1.0000
  S   S120      1.0  0.92782  0.82033  0.85395  1.0000
  S   S121      1.0  0.95126  0.83776  0.72970  1.0000
  Fe  Fe63      1.0  0.86262  0.82292  0.86033  1.0000
  S   S122      1.0  0.83393  0.75951  0.87734  1.0000
  Fe  Fe64      1.0  0.92803  0.88606  0.88341  1.0000
  S   S123      1.0  0.97316  0.90377  0.93351  1.0000
  S   S124      1.0  0.85362  0.85272  0.79575  1.0000
  S   S125      1.0  0.92390  0.91880  0.82023  1.0000
  C   C516      1.0  0.98349  0.95767  0.94736  1.0000
  H   H929      1.0  0.91644  0.84103  0.56330  1.0000
  H   H930      1.0  0.87267  0.65182  0.76104  1.0000
  H   H931      1.0  0.81425  0.91032  0.69131  1.0000
  C   C517      1.0  0.99208  0.77977  0.68104  1.0000
  C   C518      1.0  0.94135  0.69688  0.49299  1.0000
  S   S126      1.0  0.00517  0.59111  0.49091  1.0000
  H   H932      1.0  0.94390  0.98596  0.90257  1.0000
  C   C519      1.0  0.97435  0.78782  0.72066  1.0000
  C   C520      1.0  0.97523  0.75602  0.75191  1.0000
  H   H933      1.0  0.93431  0.81247  0.60927  1.0000
  H   H934      1.0  0.00773  0.93491  0.83726  1.0000
  H   H935      1.0  0.85624  0.98971  0.64872  1.0000
  H   H936      1.0  0.96217  0.76197  0.78265  1.0000
  H   H937      1.0  0.96342  0.63996  0.55530  1.0000
  C   C521      1.0  0.70436  0.74130  0.90918  1.0000
  C   C522      1.0  0.72370  0.77887  0.92131  1.0000
  C   C523      1.0  0.76292  0.78558  0.91033  1.0000
  C   C524      1.0  0.78352  0.75416  0.88807  1.0000
  C   C525      1.0  0.76432  0.71620  0.87673  1.0000
  C   C526      1.0  0.72486  0.70997  0.88676  1.0000
  C   C527      1.0  0.98178  0.70394  0.86432  1.0000
  H   H938      1.0  0.77745  0.81459  0.92000  1.0000
  H   H939      1.0  0.77970  0.69153  0.85977  1.0000
  H   H940      1.0  0.84022  0.81015  0.51612  1.0000
  H   H941      1.0  0.76457  0.56440  0.89636  1.0000
  H   H942      1.0  0.91782  0.61789  0.57391  1.0000
  C   C528      1.0  0.93838  0.64492  0.57678  1.0000
  C   C529      1.0  0.91659  0.92145  0.59653  1.0000
  C   C530      1.0  0.75770  0.95136  0.79629  1.0000
  C   C531      1.0  0.71816  0.95759  0.78710  1.0000
  H   H943      1.0  0.81465  0.96548  0.70906  1.0000
  C   C532      1.0  0.74726  0.53974  0.88159  1.0000
  H   H944      1.0  0.77154  0.92127  0.78883  1.0000
  H   H945      1.0  0.95999  0.99308  0.73687  1.0000
  H   H946      1.0  0.89805  0.62366  0.93111  1.0000
  H   H947      1.0  0.99324  0.67360  0.85093  1.0000
  C   C533      1.0  0.94271  0.96949  0.65109  1.0000
  H   H948      1.0  0.89435  0.72441  0.74169  1.0000
  H   H949      1.0  0.96455  0.67295  0.92223  1.0000
  H   H950      1.0  0.75717  0.58215  0.76357  1.0000
  C   C534      1.0  0.68533  0.51620  0.85324  1.0000
  H   H951      1.0  0.88802  0.97144  0.52938  1.0000
  H   H952      1.0  0.94215  0.88183  0.64772  1.0000
  H   H953      1.0  0.88641  0.90850  0.69370  1.0000
  C   C535      1.0  0.70752  0.84435  0.82900  1.0000
  C   C536      1.0  0.87597  0.99288  0.55436  1.0000
  H   H954      1.0  0.84928  0.72616  0.77092  1.0000
  H   H955      1.0  0.00072  0.73044  0.85333  1.0000
  H   H956      1.0  0.89308  0.91537  0.57307  1.0000
  H   H957      1.0  0.94515  0.94458  0.67608  1.0000
  H   H958      1.0  0.70835  0.80278  0.93957  1.0000
  H   H959      1.0  0.81613  0.64471  0.96384  1.0000
  H   H960      1.0  0.82533  0.73008  0.51960  1.0000
  H   H961      1.0  0.90250  0.55456  0.90077  1.0000
  H   H962      1.0  0.84463  0.55641  0.82701  1.0000
  H   H963      1.0  0.90232  0.53208  0.84811  1.0000
  H   H964      1.0  0.99194  0.80429  0.65684  1.0000
  H   H965      1.0  0.00851  0.97457  0.79563  1.0000
  H   H966      1.0  0.84329  0.58293  0.50541  1.0000
  H   H967      1.0  0.78731  0.60756  0.82941  1.0000
  H   H968      1.0  0.94864  0.56856  0.97774  1.0000
  H   H969      1.0  0.89234  0.86934  0.63458  1.0000
  H   H970      1.0  0.97326  0.56927  0.89476  1.0000
  H   H971      1.0  0.88718  0.96197  0.71365  1.0000
  H   H972      1.0  0.80382  0.56727  0.74189  1.0000
  S   S127      1.0  0.82976  0.97974  0.82279  1.0000
  H   H973      1.0  0.90001  0.79632  0.94706  1.0000
  H   H974      1.0  0.96860  0.61291  0.62837  1.0000
  C   C537      1.0  0.70794  0.54762  0.87277  1.0000
  C   C538      1.0  0.93506  0.84342  0.59206  1.0000
  H   H975      1.0  0.87116  0.67180  0.92042  1.0000
  H   H976      1.0  0.96533  0.84975  0.58166  1.0000
  C   C539      1.0  0.88069  0.71843  0.77320  1.0000
  C   C540      1.0  0.91717  0.68746  0.56775  1.0000
  H   H977      1.0  0.93192  0.74156  0.92285  1.0000
  H   H978      1.0  0.85569  0.65678  0.53140  1.0000
  C   C541      1.0  0.84730  0.74523  0.54059  1.0000
  H   H979      1.0  0.94352  0.92597  0.57756  1.0000
  C   C542      1.0  0.95399  0.64393  0.62225  1.0000
  C   C543      1.0  0.83595  0.79211  0.54621  1.0000
  H   H980      1.0  0.78447  0.53976  0.78800  1.0000
  C   C544      1.0  0.97470  0.96179  0.50108  1.0000
  H   H981      1.0  0.89418  0.74005  0.79701  1.0000
  H   H982      1.0  0.93500  0.71394  0.58097  1.0000
  H   H983      1.0  0.89093  0.68674  0.58825  1.0000
  H   H984      1.0  0.91815  0.66520  0.78589  1.0000
  C   C545      1.0  0.96296  0.74243  0.93254  1.0000
  H   H985      1.0  0.98453  0.72438  0.53700  1.0000
  H   H986      1.0  0.84515  0.72996  0.57228  1.0000
  C   C546      1.0  0.87668  0.66500  0.50565  1.0000
  H   H987      1.0  0.97038  0.96699  0.63272  1.0000
  H   H988      1.0  0.68424  0.85473  0.89162  1.0000
  H   H989      1.0  0.69138  0.81385  0.82564  1.0000
  H   H990      1.0  0.97560  0.66970  0.62663  1.0000
  C   C547      1.0  0.97378  0.72925  0.50408  1.0000
  N   N29       1.0  0.90852  0.96127  0.62217  1.0000
  C   C548      1.0  0.84557  0.63044  0.96684  1.0000
  C   C549      1.0  0.98150  0.70161  0.91300  1.0000
  C   C550      1.0  0.90579  0.99811  0.59114  1.0000
  C   C551      1.0  0.77941  0.98459  0.81395  1.0000
  N   N30       1.0  0.86874  0.61731  0.84521  1.0000
  C   C552      1.0  0.86894  0.66315  0.83066  1.0000
  C   C553      1.0  0.84802  0.61497  0.88757  1.0000
  C   C554      1.0  0.91009  0.60195  0.84880  1.0000
  C   C555      1.0  0.84767  0.58913  0.81386  1.0000
  C   C556      1.0  0.80623  0.60382  0.80107  1.0000
  C   C557      1.0  0.88648  0.67175  0.78594  1.0000
  N   N31       1.0  0.90637  0.69659  0.52200  1.0000
  C   C558      1.0  0.86862  0.63690  0.92573  1.0000
  H   H991      1.0  0.95540  0.66511  0.49177  1.0000
  C   C559      1.0  0.78691  0.57118  0.77179  1.0000
  H   H992      1.0  0.80707  0.63470  0.78381  1.0000
  H   H993      1.0  0.70193  0.93232  0.77201  1.0000
  H   H994      1.0  0.88562  0.68329  0.85326  1.0000
  H   H995      1.0  0.83914  0.67659  0.83135  1.0000
  H   H996      1.0  0.81891  0.63013  0.88532  1.0000
  H   H997      1.0  0.84199  0.58119  0.89638  1.0000
  H   H998      1.0  0.92786  0.62515  0.86717  1.0000
  H   H999      1.0  0.92387  0.60066  0.81672  1.0000
  H   H1000     1.0  0.86496  0.58477  0.78420  1.0000
  C   C560      1.0  0.91567  0.55692  0.86862  1.0000
  C   C561      1.0  0.69968  0.99631  0.79713  1.0000
  H   H1001     1.0  0.85350  0.80700  0.57182  1.0000
  C   C562      1.0  0.88850  0.74073  0.52065  1.0000
  H   H1002     1.0  0.84956  0.93802  0.62736  1.0000
  C   C563      1.0  0.87163  0.93983  0.69200  1.0000
  H   H1003     1.0  0.69525  0.57823  0.88062  1.0000
  H   H1004     1.0  0.93021  0.64805  0.64583  1.0000
  H   H1005     1.0  0.90754  0.76417  0.53712  1.0000
  H   H1006     1.0  0.80485  0.79435  0.55528  1.0000
  H   H1007     1.0  0.83218  0.92413  0.74336  1.0000
  C   C564      1.0  0.83059  0.93464  0.70973  1.0000
  C   C565      1.0  0.99308  0.71641  0.74339  1.0000
  C   C566      1.0  0.87041  0.95782  0.64591  1.0000
  H   H1008     1.0  0.97588  0.77070  0.91620  1.0000
  H   H1009     1.0  0.71040  0.68079  0.87744  1.0000
  H   H1010     1.0  0.00037  0.00360  0.70134  1.0000
  H   H1011     1.0  0.97333  0.54662  0.84155  1.0000
  H   H1012     1.0  0.95205  0.70920  0.85180  1.0000
  C   C567      1.0  0.92089  0.87917  0.62148  1.0000
  H   H1013     1.0  0.93454  0.00433  0.57621  1.0000
  N   N32       1.0  0.96682  0.74752  0.98024  1.0000
  S   S128      1.0  0.96099  0.90807  0.49023  1.0000
  H   H1014     1.0  0.99350  0.69198  0.76770  1.0000
  H   H1015     1.0  0.84828  0.97907  0.56590  1.0000
  H   H1016     1.0  0.96318  0.76255  0.50082  1.0000
  C   C568      1.0  0.95875  0.54617  0.87314  1.0000
  H   H1017     1.0  0.96512  0.81628  0.97500  1.0000
  H   H1018     1.0  0.70710  0.90067  0.86813  1.0000
  C   C569      1.0  0.96530  0.99204  0.92702  1.0000
  H   H1019     1.0  0.73747  0.83690  0.83970  1.0000
  H   H1020     1.0  0.70934  0.86027  0.79750  1.0000
  H   H1021     1.0  0.88617  0.75214  0.48704  1.0000
  C   C570      1.0  0.01046  0.70816  0.70368  1.0000
  H   H1022     1.0  0.96203  0.51372  0.88693  1.0000
  C   C571      1.0  0.00201  0.97012  0.53337  1.0000
  H   H1023     1.0  0.70412  0.97206  0.66210  1.0000
  H   H1024     1.0  0.91280  0.60575  0.50672  1.0000
  C   C572      1.0  0.67835  0.98185  0.68101  1.0000
  C   C573      1.0  0.68759  0.87315  0.86177  1.0000
  C   C574      1.0  0.89211  0.62263  0.48586  1.0000
  C   C575      1.0  0.01100  0.96622  0.97931  1.0000
  C   C576      1.0  0.00987  0.74010  0.67249  1.0000
