data_image0
_chemical_formula_structural       HSHFeS2FeS2FeHSH2CHSCFeS2FeSHFeSFeS3H2C4H2CHC2H2C6H4C6H5CH2CH4FeCH2SH2NHC2HCSH2CHCNH2CHCH3SCNHCH3SCH3CH8FeH3FeH2CH9C2HCHCHCH3CH2CH2CHCHCNH4CHCHCH3CHC2H4FeCH3C3NH2CH3C3HNH3C2H2CHCHCHCH3CSC7H10CH2SCH2CH5CH2CHCH4C2H3CH2SHCH2C3H2CHCH3CFeH4C3HC2HCH3FeCH2SHSC2H3NHS2HFeHSH2SH2FeS2FeSHFeSFeS3H2C4H3C7H4SH2CHC6H5CHCHFeCH3C2HCNC4HC2SH3CH9CH4CH3CH2FeSH5CHCH2CH2CHCH3C3FeH5SH8CSH2CNC10H22CHC2H4CH10C2HCHCH2CHC3FeH3NC2HCH3C4SCH6C2H2C2H5SHFeS2HSCFeSFeSFeHSFeS2FeS2FeSFeS3CHC6H4C6H4CHC6H4CH2C6H2C8H5CNCHCH4CH3CH3CHCH4CFeH6NH2CH3CSHC2HCSH2CHNHCHCHC2HSFeH4SH3CNC11H24NC11H5CH11CH9CH5SHC2HCH2CHC2HC2HCH3CH8CH6NHC3HNCHSH5SH2CHCHC2HCH2CHCH6CH5C2H4CH3C2H4CH2CH2CHSH2CH3FeS2CFeSHSHCH2SFeS2FeS2FeSFeS3C6H6C6H7C6H4CHC6H3C7H11CH3CH3NCH2CH3C2HNC12H29NC9SH4CH9CH3SH3CH2C2H4CHC2NCH2CH4CHC3H4C2HCH2CHCH6CNH2NCSCFeHCH5CH6C3H2FeC2H5CSH5CHCH5SH2CH5CH3CH2FeHCH2SH2C3FeHSCSH2FeCH2CSFeHSCHFeS2FeS2FeSFeS3FeS2FeS2FeSFeS2CH3CHSC3H2C6H4SHC7H7SH2C9H4C2NHCH6CHCNC3HC2HC4H8NH5CH5CH5CNC4HCH7CH3CH6CFeCH5NC12H29NCHFeCHCHCHCH8CH2C2H2CH6NCH3CH11SCHCHC2HCH4SCFeH4SC2H2CHCH4C5H3C2HC2H3CHC2HCSH4CHCH4CH3C2HCH5CH2C2H5SCH2CHFeC2H3CHCHCFeS2HSHFeHSHFeSCFeS2FeS2FeSFeS3FeS2FeS2Fe2S3H2CSHC3H2C6H4C6H5NHC2H2C6H4CH3CH9CFeHCNC7NHC3H26CHCHC2HSCH2CH4CH4CHSHSCHCH4C3H2CH3CH2SH3NC2H3C2FeCH2C2H3CH2CSH2FeH3CHC3HCHCH9NC10H17CH2NC12H29CHCSC5HCHCH3CH5CH2C3H4C2SCH3C3H2CH2CHCH4SCFeH2SFeSFeSCFeS2FeSFeS3HCSHFeS2FeS2FeS2FeSFeS3C2HC6H4SCH3C6H4C2H2CHC6H4CNH3C4HCH3CH4CH2C2SH7CH2FeCH3SH4C2HCHNHCHNC2HC3HC3H6SH7CH14CNH3CH3C2H3CH2CH10CH6C2HCHCHCH3CHC3H2C2HCH3CH10C3H4C2H2CH3C3H6CH5CH6CHCH4CH2CH5C2H3CHCH3CHCH2CH2NCHCH3CH3CH2CH2C3HCH7CSH2SFeCHC2HSH2FeH3FeHSH2SFeS2FeS2Fe2S3H3CFeS2FeS2FeS2FeSFeS3C6H5SC7H5C2H2C3H2C6H7CH3CH2CSH2CH2CHCH4CH2CHCHCH2CNH2CH4C2HCHCH7C3HCHFeCHC3NCNC2H2CH2CH2C2HCSHCH3SH6C3HNHCHCH2CH5C2H12CHCH3C3HCH3C2HC2H5CHC2H2CNH6C2HCH2C3H12C2SCHCH4CH4CH2C2H5C2H8C2H2C4HCH3CH7FeH3NCH2CH2C2HFeS4CFeSFeS2FeS2FeSFeS3CS2HSH4C6H4C6H4FeHSHC7H4C5H4C7H8NC12H28FeHCNC2FeH2CSHC3H3CH2CH6SC3HNC12H32CH3C2SFeH3CHCHC3H8CSH3C3H6FeH4C3H6CHCHSNHC3H2C3H8C2HCH2C3H5FeS2HSHFeSFeS2FeS2FeSFeS3H2NH2CSC3HC2H2CH3C6H4C6H8CFeHC4H3C7H4C4HCH3C2NC2H3C2HCH6NH2SCH5CHNC3H2C4H2CH6SC3HCH8CHNC2H4CHC2HCHC2H10CH3FeHCHNCH4SH11C2HCNC12H28CH3C3H3CHCHSCH8CH2CHC2H2CHCH4CHCHC2HSHSH8C2SHC2HCFeHSFeS2CFeHSHCSHFeS2FeSHFeSFeS3C2H2C2HCH2FeH2C6H6C6H5FeC2H5C2H2NH2CH3CHSNCHC2H6C2H5CH5CH4CHC3H4CHCHCHCH2CH2CHC2H3C2HFeCH2C3H7C2H3NC12H19CH13SHCH5C3HCHC3H3C2H6CHFeH3CHNH3CHC2NHCS2C5H2S2H2CHSCH3CH6CH3FeCH2S2CH3NCH4CH3CH3C2HCHSHCH2CHC2HNH4C2H2SNHFeS2FeCH2SH2S2HSH2FeSH2FeS2FeSHFeSFeS3HC4HCH6C6H5C8H5CH3SFeH7CH3CHC2H2FeHCH7CH3CH2C3HNCH2CHCHC3H4C5H4SC3HCHSC2H2C4HCHCHCHCH3C3H2CH6CHCH3CH5CH11C3H10SH6CNC3H4CH2CH6CH2C2HCH6C
_chemical_formula_sum              "H2176 S272 Fe136 C1224 N68"
_cell_length_a       62.2887
_cell_length_b       61.1552
_cell_length_c       47.6193
_cell_angle_alpha    90.1707
_cell_angle_beta     90.7854
_cell_angle_gamma    120.085

_space_group_name_H-M_alt    "P 1"
_space_group_IT_number       1

loop_
  _space_group_symop_operation_xyz
  'x, y, z'

loop_
  _atom_site_type_symbol
  _atom_site_label
  _atom_site_symmetry_multiplicity
  _atom_site_fract_x
  _atom_site_fract_y
  _atom_site_fract_z
  _atom_site_occupancy
  H   H1        1.0  0.32519  0.16404  0.25057  1.0000
  S   S1        1.0  0.27176  0.10444  0.48447  1.0000
  H   H2        1.0  0.22211  0.32056  0.46002  1.0000
  Fe  Fe1       1.0  0.27290  0.13106  0.45111  1.0000
  S   S2        1.0  0.28684  0.13454  0.40597  1.0000
  S   S3        1.0  0.23220  0.11824  0.45547  1.0000
  Fe  Fe2       1.0  0.14621  0.27847  0.45311  1.0000
  S   S4        1.0  0.16613  0.29476  0.41173  1.0000
  S   S5        1.0  0.11916  0.23690  0.45788  1.0000
  Fe  Fe3       1.0  0.01724  0.38892  0.15894  1.0000
  H   H3        1.0  0.25407  0.44613  0.18795  1.0000
  S   S6        1.0  0.04173  0.38353  0.19167  1.0000
  H   H4        1.0  0.13025  0.48678  0.17856  1.0000
  H   H5        1.0  0.09122  0.30069  0.33966  1.0000
  C   C1        1.0  0.08035  0.33842  0.24736  1.0000
  H   H6        1.0  0.28237  0.49343  0.18789  1.0000
  S   S7        1.0  0.02818  0.41247  0.11990  1.0000
  C   C2        1.0  0.09205  0.47877  0.15197  1.0000
  Fe  Fe4       1.0  0.19299  0.40572  0.30007  1.0000
  S   S8        1.0  0.18415  0.39147  0.25535  1.0000
  S   S9        1.0  0.16986  0.38354  0.33766  1.0000
  Fe  Fe5       1.0  0.23173  0.45898  0.28225  1.0000
  S   S10       1.0  0.22517  0.44839  0.23637  1.0000
  H   H7        1.0  0.31600  0.25535  0.39936  1.0000
  Fe  Fe6       1.0  0.18420  0.42751  0.24576  1.0000
  S   S11       1.0  0.15869  0.42977  0.21170  1.0000
  Fe  Fe7       1.0  0.22559  0.41312  0.24863  1.0000
  S   S12       1.0  0.24189  0.39598  0.21832  1.0000
  S   S13       1.0  0.19092  0.44097  0.29092  1.0000
  S   S14       1.0  0.23431  0.42457  0.29427  1.0000
  H   H8        1.0  0.30584  0.39426  0.15995  1.0000
  H   H9        1.0  0.10987  0.45821  0.19584  1.0000
  C   C3        1.0  0.29116  0.41186  0.23297  1.0000
  C   C4        1.0  0.27251  0.40176  0.21222  1.0000
  C   C5        1.0  0.27797  0.39511  0.18601  1.0000
  C   C6        1.0  0.30191  0.39915  0.18033  1.0000
  H   H10       1.0  0.28691  0.41602  0.25353  1.0000
  H   H11       1.0  0.26363  0.38700  0.16985  1.0000
  C   C7        1.0  0.30915  0.09013  0.37013  1.0000
  H   H12       1.0  0.16067  0.34214  0.45273  1.0000
  C   C8        1.0  0.09447  0.32110  0.28608  1.0000
  C   C9        1.0  0.11923  0.33781  0.24396  1.0000
  H   H13       1.0  0.30302  0.14759  0.34922  1.0000
  H   H14       1.0  0.00684  0.41502  0.03710  1.0000
  C   C10       1.0  0.07451  0.39814  0.19661  1.0000
  C   C11       1.0  0.08437  0.40196  0.22413  1.0000
  C   C12       1.0  0.10996  0.41160  0.22913  1.0000
  C   C13       1.0  0.12611  0.41727  0.20668  1.0000
  C   C14       1.0  0.11634  0.41407  0.17916  1.0000
  C   C15       1.0  0.09072  0.40445  0.17412  1.0000
  H   H15       1.0  0.07211  0.39749  0.24174  1.0000
  H   H16       1.0  0.11728  0.41521  0.25034  1.0000
  H   H17       1.0  0.12864  0.41867  0.16156  1.0000
  H   H18       1.0  0.08344  0.40124  0.15282  1.0000
  C   C16       1.0  0.16632  0.31890  0.39085  1.0000
  C   C17       1.0  0.18381  0.32968  0.36938  1.0000
  C   C18       1.0  0.18498  0.34922  0.35261  1.0000
  C   C19       1.0  0.16872  0.35832  0.35727  1.0000
  C   C20       1.0  0.15099  0.34730  0.37848  1.0000
  C   C21       1.0  0.14966  0.32758  0.39505  1.0000
  H   H19       1.0  0.19664  0.32295  0.36581  1.0000
  H   H20       1.0  0.19865  0.35744  0.33632  1.0000
  H   H21       1.0  0.13814  0.35400  0.38208  1.0000
  H   H22       1.0  0.13572  0.31903  0.41099  1.0000
  H   H23       1.0  0.30449  0.07496  0.38569  1.0000
  C   C22       1.0  0.21010  0.18795  0.48812  1.0000
  H   H24       1.0  0.07727  0.43801  0.14509  1.0000
  H   H25       1.0  0.02082  0.13517  0.43862  1.0000
  C   C23       1.0  0.23576  0.15573  0.39490  1.0000
  H   H26       1.0  0.32369  0.30771  0.26011  1.0000
  H   H27       1.0  0.07573  0.32470  0.22965  1.0000
  H   H28       1.0  0.08108  0.32174  0.30066  1.0000
  H   H29       1.0  0.25180  0.32979  0.26888  1.0000
  Fe  Fe8       1.0  0.00504  0.42830  0.13698  1.0000
  C   C24       1.0  0.00904  0.48906  0.13937  1.0000
  H   H30       1.0  0.29024  0.34850  0.13946  1.0000
  H   H31       1.0  0.21197  0.35041  0.43718  1.0000
  S   S15       1.0  0.16925  0.28024  0.49094  1.0000
  H   H32       1.0  0.12425  0.38199  0.26032  1.0000
  H   H33       1.0  0.18862  0.99860  0.42349  1.0000
  N   N1        1.0  0.10258  0.34137  0.26405  1.0000
  H   H34       1.0  0.16106  0.34974  0.48841  1.0000
  C   C25       1.0  0.27165  0.45545  0.17616  1.0000
  C   C26       1.0  0.11190  0.17126  0.44780  1.0000
  H   H35       1.0  0.23724  0.39589  0.43445  1.0000
  C   C27       1.0  0.19275  0.21630  0.48371  1.0000
  S   S16       1.0  0.23463  0.18162  0.48017  1.0000
  H   H36       1.0  0.32265  0.10274  0.26458  1.0000
  H   H37       1.0  0.10994  0.35082  0.20432  1.0000
  C   C28       1.0  0.27973  0.19191  0.38896  1.0000
  H   H38       1.0  0.14795  0.37337  0.43809  1.0000
  C   C29       1.0  0.05543  0.32835  0.26295  1.0000
  N   N2        1.0  0.06833  0.15769  0.46907  1.0000
  H   H39       1.0  0.21934  0.14800  0.40866  1.0000
  H   H40       1.0  0.24925  0.19333  0.40981  1.0000
  C   C30       1.0  0.20657  0.34530  0.45932  1.0000
  H   H41       1.0  0.04445  0.16047  0.41846  1.0000
  C   C31       1.0  0.05431  0.12934  0.47225  1.0000
  H   H42       1.0  0.26081  0.17564  0.42893  1.0000
  H   H43       1.0  0.29532  0.27866  0.42213  1.0000
  H   H44       1.0  0.23051  0.03252  0.48241  1.0000
  S   S17       1.0  0.12293  0.29001  0.47742  1.0000
  C   C32       1.0  0.31762  0.22464  0.34863  1.0000
  N   N3        1.0  0.09293  0.48041  0.18371  1.0000
  H   H45       1.0  0.22744  0.38252  0.47898  1.0000
  C   C33       1.0  0.06569  0.45747  0.22658  1.0000
  H   H46       1.0  0.21650  0.41505  0.38752  1.0000
  H   H47       1.0  0.31013  0.19022  0.42571  1.0000
  H   H48       1.0  0.03762  0.43686  0.25768  1.0000
  S   S18       1.0  0.05540  0.23380  0.47408  1.0000
  C   C34       1.0  0.08350  0.17105  0.49508  1.0000
  H   H49       1.0  0.04168  0.07888  0.46749  1.0000
  H   H50       1.0  0.08431  0.30209  0.27577  1.0000
  H   H51       1.0  0.03455  0.41878  0.22649  1.0000
  C   C35       1.0  0.29847  0.23722  0.40285  1.0000
  H   H52       1.0  0.04481  0.11998  0.45214  1.0000
  H   H53       1.0  0.05978  0.41099  0.02641  1.0000
  H   H54       1.0  0.30388  0.47427  0.31910  1.0000
  H   H55       1.0  0.12438  0.18880  0.40695  1.0000
  H   H56       1.0  0.28411  0.17678  0.38394  1.0000
  H   H57       1.0  0.14770  0.36011  0.17904  1.0000
  H   H58       1.0  0.13748  0.37444  0.22192  1.0000
  H   H59       1.0  0.11338  0.15686  0.46030  1.0000
  Fe  Fe9       1.0  0.24445  0.15009  0.48693  1.0000
  H   H60       1.0  0.27280  0.22305  0.43912  1.0000
  H   H61       1.0  0.11034  0.31762  0.23717  1.0000
  H   H62       1.0  0.21842  0.41517  0.48165  1.0000
  Fe  Fe10      1.0  0.23218  0.09403  0.49133  1.0000
  H   H63       1.0  0.08492  0.35665  0.23731  1.0000
  H   H64       1.0  0.29651  0.46030  0.22287  1.0000
  C   C36       1.0  0.00445  0.21247  0.46769  1.0000
  H   H65       1.0  0.30914  0.13082  0.24165  1.0000
  H   H66       1.0  0.13146  0.32772  0.19044  1.0000
  H   H67       1.0  0.27339  0.19621  0.36887  1.0000
  H   H68       1.0  0.29135  0.28444  0.25685  1.0000
  H   H69       1.0  0.10646  0.35252  0.45939  1.0000
  H   H70       1.0  0.13702  0.34230  0.25453  1.0000
  H   H71       1.0  0.24168  0.14142  0.39299  1.0000
  H   H72       1.0  0.05756  0.33852  0.28296  1.0000
  H   H73       1.0  0.04767  0.30801  0.26777  1.0000
  C   C37       1.0  0.20767  0.36745  0.47642  1.0000
  C   C38       1.0  0.09309  0.45723  0.10674  1.0000
  H   H74       1.0  0.05922  0.18733  0.46422  1.0000
  C   C39       1.0  0.21218  0.01712  0.48707  1.0000
  H   H75       1.0  0.26406  0.25336  0.41386  1.0000
  C   C40       1.0  0.19406  0.02248  0.49636  1.0000
  H   H76       1.0  0.06712  0.44040  0.18810  1.0000
  C   C41       1.0  0.19814  0.40148  0.48189  1.0000
  H   H77       1.0  0.08647  0.18274  0.43406  1.0000
  H   H78       1.0  0.31813  0.45884  0.26399  1.0000
  H   H79       1.0  0.30414  0.20600  0.33917  1.0000
  C   C42       1.0  0.31682  0.15440  0.39201  1.0000
  H   H80       1.0  0.29854  0.32500  0.12965  1.0000
  H   H81       1.0  0.07459  0.47728  0.14356  1.0000
  C   C43       1.0  0.27991  0.26011  0.42899  1.0000
  H   H82       1.0  0.27360  0.26268  0.44983  1.0000
  H   H83       1.0  0.28556  0.23626  0.38584  1.0000
  C   C44       1.0  0.30905  0.46766  0.27534  1.0000
  H   H84       1.0  0.09343  0.19187  0.49198  1.0000
  C   C45       1.0  0.21129  0.21009  0.47763  1.0000
  H   H85       1.0  0.27671  0.29926  0.17040  1.0000
  C   C46       1.0  0.29026  0.48074  0.18981  1.0000
  N   N4        1.0  0.30602  0.32749  0.21814  1.0000
  H   H86       1.0  0.11515  0.15555  0.40796  1.0000
  H   H87       1.0  0.24362  0.35264  0.47095  1.0000
  H   H88       1.0  0.18937  0.41167  0.47211  1.0000
  H   H89       1.0  0.02577  0.44288  0.22568  1.0000
  C   C47       1.0  0.06981  0.11698  0.48085  1.0000
  H   H90       1.0  0.01828  0.32226  0.25583  1.0000
  C   C48       1.0  0.27791  0.34485  0.23440  1.0000
  H   H91       1.0  0.19073  0.36819  0.42104  1.0000
  C   C49       1.0  0.28457  0.32815  0.14038  1.0000
  H   H92       1.0  0.06937  0.47572  0.23568  1.0000
  H   H93       1.0  0.28344  0.31694  0.25520  1.0000
  H   H94       1.0  0.13738  0.46463  0.23790  1.0000
  C   C50       1.0  0.28179  0.31940  0.17080  1.0000
  H   H95       1.0  0.29234  0.36044  0.24758  1.0000
  C   C51       1.0  0.16514  0.35825  0.46714  1.0000
  C   C52       1.0  0.22848  0.40781  0.39590  1.0000
  H   H96       1.0  0.22677  0.22265  0.46482  1.0000
  H   H97       1.0  0.21935  0.33146  0.49425  1.0000
  H   H98       1.0  0.05269  0.45855  0.18413  1.0000
  H   H99       1.0  0.23023  0.15918  0.37384  1.0000
  Fe  Fe11      1.0  0.99242  0.38222  0.09988  1.0000
  C   C53       1.0  0.03927  0.43777  0.23447  1.0000
  H   H100      1.0  0.08601  0.43071  0.00482  1.0000
  H   H101      1.0  0.27805  0.47322  0.23275  1.0000
  H   H102      1.0  0.00393  0.16279  0.45230  1.0000
  C   C54       1.0  0.31344  0.46629  0.30678  1.0000
  C   C55       1.0  0.11531  0.32195  0.30516  1.0000
  C   C56       1.0  0.31510  0.41593  0.22733  1.0000
  N   N5        1.0  0.19217  0.37815  0.46499  1.0000
  H   H103      1.0  0.19417  0.23347  0.47558  1.0000
  H   H104      1.0  0.26621  0.30563  0.22351  1.0000
  C   C57       1.0  0.03622  0.33060  0.24477  1.0000
  H   H105      1.0  0.00904  0.22569  0.45068  1.0000
  H   H106      1.0  0.03316  0.32047  0.22439  1.0000
  H   H107      1.0  0.14420  0.17899  0.42379  1.0000
  C   C58       1.0  0.03310  0.15596  0.43759  1.0000
  C   C59       1.0  0.14676  0.48490  0.23225  1.0000
  C   C60       1.0  0.14217  0.34771  0.19772  1.0000
  H   H108      1.0  0.29067  0.28808  0.20656  1.0000
  N   N6        1.0  0.30273  0.21500  0.40029  1.0000
  H   H109      1.0  0.23750  0.32219  0.23409  1.0000
  H   H110      1.0  0.27802  0.35243  0.21330  1.0000
  H   H111      1.0  0.30579  0.44624  0.31283  1.0000
  C   C61       1.0  0.04959  0.16625  0.46463  1.0000
  C   C62       1.0  0.25664  0.18026  0.40782  1.0000
  H   H112      1.0  0.04243  0.35074  0.24060  1.0000
  H   H113      1.0  0.23204  0.42222  0.43782  1.0000
  C   C63       1.0  0.30742  0.30356  0.21721  1.0000
  H   H114      1.0  0.25005  0.35360  0.24841  1.0000
  C   C64       1.0  0.28276  0.32231  0.23304  1.0000
  H   H115      1.0  0.26606  0.32072  0.17955  1.0000
  C   C65       1.0  0.08469  0.16522  0.44347  1.0000
  H   H116      1.0  0.03902  0.12353  0.48746  1.0000
  C   C66       1.0  0.05303  0.08880  0.48647  1.0000
  H   H117      1.0  0.29160  0.08870  0.36226  1.0000
  H   H118      1.0  0.18753  0.32878  0.45955  1.0000
  H   H119      1.0  0.12973  0.32091  0.29283  1.0000
  C   C67       1.0  0.30944  0.29294  0.24608  1.0000
  S   S19       1.0  0.28531  0.16361  0.48124  1.0000
  C   C68       1.0  0.28854  0.24077  0.43132  1.0000
  C   C69       1.0  0.25276  0.33699  0.24727  1.0000
  C   C70       1.0  0.32069  0.40969  0.20097  1.0000
  C   C71       1.0  0.11731  0.36749  0.27689  1.0000
  C   C72       1.0  0.10332  0.37524  0.29761  1.0000
  C   C73       1.0  0.12085  0.40040  0.31229  1.0000
  C   C74       1.0  0.10489  0.29988  0.32560  1.0000
  H   H120      1.0  0.13449  0.37012  0.28745  1.0000
  H   H121      1.0  0.09418  0.36096  0.31418  1.0000
  H   H122      1.0  0.08922  0.37782  0.28593  1.0000
  H   H123      1.0  0.12419  0.33952  0.31803  1.0000
  H   H124      1.0  0.10998  0.40645  0.32516  1.0000
  H   H125      1.0  0.13400  0.39838  0.32647  1.0000
  H   H126      1.0  0.13158  0.41537  0.29681  1.0000
  H   H127      1.0  0.09592  0.28154  0.31402  1.0000
  H   H128      1.0  0.12025  0.30100  0.33886  1.0000
  H   H129      1.0  0.07831  0.45173  0.23652  1.0000
  C   C75       1.0  0.11954  0.34555  0.46375  1.0000
  H   H130      1.0  0.31240  0.06795  0.33715  1.0000
  H   H131      1.0  0.15934  0.35098  0.20886  1.0000
  S   S20       1.0  0.99542  0.40591  0.17674  1.0000
  C   C76       1.0  0.12644  0.35402  0.21682  1.0000
  H   H132      1.0  0.26737  0.45850  0.15430  1.0000
  H   H133      1.0  0.03653  0.16051  0.48243  1.0000
  C   C77       1.0  0.30601  0.33579  0.18828  1.0000
  H   H134      1.0  0.27952  0.44271  0.17543  1.0000
  H   H135      1.0  0.29700  0.20527  0.44443  1.0000
  H   H136      1.0  0.28869  0.45623  0.27144  1.0000
  H   H137      1.0  0.26657  0.31712  0.12891  1.0000
  H   H138      1.0  0.14888  0.38269  0.47421  1.0000
  C   C78       1.0  0.22525  0.40354  0.42755  1.0000
  H   H139      1.0  0.30999  0.10052  0.31289  1.0000
  H   H140      1.0  0.22362  0.38987  0.38481  1.0000
  C   C79       1.0  0.00059  0.40255  0.01893  1.0000
  H   H141      1.0  0.32317  0.30618  0.20395  1.0000
  C   C80       1.0  0.14620  0.36701  0.46015  1.0000
  H   H142      1.0  0.24811  0.42183  0.39139  1.0000
  H   H143      1.0  0.12268  0.18965  0.45895  1.0000
  H   H144      1.0  0.30745  0.48866  0.17745  1.0000
  H   H145      1.0  0.07595  0.15049  0.42666  1.0000
  C   C81       1.0  0.12456  0.17375  0.41980  1.0000
  C   C82       1.0  0.19765  0.38533  0.43455  1.0000
  H   H146      1.0  0.11050  0.45613  0.14528  1.0000
  H   H147      1.0  0.11428  0.48768  0.23919  1.0000
  H   H148      1.0  0.31006  0.35570  0.18765  1.0000
  C   C83       1.0  0.09336  0.45619  0.13881  1.0000
  H   H149      1.0  0.08222  0.11856  0.46355  1.0000
  H   H150      1.0  0.16052  0.48846  0.21569  1.0000
  S   S21       1.0  0.02434  0.47127  0.13694  1.0000
  H   H151      1.0  0.18730  0.39468  0.42700  1.0000
  C   C84       1.0  0.06899  0.45878  0.19437  1.0000
  H   H152      1.0  0.02764  0.18822  0.43189  1.0000
  H   H153      1.0  0.11517  0.32981  0.44884  1.0000
  C   C85       1.0  0.11502  0.47844  0.19410  1.0000
  C   C86       1.0  0.22405  0.33709  0.47201  1.0000
  C   C87       1.0  0.31934  0.15724  0.36268  1.0000
  H   H154      1.0  0.07629  0.45740  0.09888  1.0000
  H   H155      1.0  0.09289  0.44031  0.09783  1.0000
  C   C88       1.0  0.02380  0.21248  0.48347  1.0000
  H   H156      1.0  0.11667  0.33835  0.48559  1.0000
  C   C89       1.0  0.29516  0.47764  0.22122  1.0000
  H   H157      1.0  0.00456  0.15950  0.41480  1.0000
  H   H158      1.0  0.30986  0.23744  0.34702  1.0000
  H   H159      1.0  0.30232  0.25669  0.22892  1.0000
  C   C90       1.0  0.01633  0.16737  0.43403  1.0000
  Fe  Fe12      1.0  0.09683  0.24840  0.48491  1.0000
  H   H160      1.0  0.30340  0.24773  0.44772  1.0000
  H   H161      1.0  0.31711  0.26460  0.26320  1.0000
  H   H162      1.0  0.32142  0.33595  0.17652  1.0000
  H   H163      1.0  0.10988  0.47439  0.09927  1.0000
  C   C91       1.0  0.32365  0.08739  0.34604  1.0000
  C   C92       1.0  0.31048  0.20854  0.42776  1.0000
  C   C93       1.0  0.06547  0.41874  0.00499  1.0000
  H   H164      1.0  0.32184  0.13872  0.29202  1.0000
  C   C94       1.0  0.31633  0.27236  0.24240  1.0000
  C   C95       1.0  0.32330  0.22146  0.37968  1.0000
  H   H165      1.0  0.32048  0.10865  0.38102  1.0000
  C   C96       1.0  0.12772  0.49209  0.22220  1.0000
  H   H166      1.0  0.06460  0.08028  0.49209  1.0000
  H   H167      1.0  0.05704  0.43060  0.00012  1.0000
  H   H168      1.0  0.20165  0.36002  0.49795  1.0000
  Fe  Fe13      1.0  0.14084  0.23945  0.49740  1.0000
  C   C97       1.0  0.99655  0.49199  0.91061  1.0000
  H   H169      1.0  0.08784  0.43167  0.69609  1.0000
  H   H170      1.0  0.08145  0.41127  0.72582  1.0000
  S   S22       1.0  0.31145  0.14096  0.54710  1.0000
  H   H171      1.0  0.07836  0.43230  0.85649  1.0000
  S   S23       1.0  0.24169  0.12521  0.52346  1.0000
  C   C98       1.0  0.17137  0.17827  0.51087  1.0000
  C   C99       1.0  0.99961  0.46957  0.91895  1.0000
  H   H172      1.0  0.07277  0.35903  0.89578  1.0000
  H   H173      1.0  0.18548  0.42937  0.51819  1.0000
  H   H174      1.0  0.28629  0.39413  0.67057  1.0000
  N   N7        1.0  0.25271  0.08891  0.60956  1.0000
  H   H175      1.0  0.08099  0.12561  0.50026  1.0000
  S   S24       1.0  0.16318  0.32703  0.54153  1.0000
  S   S25       1.0  0.11685  0.24878  0.52513  1.0000
  H   H176      1.0  0.17560  0.04760  0.61788  1.0000
  Fe  Fe14      1.0  0.01870  0.38841  0.83489  1.0000
  H   H177      1.0  0.28643  0.09894  0.58694  1.0000
  S   S26       1.0  0.04799  0.37718  0.82442  1.0000
  H   H178      1.0  0.02776  0.35033  0.88923  1.0000
  H   H179      1.0  0.22707  0.04839  0.60755  1.0000
  S   S27       1.0  0.02704  0.42374  0.85847  1.0000
  H   H180      1.0  0.21663  0.43595  0.52685  1.0000
  H   H181      1.0  0.04973  0.41483  0.94824  1.0000
  Fe  Fe15      1.0  0.18929  0.39752  0.69186  1.0000
  S   S28       1.0  0.19122  0.39920  0.73944  1.0000
  S   S29       1.0  0.17040  0.35793  0.67172  1.0000
  Fe  Fe16      1.0  0.21528  0.45562  0.68739  1.0000
  S   S30       1.0  0.21922  0.46088  0.73417  1.0000
  H   H182      1.0  0.08405  0.44152  0.90860  1.0000
  Fe  Fe17      1.0  0.23063  0.43101  0.73394  1.0000
  S   S31       1.0  0.26778  0.43889  0.75408  1.0000
  Fe  Fe18      1.0  0.17952  0.42863  0.73593  1.0000
  S   S32       1.0  0.15067  0.43550  0.75808  1.0000
  S   S33       1.0  0.22899  0.42782  0.68655  1.0000
  S   S34       1.0  0.17522  0.42482  0.68887  1.0000
  H   H183      1.0  0.05754  0.17494  0.52265  1.0000
  H   H184      1.0  0.09842  0.16651  0.49889  1.0000
  C   C100      1.0  0.30673  0.43404  0.77514  1.0000
  C   C101      1.0  0.28074  0.42338  0.77403  1.0000
  C   C102      1.0  0.26617  0.40131  0.78916  1.0000
  C   C103      1.0  0.27746  0.39015  0.80506  1.0000
  H   H185      1.0  0.10215  0.35872  0.60327  1.0000
  H   H186      1.0  0.32435  0.28665  0.93199  1.0000
  H   H187      1.0  0.24628  0.39324  0.78929  1.0000
  C   C104      1.0  0.24462  0.14832  0.60399  1.0000
  C   C105      1.0  0.07633  0.39363  0.80557  1.0000
  C   C106      1.0  0.08492  0.41781  0.79474  1.0000
  C   C107      1.0  0.10774  0.43031  0.78059  1.0000
  C   C108      1.0  0.12222  0.41878  0.77667  1.0000
  C   C109      1.0  0.11376  0.39470  0.78774  1.0000
  C   C110      1.0  0.09096  0.38221  0.80199  1.0000
  H   H188      1.0  0.07407  0.42699  0.79742  1.0000
  H   H189      1.0  0.11415  0.44903  0.77243  1.0000
  H   H190      1.0  0.12504  0.38594  0.78579  1.0000
  H   H191      1.0  0.08472  0.36366  0.81055  1.0000
  S   S35       1.0  0.31658  0.38606  0.82721  1.0000
  H   H192      1.0  0.13405  0.36892  0.61298  1.0000
  H   H193      1.0  0.03698  0.33481  0.91511  1.0000
  C   C111      1.0  0.22668  0.06629  0.61056  1.0000
  H   H194      1.0  0.26573  0.35320  0.67005  1.0000
  C   C112      1.0  0.16519  0.33487  0.57803  1.0000
  C   C113      1.0  0.17894  0.36048  0.58638  1.0000
  C   C114      1.0  0.18093  0.36784  0.61486  1.0000
  C   C115      1.0  0.16914  0.34964  0.63553  1.0000
  C   C116      1.0  0.15555  0.32399  0.62730  1.0000
  C   C117      1.0  0.15354  0.31663  0.59876  1.0000
  H   H195      1.0  0.18812  0.37480  0.57072  1.0000
  H   H196      1.0  0.19146  0.38763  0.62078  1.0000
  H   H197      1.0  0.14634  0.30970  0.64307  1.0000
  H   H198      1.0  0.14291  0.29687  0.59279  1.0000
  H   H199      1.0  0.04663  0.40397  0.89863  1.0000
  C   C118      1.0  0.06228  0.40045  0.90268  1.0000
  H   H200      1.0  0.17108  0.38331  0.51606  1.0000
  C   C119      1.0  0.99643  0.39692  0.96759  1.0000
  H   H201      1.0  0.10245  0.42652  0.91084  1.0000
  Fe  Fe19      1.0  0.28149  0.13646  0.51523  1.0000
  C   C120      1.0  0.25229  0.11160  0.59788  1.0000
  H   H202      1.0  0.01947  0.37261  0.92964  1.0000
  H   H203      1.0  0.29110  0.08135  0.54051  1.0000
  H   H204      1.0  0.27133  0.12665  0.59237  1.0000
  C   C121      1.0  0.08682  0.17644  0.54815  1.0000
  C   C122      1.0  0.18983  0.17198  0.50467  1.0000
  H   H205      1.0  0.09957  0.19706  0.54592  1.0000
  C   C123      1.0  0.18480  0.04178  0.63397  1.0000
  N   N8        1.0  0.24701  0.35947  0.70477  1.0000
  C   C124      1.0  0.24679  0.34567  0.67830  1.0000
  C   C125      1.0  0.26252  0.35658  0.72766  1.0000
  C   C126      1.0  0.22052  0.34732  0.71465  1.0000
  C   C127      1.0  0.25595  0.38700  0.69947  1.0000
  H   H206      1.0  0.24030  0.32550  0.68319  1.0000
  C   C128      1.0  0.23042  0.34597  0.65349  1.0000
  C   C129      1.0  0.21662  0.35545  0.74419  1.0000
  S   S36       1.0  0.00853  0.46223  0.81045  1.0000
  H   H207      1.0  0.10997  0.35494  0.90024  1.0000
  H   H208      1.0  0.07038  0.36363  0.95121  1.0000
  H   H209      1.0  0.32479  0.28577  0.80594  1.0000
  C   C130      1.0  0.18920  0.34087  0.75188  1.0000
  H   H210      1.0  0.31195  0.25495  0.82206  1.0000
  H   H211      1.0  0.04055  0.08596  0.50425  1.0000
  H   H212      1.0  0.26846  0.37200  0.74366  1.0000
  H   H213      1.0  0.25123  0.33864  0.73925  1.0000
  H   H214      1.0  0.21193  0.32634  0.71466  1.0000
  H   H215      1.0  0.20907  0.35155  0.69996  1.0000
  H   H216      1.0  0.24309  0.38904  0.68477  1.0000
  H   H217      1.0  0.25541  0.39651  0.71908  1.0000
  H   H218      1.0  0.29614  0.40607  0.70610  1.0000
  C   C131      1.0  0.27189  0.06527  0.54288  1.0000
  H   H219      1.0  0.21052  0.33628  0.65907  1.0000
  H   H220      1.0  0.31827  0.45119  0.76372  1.0000
  H   H221      1.0  0.22270  0.37585  0.74471  1.0000
  H   H222      1.0  0.22701  0.35177  0.76081  1.0000
  C   C132      1.0  0.30197  0.12189  0.67045  1.0000
  H   H223      1.0  0.31832  0.35635  0.73734  1.0000
  H   H224      1.0  0.22022  0.33247  0.61052  1.0000
  H   H225      1.0  0.23687  0.14534  0.58225  1.0000
  C   C133      1.0  0.28807  0.42920  0.67954  1.0000
  H   H226      1.0  0.27250  0.04935  0.55327  1.0000
  H   H227      1.0  0.09806  0.41854  0.85939  1.0000
  Fe  Fe20      1.0  0.99801  0.42450  0.83067  1.0000
  S   S37       1.0  0.00297  0.41127  0.93378  1.0000
  H   H228      1.0  0.30650  0.31333  0.94399  1.0000
  H   H229      1.0  0.30977  0.37724  0.75408  1.0000
  H   H230      1.0  0.17771  0.34358  0.73573  1.0000
  H   H231      1.0  0.18266  0.32038  0.75365  1.0000
  H   H232      1.0  0.18664  0.34788  0.77241  1.0000
  C   C134      1.0  0.09371  0.43247  0.86880  1.0000
  H   H233      1.0  0.29756  0.99455  0.93185  1.0000
  C   C135      1.0  0.19107  0.39708  0.51335  1.0000
  H   H234      1.0  0.09807  0.16702  0.55021  1.0000
  H   H235      1.0  0.27049  0.06733  0.59920  1.0000
  C   C136      1.0  0.99854  0.32322  0.91497  1.0000
  H   H236      1.0  0.26341  0.05885  0.52162  1.0000
  H   H237      1.0  0.18850  0.15491  0.51296  1.0000
  C   C137      1.0  0.17032  0.00202  0.50232  1.0000
  H   H238      1.0  0.06085  0.38777  0.88518  1.0000
  C   C138      1.0  0.26521  0.09426  0.63818  1.0000
  H   H239      1.0  0.32014  0.20162  0.62159  1.0000
  H   H240      1.0  0.20200  0.38989  0.52448  1.0000
  H   H241      1.0  0.24171  0.10652  0.57771  1.0000
  C   C139      1.0  0.24048  0.12348  0.61636  1.0000
  C   C140      1.0  0.29217  0.11688  0.64013  1.0000
  C   C141      1.0  0.21200  0.06223  0.63800  1.0000
  Fe  Fe21      1.0  0.99567  0.39900  0.88715  1.0000
  H   H242      1.0  0.22618  0.31217  0.63262  1.0000
  H   H243      1.0  0.26555  0.07719  0.64574  1.0000
  H   H244      1.0  0.25458  0.09799  0.65408  1.0000
  H   H245      1.0  0.09482  0.39500  0.94720  1.0000
  H   H246      1.0  0.03003  0.30149  0.71359  1.0000
  S   S38       1.0  0.20002  0.05411  0.50155  1.0000
  H   H247      1.0  0.08124  0.42337  0.95340  1.0000
  H   H248      1.0  0.24847  0.12776  0.63795  1.0000
  H   H249      1.0  0.05687  0.14526  0.52630  1.0000
  H   H250      1.0  0.30490  0.11305  0.62776  1.0000
  H   H251      1.0  0.29315  0.13445  0.63246  1.0000
  H   H252      1.0  0.22005  0.05595  0.65498  1.0000
  H   H253      1.0  0.21251  0.07964  0.64536  1.0000
  H   H254      1.0  0.17490  0.03878  0.65407  1.0000
  C   C142      1.0  0.09449  0.42077  0.70838  1.0000
  S   S39       1.0  0.14896  0.20768  0.50986  1.0000
  H   H255      1.0  0.19157  0.41799  0.55047  1.0000
  H   H256      1.0  0.99592  0.31455  0.93602  1.0000
  C   C143      1.0  0.31651  0.17580  0.58832  1.0000
  N   N9        1.0  0.09971  0.36112  0.69142  1.0000
  C   C144      1.0  0.10505  0.38554  0.70559  1.0000
  C   C145      1.0  0.11387  0.35068  0.70695  1.0000
  C   C146      1.0  0.10993  0.36732  0.66203  1.0000
  C   C147      1.0  0.07228  0.34199  0.68958  1.0000
  C   C148      1.0  0.05581  0.34216  0.71379  1.0000
  C   C149      1.0  0.09581  0.40135  0.68935  1.0000
  C   C150      1.0  0.10690  0.34479  0.64374  1.0000
  C   C151      1.0  0.10559  0.34142  0.73717  1.0000
  C   C152      1.0  0.12390  0.33543  0.75206  1.0000
  C   C153      1.0  0.02959  0.31935  0.71159  1.0000
  H   H257      1.0  0.29179  0.34359  0.75989  1.0000
  H   H258      1.0  0.12536  0.39804  0.70919  1.0000
  H   H259      1.0  0.09740  0.38224  0.72703  1.0000
  H   H260      1.0  0.11237  0.33400  0.69581  1.0000
  H   H261      1.0  0.13408  0.36504  0.70763  1.0000
  H   H262      1.0  0.13007  0.38176  0.66287  1.0000
  H   H263      1.0  0.10072  0.37585  0.64977  1.0000
  H   H264      1.0  0.06392  0.34464  0.66996  1.0000
  H   H265      1.0  0.06950  0.32256  0.68778  1.0000
  H   H266      1.0  0.05412  0.35936  0.71288  1.0000
  H   H267      1.0  0.06341  0.34190  0.73482  1.0000
  H   H268      1.0  0.10894  0.41194  0.67231  1.0000
  H   H269      1.0  0.07720  0.38914  0.67966  1.0000
  H   H270      1.0  0.08740  0.32903  0.64320  1.0000
  H   H271      1.0  0.11883  0.33748  0.65176  1.0000
  H   H272      1.0  0.10427  0.35571  0.75003  1.0000
  H   H273      1.0  0.08725  0.32377  0.73654  1.0000
  H   H274      1.0  0.14227  0.35285  0.75467  1.0000
  H   H275      1.0  0.11696  0.32782  0.77324  1.0000
  H   H276      1.0  0.12610  0.32114  0.73994  1.0000
  H   H277      1.0  0.01818  0.32025  0.72882  1.0000
  H   H278      1.0  0.02066  0.31930  0.69121  1.0000
  C   C154      1.0  0.10265  0.35949  0.91917  1.0000
  H   H279      1.0  0.23520  0.15599  0.61703  1.0000
  C   C155      1.0  0.31803  0.42295  0.79113  1.0000
  C   C156      1.0  0.17268  0.20053  0.50060  1.0000
  H   H280      1.0  0.28009  0.33699  0.70840  1.0000
  H   H281      1.0  0.15611  0.00583  0.50952  1.0000
  H   H282      1.0  0.21515  0.06677  0.59269  1.0000
  H   H283      1.0  0.29734  0.37047  0.70362  1.0000
  C   C157      1.0  0.05659  0.39701  0.98372  1.0000
  H   H284      1.0  0.11860  0.37235  0.93300  1.0000
  H   H285      1.0  0.09064  0.34163  0.93040  1.0000
  H   H286      1.0  0.02953  0.35701  0.95339  1.0000
  H   H287      1.0  0.03186  0.19490  0.51786  1.0000
  H   H288      1.0  0.26472  0.16253  0.60377  1.0000
  H   H289      1.0  0.11038  0.45155  0.86730  1.0000
  H   H290      1.0  0.10036  0.38909  0.89805  1.0000
  H   H291      1.0  0.18328  0.02363  0.62730  1.0000
  H   H292      1.0  0.26597  0.37326  0.81689  1.0000
  H   H293      1.0  0.25175  0.34163  0.62016  1.0000
  C   C158      1.0  0.07800  0.37970  0.93629  1.0000
  C   C159      1.0  0.28276  0.40308  0.68880  1.0000
  H   H294      1.0  0.03632  0.38474  0.98658  1.0000
  C   C160      1.0  0.26758  0.08238  0.58989  1.0000
  H   H295      1.0  0.11317  0.43422  0.71724  1.0000
  C   C161      1.0  0.19657  0.42168  0.52797  1.0000
  H   H296      1.0  0.31447  0.29650  0.90084  1.0000
  H   H297      1.0  0.23718  0.05728  0.56004  1.0000
  C   C162      1.0  0.02562  0.34384  0.91127  1.0000
  H   H298      1.0  0.30187  0.10503  0.67923  1.0000
  C   C163      1.0  0.25643  0.07351  0.55979  1.0000
  C   C164      1.0  0.23236  0.33219  0.62769  1.0000
  C   C165      1.0  0.30235  0.35831  0.74406  1.0000
  Fe  Fe22      1.0  0.14438  0.28975  0.51592  1.0000
  H   H299      1.0  0.25628  0.08913  0.54823  1.0000
  H   H300      1.0  0.01332  0.43295  0.98914  1.0000
  H   H301      1.0  0.30357  0.17888  0.57597  1.0000
  N   N10       1.0  0.05913  0.38795  0.93077  1.0000
  C   C166      1.0  0.08662  0.42623  0.89953  1.0000
  C   C167      1.0  0.30348  0.40096  0.80638  1.0000
  H   H302      1.0  0.23622  0.36557  0.64713  1.0000
  C   C168      1.0  0.28586  0.35553  0.71864  1.0000
  H   H303      1.0  0.07611  0.17323  0.56766  1.0000
  H   H304      1.0  0.11364  0.33692  0.60126  1.0000
  H   H305      1.0  0.06583  0.38602  0.98897  1.0000
  C   C169      1.0  0.08782  0.37211  0.91029  1.0000
  C   C170      1.0  0.01738  0.19512  0.50533  1.0000
  C   C171      1.0  0.03299  0.36585  0.93237  1.0000
  C   C172      1.0  0.06202  0.40691  0.95315  1.0000
  S   S40       1.0  0.22365  0.48635  0.65506  1.0000
  C   C173      1.0  0.11464  0.35293  0.61348  1.0000
  H   H306      1.0  0.01930  0.47591  0.92434  1.0000
  H   H307      1.0  0.22013  0.11059  0.61714  1.0000
  H   H308      1.0  0.30761  0.44051  0.67273  1.0000
  H   H309      1.0  0.32138  0.13796  0.67113  1.0000
  H   H310      1.0  0.29061  0.12701  0.68377  1.0000
  H   H311      1.0  0.31707  0.25488  0.90477  1.0000
  C   C174      1.0  0.06904  0.16577  0.52285  1.0000
  C   C175      1.0  0.99756  0.48260  0.82114  1.0000
  H   H312      1.0  0.31273  0.21344  0.91513  1.0000
  H   H313      1.0  0.27568  0.42757  0.66167  1.0000
  C   C176      1.0  0.00423  0.41268  0.99164  1.0000
  C   C177      1.0  0.32362  0.15879  0.57870  1.0000
  H   H314      1.0  0.99386  0.45594  0.90107  1.0000
  H   H315      1.0  0.15603  0.16587  0.52396  1.0000
  H   H316      1.0  0.28539  0.43947  0.69719  1.0000
  H   H317      1.0  0.99328  0.30823  0.89872  1.0000
  H   H318      1.0  0.32393  0.28032  0.86586  1.0000
  S   S41       1.0  0.02442  0.63289  0.05308  1.0000
  H   H319      1.0  0.24065  0.94123  0.34066  1.0000
  Fe  Fe23      1.0  0.12319  0.84918  0.45305  1.0000
  S   S42       1.0  0.12142  0.83060  0.41054  1.0000
  S   S43       1.0  0.11506  0.88107  0.45096  1.0000
  H   H320      1.0  0.09570  0.63173  0.20213  1.0000
  S   S44       1.0  0.02611  0.60919  0.12917  1.0000
  C   C178      1.0  0.18275  0.97133  0.48938  1.0000
  Fe  Fe24      1.0  0.02021  0.63426  0.15930  1.0000
  S   S45       1.0  0.04686  0.65763  0.19576  1.0000
  Fe  Fe25      1.0  0.00714  0.62103  0.09664  1.0000
  S   S46       1.0  0.27718  0.60583  0.31621  1.0000
  Fe  Fe26      1.0  0.08609  0.85990  0.48376  1.0000
  H   H321      1.0  0.26769  0.55729  0.37341  1.0000
  S   S47       1.0  0.30572  0.66421  0.36633  1.0000
  Fe  Fe27      1.0  0.20375  0.80257  0.30005  1.0000
  S   S48       1.0  0.20204  0.81855  0.25773  1.0000
  S   S49       1.0  0.20232  0.81535  0.34515  1.0000
  Fe  Fe28      1.0  0.22192  0.76825  0.27433  1.0000
  S   S50       1.0  0.22128  0.78174  0.23068  1.0000
  S   S51       1.0  0.22835  0.73514  0.28364  1.0000
  Fe  Fe29      1.0  0.23890  0.82122  0.24896  1.0000
  S   S52       1.0  0.27694  0.85330  0.23444  1.0000
  Fe  Fe30      1.0  0.18432  0.77773  0.24206  1.0000
  S   S53       1.0  0.15368  0.75887  0.20776  1.0000
  S   S54       1.0  0.24150  0.80754  0.29207  1.0000
  S   S55       1.0  0.18405  0.76200  0.28482  1.0000
  C   C179      1.0  0.27631  0.85830  0.13117  1.0000
  H   H322      1.0  0.16472  0.88167  0.37687  1.0000
  C   C180      1.0  0.29753  0.73300  0.31599  1.0000
  C   C181      1.0  0.29954  0.75604  0.30771  1.0000
  C   C182      1.0  0.27878  0.75698  0.29698  1.0000
  C   C183      1.0  0.25561  0.73490  0.29486  1.0000
  C   C184      1.0  0.25370  0.71181  0.30263  1.0000
  C   C185      1.0  0.27453  0.71082  0.31303  1.0000
  H   H323      1.0  0.14653  0.88520  0.40222  1.0000
  H   H324      1.0  0.28063  0.77476  0.29054  1.0000
  H   H325      1.0  0.23592  0.69459  0.30098  1.0000
  H   H326      1.0  0.27268  0.69296  0.31926  1.0000
  C   C186      1.0  0.26743  0.52650  0.30334  1.0000
  C   C187      1.0  0.24757  0.53072  0.29891  1.0000
  C   C188      1.0  0.25090  0.55509  0.30309  1.0000
  C   C189      1.0  0.27410  0.57554  0.31147  1.0000
  C   C190      1.0  0.29397  0.57131  0.31586  1.0000
  C   C191      1.0  0.29058  0.54688  0.31203  1.0000
  H   H327      1.0  0.29950  0.60537  0.46521  1.0000
  H   H328      1.0  0.23542  0.55817  0.29957  1.0000
  H   H329      1.0  0.04462  0.80839  0.35125  1.0000
  H   H330      1.0  0.30608  0.54384  0.31547  1.0000
  C   C192      1.0  0.22305  0.93107  0.32825  1.0000
  H   H331      1.0  0.22668  0.61065  0.38197  1.0000
  C   C193      1.0  0.12371  0.73092  0.20496  1.0000
  C   C194      1.0  0.10961  0.71858  0.22846  1.0000
  C   C195      1.0  0.08627  0.69629  0.22515  1.0000
  C   C196      1.0  0.07635  0.68615  0.19832  1.0000
  C   C197      1.0  0.09025  0.69871  0.17477  1.0000
  C   C198      1.0  0.11369  0.72091  0.17811  1.0000
  H   H332      1.0  0.11655  0.72634  0.24921  1.0000
  H   H333      1.0  0.07569  0.68694  0.24354  1.0000
  H   H334      1.0  0.08297  0.69130  0.15398  1.0000
  H   H335      1.0  0.12414  0.73040  0.15969  1.0000
  C   C199      1.0  0.20619  0.90222  0.41346  1.0000
  H   H336      1.0  0.22582  0.88750  0.43768  1.0000
  H   H337      1.0  0.07591  0.79536  0.34285  1.0000
  C   C200      1.0  0.31022  0.92693  0.18245  1.0000
  C   C201      1.0  0.28430  0.91095  0.18373  1.0000
  C   C202      1.0  0.27371  0.88865  0.19984  1.0000
  C   C203      1.0  0.28896  0.88188  0.21484  1.0000
  C   C204      1.0  0.31489  0.89788  0.21356  1.0000
  C   C205      1.0  0.03577  0.81915  0.40317  1.0000
  H   H338      1.0  0.27227  0.91582  0.17209  1.0000
  H   H339      1.0  0.25377  0.87658  0.20045  1.0000
  C   C206      1.0  0.01007  0.62536  0.01908  1.0000
  C   C207      1.0  0.22728  0.51313  0.37962  1.0000
  C   C208      1.0  0.14433  0.82679  0.39272  1.0000
  C   C209      1.0  0.13982  0.81826  0.36460  1.0000
  C   C210      1.0  0.15735  0.81483  0.34961  1.0000
  C   C211      1.0  0.17964  0.81979  0.36266  1.0000
  C   C212      1.0  0.18417  0.82840  0.39078  1.0000
  C   C213      1.0  0.16664  0.83184  0.40574  1.0000
  H   H340      1.0  0.12261  0.81418  0.35429  1.0000
  H   H341      1.0  0.15356  0.80818  0.32804  1.0000
  H   H342      1.0  0.20131  0.83227  0.40112  1.0000
  H   H343      1.0  0.17032  0.83822  0.42740  1.0000
  H   H344      1.0  0.09248  0.64725  0.17171  1.0000
  C   C214      1.0  0.06377  0.83910  0.40262  1.0000
  N   N11       1.0  0.17962  0.92026  0.39214  1.0000
  C   C215      1.0  0.17486  0.97929  0.41585  1.0000
  H   H345      1.0  0.02004  0.77600  0.34861  1.0000
  C   C216      1.0  0.03957  0.78860  0.35556  1.0000
  H   H346      1.0  0.15809  0.93852  0.38337  1.0000
  H   H347      1.0  0.20786  0.49892  0.38473  1.0000
  H   H348      1.0  0.31728  0.77328  0.30965  1.0000
  H   H349      1.0  0.31287  0.52738  0.21026  1.0000
  C   C217      1.0  0.30617  0.90571  0.10355  1.0000
  H   H350      1.0  0.02679  0.82079  0.38355  1.0000
  H   H351      1.0  0.06329  0.79447  0.39213  1.0000
  H   H352      1.0  0.23663  0.52486  0.42278  1.0000
  C   C218      1.0  0.26791  0.57372  0.44251  1.0000
  H   H353      1.0  0.20198  0.97422  0.39398  1.0000
  H   H354      1.0  0.32194  0.87046  0.02947  1.0000
  H   H355      1.0  0.30711  0.56122  0.25430  1.0000
  C   C219      1.0  0.01357  0.56541  0.00397  1.0000
  H   H356      1.0  0.16064  0.97004  0.43228  1.0000
  C   C220      1.0  0.16894  0.93663  0.40094  1.0000
  H   H357      1.0  0.28789  0.89265  0.09371  1.0000
  H   H358      1.0  0.29538  0.83909  0.03107  1.0000
  H   H359      1.0  0.22624  0.54263  0.40286  1.0000
  H   H360      1.0  0.22723  0.52121  0.35875  1.0000
  C   C221      1.0  0.04300  0.78454  0.38709  1.0000
  Fe  Fe31      1.0  0.14286  0.89949  0.48627  1.0000
  H   H361      1.0  0.24380  0.82656  0.14916  1.0000
  H   H362      1.0  0.07272  0.83957  0.42304  1.0000
  H   H363      1.0  0.15684  0.49626  0.25118  1.0000
  H   H364      1.0  0.05975  0.77135  0.47530  1.0000
  H   H365      1.0  0.26270  0.81148  0.34962  1.0000
  H   H366      1.0  0.27550  0.54265  0.40079  1.0000
  N   N12       1.0  0.31725  0.50003  0.23504  1.0000
  H   H367      1.0  0.29666  0.81920  0.30090  1.0000
  H   H368      1.0  0.26928  0.82100  0.14368  1.0000
  C   C222      1.0  0.12542  0.86904  0.34596  1.0000
  H   H369      1.0  0.29451  0.51717  0.24101  1.0000
  H   H370      1.0  0.22968  0.51524  0.29225  1.0000
  H   H371      1.0  0.03336  0.75195  0.43313  1.0000
  C   C223      1.0  0.31831  0.58760  0.38767  1.0000
  S   S56       1.0  0.32247  0.95414  0.16048  1.0000
  H   H372      1.0  0.31421  0.95603  0.06144  1.0000
  C   C224      1.0  0.03933  0.76301  0.47651  1.0000
  C   C225      1.0  0.30528  0.58747  0.41531  1.0000
  H   H373      1.0  0.07991  0.53701  0.21561  1.0000
  C   C226      1.0  0.09601  0.50578  0.19173  1.0000
  S   S57       1.0  0.15289  0.86855  0.48646  1.0000
  H   H374      1.0  0.29846  0.84424  0.32286  1.0000
  H   H375      1.0  0.03512  0.77401  0.49186  1.0000
  C   C227      1.0  0.26570  0.55335  0.39640  1.0000
  H   H376      1.0  0.21618  0.94706  0.37745  1.0000
  N   N13       1.0  0.31981  0.89213  0.11226  1.0000
  H   H377      1.0  0.22283  0.91333  0.40046  1.0000
  C   C228      1.0  0.10561  0.64333  0.18370  1.0000
  H   H378      1.0  0.22480  0.91824  0.31303  1.0000
  C   C229      1.0  0.24727  0.59220  0.39445  1.0000
  H   H379      1.0  0.31202  0.58690  0.32185  1.0000
  C   C230      1.0  0.31686  0.66854  0.45975  1.0000
  C   C231      1.0  0.01651  0.68649  0.05203  1.0000
  H   H380      1.0  0.19520  0.73877  0.14545  1.0000
  S   S58       1.0  0.09319  0.82749  0.48432  1.0000
  Fe  Fe32      1.0  0.31126  0.64252  0.33138  1.0000
  H   H381      1.0  0.17886  0.90806  0.43488  1.0000
  H   H382      1.0  0.11382  0.52118  0.18335  1.0000
  H   H383      1.0  0.19928  0.88522  0.45491  1.0000
  H   H384      1.0  0.11129  0.63251  0.16988  1.0000
  S   S59       1.0  0.17676  0.93973  0.48390  1.0000
  H   H385      1.0  0.99620  0.77774  0.38199  1.0000
  H   H386      1.0  0.19415  0.88365  0.40329  1.0000
  H   H387      1.0  0.02249  0.55069  0.13721  1.0000
  C   C232      1.0  0.06763  0.86546  0.39726  1.0000
  N   N14       1.0  0.16825  0.68628  0.22511  1.0000
  C   C233      1.0  0.17517  0.71121  0.21162  1.0000
  C   C234      1.0  0.16128  0.68677  0.25528  1.0000
  C   C235      1.0  0.19125  0.68383  0.22561  1.0000
  C   C236      1.0  0.14759  0.66388  0.20933  1.0000
  C   C237      1.0  0.12815  0.66826  0.19324  1.0000
  C   C238      1.0  0.18746  0.71546  0.18245  1.0000
  C   C239      1.0  0.18955  0.66144  0.24263  1.0000
  C   C240      1.0  0.14033  0.69273  0.26045  1.0000
  C   C241      1.0  0.13548  0.69285  0.29180  1.0000
  C   C242      1.0  0.18561  0.73576  0.16576  1.0000
  C   C243      1.0  0.21232  0.65866  0.23807  1.0000
  H   H388      1.0  0.18831  0.72711  0.22558  1.0000
  H   H389      1.0  0.15889  0.71384  0.20945  1.0000
  H   H390      1.0  0.15516  0.66822  0.26534  1.0000
  H   H391      1.0  0.17784  0.70098  0.26756  1.0000
  H   H392      1.0  0.20743  0.70146  0.23434  1.0000
  H   H393      1.0  0.19642  0.68176  0.20389  1.0000
  H   H394      1.0  0.15529  0.65656  0.19323  1.0000
  H   H395      1.0  0.13738  0.64777  0.22385  1.0000
  H   H396      1.0  0.13642  0.67967  0.17419  1.0000
  H   H397      1.0  0.12128  0.67850  0.20597  1.0000
  H   H398      1.0  0.20747  0.72171  0.18535  1.0000
  H   H399      1.0  0.17881  0.69783  0.16963  1.0000
  H   H400      1.0  0.17272  0.64342  0.23642  1.0000
  H   H401      1.0  0.18899  0.66476  0.26549  1.0000
  H   H402      1.0  0.14559  0.71170  0.25244  1.0000
  H   H403      1.0  0.12268  0.67815  0.25062  1.0000
  H   H404      1.0  0.15258  0.70695  0.30312  1.0000
  H   H405      1.0  0.12089  0.69797  0.29489  1.0000
  H   H406      1.0  0.12901  0.67387  0.30086  1.0000
  H   H407      1.0  0.16588  0.72987  0.16130  1.0000
  H   H408      1.0  0.19444  0.75395  0.17761  1.0000
  H   H409      1.0  0.22952  0.67630  0.24453  1.0000
  H   H410      1.0  0.21093  0.64293  0.25100  1.0000
  H   H411      1.0  0.21358  0.65440  0.21566  1.0000
  N   N15       1.0  0.26083  0.78131  0.37520  1.0000
  C   C244      1.0  0.23332  0.77130  0.37776  1.0000
  C   C245      1.0  0.27366  0.79576  0.40172  1.0000
  C   C246      1.0  0.26984  0.79802  0.34980  1.0000
  C   C247      1.0  0.26642  0.76018  0.37133  1.0000
  C   C248      1.0  0.25669  0.73968  0.39434  1.0000
  C   C249      1.0  0.21650  0.75254  0.35441  1.0000
  C   C250      1.0  0.29839  0.81339  0.34598  1.0000
  C   C251      1.0  0.27233  0.82010  0.40725  1.0000
  C   C252      1.0  0.28690  0.83374  0.43392  1.0000
  C   C253      1.0  0.26133  0.71815  0.38647  1.0000
  C   C254      1.0  0.18923  0.74395  0.35939  1.0000
  H   H412      1.0  0.23830  0.50343  0.37838  1.0000
  H   H413      1.0  0.22937  0.78717  0.37742  1.0000
  H   H414      1.0  0.22657  0.76212  0.39843  1.0000
  H   H415      1.0  0.26541  0.78361  0.42036  1.0000
  H   H416      1.0  0.29349  0.80074  0.40217  1.0000
  C   C255      1.0  0.30507  0.83051  0.32038  1.0000
  H   H417      1.0  0.26206  0.78640  0.33036  1.0000
  H   H418      1.0  0.25914  0.75061  0.35068  1.0000
  H   H419      1.0  0.28679  0.76781  0.37052  1.0000
  H   H420      1.0  0.23646  0.73133  0.39734  1.0000
  H   H421      1.0  0.26643  0.74782  0.41467  1.0000
  H   H422      1.0  0.22129  0.76158  0.33355  1.0000
  H   H423      1.0  0.21823  0.73536  0.35374  1.0000
  H   H424      1.0  0.30598  0.80062  0.34275  1.0000
  H   H425      1.0  0.30801  0.82573  0.36441  1.0000
  H   H426      1.0  0.28017  0.83361  0.38971  1.0000
  H   H427      1.0  0.25283  0.81545  0.41007  1.0000
  C   C256      1.0  0.18791  0.96419  0.41028  1.0000
  H   H428      1.0  0.99947  0.84745  0.45838  1.0000
  H   H429      1.0  0.12712  0.89958  0.36999  1.0000
  H   H430      1.0  0.25058  0.70824  0.36716  1.0000
  H   H431      1.0  0.28138  0.72545  0.38280  1.0000
  H   H432      1.0  0.29126  0.67340  0.48555  1.0000
  H   H433      1.0  0.18614  0.76034  0.35881  1.0000
  H   H434      1.0  0.17759  0.73039  0.34262  1.0000
  H   H435      1.0  0.18328  0.73444  0.37997  1.0000
  H   H436      1.0  0.06444  0.53948  0.18458  1.0000
  C   C257      1.0  0.07510  0.51083  0.18161  1.0000
  H   H437      1.0  0.03127  0.74336  0.48421  1.0000
  H   H438      1.0  0.28553  0.85096  0.43747  1.0000
  H   H439      1.0  0.28171  0.60058  0.37641  1.0000
  H   H440      1.0  0.05921  0.86595  0.37673  1.0000
  H   H441      1.0  0.05140  0.76265  0.34023  1.0000
  S   S60       1.0  0.00340  0.64792  0.12633  1.0000
  H   H442      1.0  0.00781  0.75246  0.44963  1.0000
  C   C258      1.0  0.27430  0.59776  0.39799  1.0000
  C   C259      1.0  0.00202  0.77514  0.40332  1.0000
  H   H443      1.0  0.28616  0.92611  0.06591  1.0000
  C   C260      1.0  0.19246  0.91715  0.41770  1.0000
  H   H444      1.0  0.27596  0.61231  0.45337  1.0000
  H   H445      1.0  0.02949  0.68920  0.06969  1.0000
  C   C261      1.0  0.01158  0.53037  0.13913  1.0000
  H   H446      1.0  0.22757  0.91548  0.45276  1.0000
  C   C262      1.0  0.14048  0.89482  0.36046  1.0000
  C   C263      1.0  0.30314  0.86091  0.06970  1.0000
  H   H447      1.0  0.03252  0.80005  0.45242  1.0000
  C   C264      1.0  0.19762  0.93300  0.36857  1.0000
  C   C265      1.0  0.20122  0.91561  0.34751  1.0000
  H   H448      1.0  0.05925  0.87109  0.41424  1.0000
  C   C266      1.0  0.15818  0.89466  0.38369  1.0000
  H   H449      1.0  0.13790  0.86352  0.33558  1.0000
  H   H450      1.0  0.20688  0.93575  0.42625  1.0000
  H   H451      1.0  0.22012  0.94494  0.31625  1.0000
  C   C267      1.0  0.30510  0.87234  0.13396  1.0000
  H   H452      1.0  0.20458  0.90151  0.35805  1.0000
  H   H453      1.0  0.11287  0.86985  0.32973  1.0000
  H   H454      1.0  0.25631  0.63149  0.39851  1.0000
  H   H455      1.0  0.02208  0.67956  0.03347  1.0000
  H   H456      1.0  0.30680  0.83957  0.43184  1.0000
  H   H457      1.0  0.11394  0.85442  0.36141  1.0000
  H   H458      1.0  0.18447  0.90498  0.33391  1.0000
  H   H459      1.0  0.01817  0.70501  0.04710  1.0000
  C   C268      1.0  0.99597  0.83153  0.47134  1.0000
  H   H460      1.0  0.02784  0.82526  0.42027  1.0000
  H   H461      1.0  0.15077  0.90909  0.34419  1.0000
  H   H462      1.0  0.09762  0.50874  0.21479  1.0000
  H   H463      1.0  0.05306  0.78524  0.31485  1.0000
  H   H464      1.0  0.23719  0.58676  0.41449  1.0000
  H   H465      1.0  0.26951  0.85174  0.10951  1.0000
  N   N16       1.0  0.02961  0.79221  0.40759  1.0000
  H   H466      1.0  0.05678  0.49624  0.18943  1.0000
  C   C269      1.0  0.30583  0.66867  0.48538  1.0000
  C   C270      1.0  0.21526  0.89739  0.44149  1.0000
  C   C271      1.0  0.23808  0.53396  0.40217  1.0000
  H   H467      1.0  0.31125  0.56821  0.37923  1.0000
  N   N17       1.0  0.27772  0.57796  0.41299  1.0000
  C   C272      1.0  0.27925  0.59742  0.46209  1.0000
  H   H468      1.0  0.29251  0.84336  0.08194  1.0000
  S   S61       1.0  0.26452  0.49632  0.29831  1.0000
  H   H469      1.0  0.26948  0.87122  0.13755  1.0000
  H   H470      1.0  0.27923  0.82133  0.45245  1.0000
  H   H471      1.0  0.08778  0.87941  0.39686  1.0000
  H   H472      1.0  0.10753  0.49640  0.14307  1.0000
  H   H473      1.0  0.27042  0.84095  0.17244  1.0000
  S   S62       1.0  0.04717  0.85445  0.47505  1.0000
  H   H474      1.0  0.24755  0.56575  0.44258  1.0000
  H   H475      1.0  0.23732  0.57691  0.37855  1.0000
  C   C273      1.0  0.31894  0.49532  0.26605  1.0000
  H   H476      1.0  0.31526  0.59859  0.37137  1.0000
  C   C274      1.0  0.02828  0.76279  0.44759  1.0000
  H   H477      1.0  0.28563  0.61658  0.40837  1.0000
  C   C275      1.0  0.02297  0.51551  0.13692  1.0000
  C   C276      1.0  0.24629  0.61521  0.38377  1.0000
  H   H478      1.0  0.25456  0.62050  0.36263  1.0000
  C   C277      1.0  0.26431  0.83531  0.15028  1.0000
  H   H479      1.0  0.27099  0.55917  0.45289  1.0000
  H   H480      1.0  0.16585  0.98100  0.39635  1.0000
  C   C278      1.0  0.07965  0.53643  0.19229  1.0000
  H   H481      1.0  0.30030  0.94766  0.09551  1.0000
  C   C279      1.0  0.03784  0.79006  0.43691  1.0000
  H   H482      1.0  0.13779  0.51289  0.21915  1.0000
  H   H483      1.0  0.07421  0.51119  0.15835  1.0000
  H   H484      1.0  0.30815  0.50173  0.27859  1.0000
  H   H485      1.0  0.04266  0.52456  0.13314  1.0000
  H   H486      1.0  0.15566  0.92756  0.41842  1.0000
  H   H487      1.0  0.09750  0.55195  0.18439  1.0000
  C   C280      1.0  0.31312  0.52231  0.23263  1.0000
  H   H488      1.0  0.30894  0.88117  0.15529  1.0000
  H   H489      1.0  0.07346  0.83501  0.38588  1.0000
  H   H490      1.0  0.25533  0.70425  0.40376  1.0000
  H   H491      1.0  0.05846  0.80000  0.43835  1.0000
  H   H492      1.0  0.22085  0.98802  0.47669  1.0000
  C   C281      1.0  0.05600  0.78255  0.33735  1.0000
  C   C282      1.0  0.31175  0.85372  0.04310  1.0000
  H   H493      1.0  0.19175  0.94423  0.35547  1.0000
  H   H494      1.0  0.03681  0.76414  0.38925  1.0000
  H   H495      1.0  0.19767  0.96465  0.43004  1.0000
  H   H496      1.0  0.29072  0.86808  0.06298  1.0000
  C   C283      1.0  0.20660  0.99178  0.48384  1.0000
  H   H497      1.0  0.30901  0.57597  0.43063  1.0000
  H   H498      1.0  0.31088  0.67326  0.44041  1.0000
  H   H499      1.0  0.30170  0.91319  0.12255  1.0000
  C   C284      1.0  0.01622  0.83012  0.48284  1.0000
  C   C285      1.0  0.30404  0.94008  0.07607  1.0000
  H   H500      1.0  0.31536  0.60721  0.42366  1.0000
  H   H501      1.0  0.32377  0.92151  0.06299  1.0000
  H   H502      1.0  0.32400  0.84593  0.04850  1.0000
  H   H503      1.0  0.31119  0.85806  0.13495  1.0000
  C   C286      1.0  0.32546  0.92028  0.19764  1.0000
  H   H504      1.0  0.99700  0.75493  0.40396  1.0000
  H   H505      1.0  0.03275  0.56926  0.00818  1.0000
  C   C287      1.0  0.31979  0.92801  0.08300  1.0000
  H   H506      1.0  0.00312  0.55936  0.02385  1.0000
  H   H507      1.0  0.24736  0.58364  0.48959  1.0000
  C   C288      1.0  0.26765  0.59091  0.49114  1.0000
  H   H508      1.0  0.04353  0.65236  0.99848  1.0000
  S   S63       1.0  0.32398  0.73315  0.33086  1.0000
  H   H509      1.0  0.32553  0.84125  0.31801  1.0000
  H   H510      1.0  0.32526  0.57249  0.22280  1.0000
  C   C289      1.0  0.30293  0.85259  0.72733  1.0000
  H   H511      1.0  0.18200  0.77522  0.61198  1.0000
  H   H512      1.0  0.21416  0.89885  0.53278  1.0000
  H   H513      1.0  0.27722  0.78155  0.79781  1.0000
  Fe  Fe33      1.0  0.12226  0.84955  0.51778  1.0000
  S   S64       1.0  0.12057  0.82902  0.55855  1.0000
  S   S65       1.0  0.11348  0.88120  0.51922  1.0000
  C   C290      1.0  0.15097  0.89735  0.58910  1.0000
  Fe  Fe34      1.0  0.02376  0.63498  0.83783  1.0000
  S   S66       1.0  0.06560  0.66112  0.82992  1.0000
  H   H514      1.0  0.19393  0.89789  0.68238  1.0000
  S   S67       1.0  0.01447  0.60645  0.87270  1.0000
  H   H515      1.0  0.07509  0.57117  0.87319  1.0000
  C   C291      1.0  0.31198  0.76039  0.72299  1.0000
  H   H516      1.0  0.27167  0.80569  0.62333  1.0000
  H   H517      1.0  0.05393  0.58303  0.86928  1.0000
  S   S68       1.0  0.28417  0.63859  0.61973  1.0000
  Fe  Fe35      1.0  0.20006  0.81057  0.68205  1.0000
  S   S69       1.0  0.18510  0.81130  0.72474  1.0000
  S   S70       1.0  0.20375  0.83209  0.64140  1.0000
  Fe  Fe36      1.0  0.22166  0.77766  0.70266  1.0000
  S   S71       1.0  0.20790  0.77544  0.74679  1.0000
  S   S72       1.0  0.25033  0.76948  0.68324  1.0000
  Fe  Fe37      1.0  0.17239  0.76952  0.72629  1.0000
  S   S73       1.0  0.13147  0.74273  0.73707  1.0000
  Fe  Fe38      1.0  0.22138  0.81721  0.74289  1.0000
  S   S74       1.0  0.24195  0.84186  0.78150  1.0000
  S   S75       1.0  0.18529  0.76874  0.68225  1.0000
  S   S76       1.0  0.23712  0.81963  0.70048  1.0000
  C   C292      1.0  0.26338  0.70191  0.67487  1.0000
  C   C293      1.0  0.27751  0.72412  0.65986  1.0000
  C   C294      1.0  0.27299  0.74442  0.66252  1.0000
  C   C295      1.0  0.25434  0.74280  0.68019  1.0000
  C   C296      1.0  0.23997  0.72050  0.69496  1.0000
  C   C297      1.0  0.24450  0.70018  0.69229  1.0000
  H   H518      1.0  0.29207  0.72571  0.64639  1.0000
  H   H519      1.0  0.28421  0.76157  0.65098  1.0000
  H   H520      1.0  0.22554  0.71897  0.70860  1.0000
  H   H521      1.0  0.17149  0.71246  0.67686  1.0000
  H   H522      1.0  0.19339  0.87260  0.66200  1.0000
  H   H523      1.0  0.03354  0.55721  0.95739  1.0000
  C   C298      1.0  0.24814  0.51825  0.65738  1.0000
  C   C299      1.0  0.24943  0.53557  0.63712  1.0000
  C   C300      1.0  0.26880  0.56098  0.63792  1.0000
  C   C301      1.0  0.28726  0.56928  0.65890  1.0000
  C   C302      1.0  0.28585  0.55202  0.67927  1.0000
  C   C303      1.0  0.26630  0.52670  0.67870  1.0000
  H   H524      1.0  0.23546  0.52921  0.62056  1.0000
  H   H525      1.0  0.26974  0.57399  0.62198  1.0000
  H   H526      1.0  0.30008  0.55821  0.69552  1.0000
  H   H527      1.0  0.26556  0.51361  0.69442  1.0000
  H   H528      1.0  0.18085  0.68900  0.67732  1.0000
  H   H529      1.0  0.17615  0.73687  0.56578  1.0000
  H   H530      1.0  0.05519  0.56856  0.91814  1.0000
  C   C304      1.0  0.08333  0.68283  0.80297  1.0000
  C   C305      1.0  0.07245  0.68968  0.78138  1.0000
  C   C306      1.0  0.08744  0.70752  0.76111  1.0000
  C   C307      1.0  0.11350  0.71881  0.76202  1.0000
  C   C308      1.0  0.12433  0.71156  0.78325  1.0000
  C   C309      1.0  0.10939  0.69391  0.80367  1.0000
  H   H531      1.0  0.05250  0.68139  0.78043  1.0000
  H   H532      1.0  0.07872  0.71279  0.74476  1.0000
  H   H533      1.0  0.14421  0.71960  0.78400  1.0000
  H   H534      1.0  0.11805  0.68866  0.82011  1.0000
  C   C310      1.0  0.01320  0.63376  0.96843  1.0000
  H   H535      1.0  0.02413  0.64438  0.95074  1.0000
  C   C311      1.0  0.22506  0.61838  0.72173  1.0000
  C   C312      1.0  0.30263  0.91100  0.76461  1.0000
  C   C313      1.0  0.28058  0.88743  0.76124  1.0000
  C   C314      1.0  0.26938  0.87224  0.78454  1.0000
  C   C315      1.0  0.28026  0.88133  0.81130  1.0000
  C   C316      1.0  0.30216  0.90509  0.81473  1.0000
  H   H536      1.0  0.29697  0.62578  0.75180  1.0000
  H   H537      1.0  0.27225  0.88108  0.74058  1.0000
  H   H538      1.0  0.27174  0.86992  0.82956  1.0000
  C   C317      1.0  0.25795  0.59203  0.71648  1.0000
  C   C318      1.0  0.14404  0.82982  0.58097  1.0000
  C   C319      1.0  0.13725  0.81765  0.60707  1.0000
  C   C320      1.0  0.15519  0.81795  0.62573  1.0000
  C   C321      1.0  0.18022  0.83057  0.61854  1.0000
  C   C322      1.0  0.18704  0.84281  0.59247  1.0000
  C   C323      1.0  0.16905  0.84229  0.57368  1.0000
  H   H539      1.0  0.11793  0.80786  0.61289  1.0000
  H   H540      1.0  0.14964  0.80846  0.64570  1.0000
  H   H541      1.0  0.20636  0.85258  0.58667  1.0000
  H   H542      1.0  0.17451  0.85143  0.55354  1.0000
  H   H543      1.0  0.29240  0.85309  0.68352  1.0000
  H   H544      1.0  0.04542  0.55188  0.85604  1.0000
  H   H545      1.0  0.20046  0.61344  0.75640  1.0000
  H   H546      1.0  0.09056  0.87818  0.61064  1.0000
  H   H547      1.0  0.15558  0.68460  0.65453  1.0000
  H   H548      1.0  0.04603  0.53752  0.90448  1.0000
  H   H549      1.0  0.22253  0.89897  0.67366  1.0000
  C   C324      1.0  0.30181  0.62632  0.72936  1.0000
  H   H550      1.0  0.29902  0.77879  0.76445  1.0000
  H   H551      1.0  0.20770  0.99131  0.60519  1.0000
  H   H552      1.0  0.30565  0.78735  0.70114  1.0000
  C   C325      1.0  0.00065  0.54473  0.98153  1.0000
  H   H553      1.0  0.27731  0.77624  0.73874  1.0000
  H   H554      1.0  0.31812  0.86551  0.74192  1.0000
  H   H555      1.0  0.28349  0.81369  0.71347  1.0000
  N   N18       1.0  0.00274  0.53485  0.92892  1.0000
  C   C326      1.0  0.30725  0.86543  0.69883  1.0000
  H   H556      1.0  0.16702  0.71074  0.60779  1.0000
  H   H557      1.0  0.29246  0.74460  0.72211  1.0000
  C   C327      1.0  0.00441  0.51154  0.93508  1.0000
  H   H558      1.0  0.99233  0.75841  0.55901  1.0000
  H   H559      1.0  0.23072  0.59430  0.61449  1.0000
  H   H560      1.0  0.17389  0.93936  0.62542  1.0000
  C   C328      1.0  0.13055  0.89448  0.60956  1.0000
  C   C329      1.0  0.29714  0.78821  0.74550  1.0000
  H   H561      1.0  0.23343  0.68305  0.70394  1.0000
  N   N19       1.0  0.15697  0.79551  0.81482  1.0000
  C   C330      1.0  0.16214  0.77420  0.80985  1.0000
  C   C331      1.0  0.13579  0.79164  0.79565  1.0000
  C   C332      1.0  0.17980  0.81975  0.80631  1.0000
  C   C333      1.0  0.15150  0.79790  0.84518  1.0000
  C   C334      1.0  0.13817  0.77311  0.86240  1.0000
  C   C335      1.0  0.18624  0.77758  0.82403  1.0000
  C   C336      1.0  0.17771  0.84401  0.80669  1.0000
  C   C337      1.0  0.11008  0.76830  0.80129  1.0000
  C   C338      1.0  0.09123  0.76491  0.77833  1.0000
  C   C339      1.0  0.12967  0.77768  0.89066  1.0000
  C   C340      1.0  0.18631  0.75264  0.82514  1.0000
  C   C341      1.0  0.20308  0.86773  0.80319  1.0000
  H   H562      1.0  0.16365  0.77162  0.78690  1.0000
  H   H563      1.0  0.14640  0.75588  0.81652  1.0000
  H   H564      1.0  0.13258  0.80788  0.79713  1.0000
  H   H565      1.0  0.14055  0.79066  0.77332  1.0000
  H   H566      1.0  0.18550  0.81774  0.78485  1.0000
  H   H567      1.0  0.19584  0.82381  0.82037  1.0000
  H   H568      1.0  0.16896  0.81053  0.85715  1.0000
  H   H569      1.0  0.14029  0.80745  0.84645  1.0000
  H   H570      1.0  0.15093  0.76578  0.86681  1.0000
  H   H571      1.0  0.12172  0.75789  0.85130  1.0000
  H   H572      1.0  0.20260  0.79107  0.81180  1.0000
  H   H573      1.0  0.18873  0.78524  0.84571  1.0000
  H   H574      1.0  0.16983  0.84590  0.82669  1.0000
  H   H575      1.0  0.16580  0.84369  0.78894  1.0000
  H   H576      1.0  0.11087  0.75065  0.80212  1.0000
  H   H577      1.0  0.10280  0.77087  0.82143  1.0000
  H   H578      1.0  0.09742  0.76219  0.75749  1.0000
  H   H579      1.0  0.07307  0.74788  0.78273  1.0000
  H   H580      1.0  0.08864  0.78159  0.77758  1.0000
  H   H581      1.0  0.11582  0.78387  0.88749  1.0000
  H   H582      1.0  0.12080  0.75983  0.90275  1.0000
  H   H583      1.0  0.14572  0.79224  0.90315  1.0000
  H   H584      1.0  0.20354  0.75567  0.83587  1.0000
  H   H585      1.0  0.17014  0.73828  0.83697  1.0000
  H   H586      1.0  0.18571  0.74539  0.80357  1.0000
  H   H587      1.0  0.21108  0.86718  0.78266  1.0000
  H   H588      1.0  0.20111  0.88479  0.80385  1.0000
  H   H589      1.0  0.21615  0.86938  0.82030  1.0000
  H   H590      1.0  0.10418  0.89309  0.57799  1.0000
  N   N20       1.0  0.20217  0.74483  0.60020  1.0000
  C   C342      1.0  0.18870  0.75295  0.57994  1.0000
  C   C343      1.0  0.21290  0.73132  0.58408  1.0000
  C   C344      1.0  0.18311  0.72587  0.61990  1.0000
  C   C345      1.0  0.22222  0.76659  0.61727  1.0000
  C   C346      1.0  0.23546  0.79307  0.60347  1.0000
  C   C347      1.0  0.19245  0.71262  0.64039  1.0000
  C   C348      1.0  0.23271  0.74699  0.56208  1.0000
  C   C349      1.0  0.24015  0.73036  0.54563  1.0000
  C   C350      1.0  0.25777  0.81194  0.62127  1.0000
  S   S77       1.0  0.99706  0.64709  0.85352  1.0000
  H   H591      1.0  0.20177  0.76779  0.56563  1.0000
  H   H592      1.0  0.22230  0.72443  0.59864  1.0000
  H   H593      1.0  0.19768  0.71419  0.57335  1.0000
  H   H594      1.0  0.25173  0.81381  0.64253  1.0000
  C   C351      1.0  0.00980  0.50778  0.81197  1.0000
  H   H595      1.0  0.21473  0.76923  0.63722  1.0000
  H   H596      1.0  0.23676  0.76208  0.62403  1.0000
  H   H597      1.0  0.22267  0.80070  0.60160  1.0000
  H   H598      1.0  0.24210  0.79260  0.58220  1.0000
  H   H599      1.0  0.28513  0.84992  0.73521  1.0000
  H   H600      1.0  0.21028  0.72649  0.65045  1.0000
  H   H601      1.0  0.19510  0.69828  0.62902  1.0000
  H   H602      1.0  0.22590  0.75575  0.54668  1.0000
  H   H603      1.0  0.24977  0.76188  0.57280  1.0000
  C   C352      1.0  0.25788  0.79867  0.81559  1.0000
  H   H604      1.0  0.24057  0.78769  0.80291  1.0000
  H   H605      1.0  0.22393  0.71524  0.53386  1.0000
  H   H606      1.0  0.26666  0.83079  0.61127  1.0000
  S   S78       1.0  0.26877  0.67605  0.67284  1.0000
  H   H607      1.0  0.28518  0.62031  0.68831  1.0000
  H   H608      1.0  0.20686  0.54409  0.74297  1.0000
  H   H609      1.0  0.20084  0.54706  0.69089  1.0000
  C   C353      1.0  0.21852  0.59894  0.62691  1.0000
  H   H610      1.0  0.17536  0.73516  0.63319  1.0000
  H   H611      1.0  0.18224  0.79471  0.56627  1.0000
  C   C354      1.0  0.01431  0.55326  0.95317  1.0000
  C   C355      1.0  0.04402  0.55439  0.90161  1.0000
  H   H612      1.0  0.20451  0.94898  0.61575  1.0000
  H   H613      1.0  0.29675  0.81268  0.81326  1.0000
  H   H614      1.0  0.20396  0.91286  0.50637  1.0000
  H   H615      1.0  0.22615  0.93272  0.53282  1.0000
  C   C356      1.0  0.05522  0.56583  0.87328  1.0000
  H   H616      1.0  0.19983  0.58999  0.66618  1.0000
  C   C357      1.0  0.27922  0.61921  0.71035  1.0000
  C   C358      1.0  0.20949  0.91390  0.52882  1.0000
  N   N21       1.0  0.30277  0.81475  0.75213  1.0000
  C   C359      1.0  0.02413  0.63834  0.99559  1.0000
  H   H617      1.0  0.99241  0.50117  0.95303  1.0000
  H   H618      1.0  0.19861  0.95903  0.56812  1.0000
  C   C360      1.0  0.17245  0.76264  0.59364  1.0000
  H   H619      1.0  0.14643  0.87793  0.58290  1.0000
  H   H620      1.0  0.16962  0.87794  0.62264  1.0000
  H   H621      1.0  0.32178  0.75847  0.70465  1.0000
  H   H622      1.0  0.13407  0.91313  0.61728  1.0000
  C   C361      1.0  0.17387  0.69885  0.66363  1.0000
  H   H623      1.0  0.26551  0.57966  0.71011  1.0000
  C   C362      1.0  0.18915  0.98097  0.59468  1.0000
  C   C363      1.0  0.18816  0.91031  0.54740  1.0000
  C   C364      1.0  0.21999  0.55475  0.69951  1.0000
  H   H624      1.0  0.21381  0.50634  0.70714  1.0000
  H   H625      1.0  0.19636  0.89374  0.58185  1.0000
  H   H626      1.0  0.31118  0.92242  0.74636  1.0000
  H   H627      1.0  0.18340  0.92491  0.54187  1.0000
  C   C365      1.0  0.17872  0.89877  0.62651  1.0000
  C   C366      1.0  0.16547  0.77695  0.57258  1.0000
  H   H628      1.0  0.21415  0.92714  0.58270  1.0000
  C   C367      1.0  0.20354  0.89335  0.66586  1.0000
  H   H629      1.0  0.01095  0.54377  0.81238  1.0000
  H   H630      1.0  0.15488  0.74636  0.60112  1.0000
  C   C368      1.0  0.20509  0.90743  0.63879  1.0000
  H   H631      1.0  0.00671  0.53588  0.88379  1.0000
  C   C369      1.0  0.21267  0.58544  0.65510  1.0000
  H   H632      1.0  0.25577  0.59004  0.73967  1.0000
  H   H633      1.0  0.21632  0.90350  0.62389  1.0000
  H   H634      1.0  0.17466  0.97857  0.60972  1.0000
  H   H635      1.0  0.02650  0.80803  0.50883  1.0000
  H   H636      1.0  0.12949  0.88272  0.62778  1.0000
  H   H637      1.0  0.21523  0.92791  0.64390  1.0000
  C   C370      1.0  0.18504  0.93878  0.60770  1.0000
  N   N22       1.0  0.17741  0.91183  0.60014  1.0000
  H   H638      1.0  0.25580  0.78883  0.83579  1.0000
  H   H639      1.0  0.02353  0.51678  0.94213  1.0000
  N   N23       1.0  0.23307  0.58327  0.70214  1.0000
  C   C371      1.0  0.00128  0.52441  0.81943  1.0000
  S   S79       1.0  0.29872  0.66290  0.54233  1.0000
  C   C372      1.0  0.19497  0.91104  0.57900  1.0000
  Fe  Fe39      1.0  0.29798  0.67380  0.64626  1.0000
  H   H640      1.0  0.23581  0.54526  0.73627  1.0000
  C   C373      1.0  0.20484  0.62193  0.73516  1.0000
  H   H641      1.0  0.21139  0.64244  0.73728  1.0000
  H   H642      1.0  0.22979  0.54907  0.68427  1.0000
  H   H643      1.0  0.01638  0.57194  0.94774  1.0000
  H   H644      1.0  0.18772  0.61311  0.72182  1.0000
  H   H645      1.0  0.24717  0.61470  0.67304  1.0000
  C   C374      1.0  0.10498  0.88128  0.59518  1.0000
  H   H646      1.0  0.14851  0.90573  0.56960  1.0000
  H   H647      1.0  0.15241  0.78195  0.58238  1.0000
  H   H648      1.0  0.17181  0.89162  0.54202  1.0000
  H   H649      1.0  0.22880  0.62760  0.70099  1.0000
  H   H650      1.0  0.24857  0.58828  0.66083  1.0000
  H   H651      1.0  0.31028  0.91172  0.83543  1.0000
  C   C375      1.0  0.31361  0.92008  0.79134  1.0000
  C   C376      1.0  0.28011  0.80089  0.79990  1.0000
  C   C377      1.0  0.01124  0.80940  0.49963  1.0000
  H   H652      1.0  0.22778  0.61975  0.63016  1.0000
  H   H653      1.0  0.27373  0.63365  0.71313  1.0000
  Fe  Fe40      1.0  0.31184  0.66369  0.58765  1.0000
  C   C378      1.0  0.23669  0.59373  0.67280  1.0000
  C   C379      1.0  0.30123  0.82649  0.72482  1.0000
  H   H654      1.0  0.31908  0.98429  0.94249  1.0000
  H   H655      1.0  0.16825  0.90136  0.64371  1.0000
  H   H656      1.0  0.19748  0.57950  0.71157  1.0000
  H   H657      1.0  0.24179  0.62839  0.73546  1.0000
  H   H658      1.0  0.20301  0.56487  0.65042  1.0000
  C   C380      1.0  0.21737  0.54015  0.72712  1.0000
  S   S80       1.0  0.99608  0.60566  0.80738  1.0000
  H   H659      1.0  0.31681  0.64576  0.72459  1.0000
  H   H660      1.0  0.30895  0.61316  0.72571  1.0000
  H   H661      1.0  0.15621  0.76510  0.55365  1.0000
  H   H662      1.0  0.10066  0.86259  0.58645  1.0000
  H   H663      1.0  0.16568  0.94626  0.57282  1.0000
  C   C381      1.0  0.18404  0.95527  0.58363  1.0000
  H   H664      1.0  0.20105  0.59271  0.61471  1.0000
  C   C382      1.0  0.21703  0.59001  0.71947  1.0000
  H   H665      1.0  0.28621  0.83275  0.77594  1.0000
  H   H666      1.0  0.21617  0.58361  0.74146  1.0000
  H   H667      1.0  0.27613  0.60818  0.50465  1.0000
  H   H668      1.0  0.02602  0.51445  0.79905  1.0000
  H   H669      1.0  0.26448  0.80347  0.75982  1.0000
  S   S81       1.0  0.31280  0.60068  0.66007  1.0000
  H   H670      1.0  0.18458  0.50516  0.71281  1.0000
  H   H671      1.0  0.26063  0.81772  0.82029  1.0000
  C   C383      1.0  0.20340  0.51161  0.72179  1.0000
  H   H672      1.0  0.01435  0.58313  0.99712  1.0000
  H   H673      1.0  0.30945  0.98167  0.90626  1.0000
  H   H674      1.0  0.01645  0.56552  0.89945  1.0000
  H   H675      1.0  0.27104  0.57658  0.50135  1.0000
  H   H676      1.0  0.25470  0.74206  0.53034  1.0000
  C   C384      1.0  0.28284  0.81346  0.77099  1.0000
  H   H677      1.0  0.20131  0.50157  0.74187  1.0000
  H   H678      1.0  0.18883  0.99251  0.57684  1.0000
  H   H679      1.0  0.00152  0.76502  0.59547  1.0000
  C   C385      1.0  0.01647  0.54757  0.90262  1.0000
  H   H680      1.0  0.24779  0.72156  0.56005  1.0000
  H   H681      1.0  0.30703  0.88339  0.70122  1.0000
  Fe  Fe41      1.0  0.31551  0.63536  0.63884  1.0000
  H   H682      1.0  0.31623  0.82891  0.71051  1.0000
  C   C386      1.0  0.31364  0.66297  0.51081  1.0000
  H   H683      1.0  0.32110  0.75888  0.74249  1.0000
  H   H684      1.0  0.00050  0.52756  0.98927  1.0000
  S   S82       1.0  0.32355  0.69920  0.61305  1.0000
  H   H685      1.0  0.14621  0.96131  0.50307  1.0000
  H   H686      1.0  0.00794  0.50043  0.89174  1.0000
  C   C387      1.0  0.31296  0.78587  0.72204  1.0000
  C   C388      1.0  0.16464  0.97667  0.49872  1.0000
  C   C389      1.0  0.31416  0.99355  0.92557  1.0000
  Fe  Fe42      1.0  0.40242  0.03989  0.16437  1.0000
  H   H687      1.0  0.60415  0.13956  0.23748  1.0000
  S   S83       1.0  0.41484  0.07280  0.19630  1.0000
  C   C390      1.0  0.63190  0.39358  0.38533  1.0000
  S   S84       1.0  0.42900  0.03913  0.13302  1.0000
  H   H688      1.0  0.44207  0.40024  0.23400  1.0000
  H   H689      1.0  0.47586  0.40039  0.13889  1.0000
  Fe  Fe43      1.0  0.63308  0.02735  0.13933  1.0000
  C   C391      1.0  0.33671  0.22828  0.43907  1.0000
  H   H690      1.0  0.34331  0.04688  0.26049  1.0000
  H   H691      1.0  0.37458  0.12635  0.35445  1.0000
  C   C392      1.0  0.62067  0.41073  0.29791  1.0000
  S   S85       1.0  0.61682  0.03445  0.10012  1.0000
  Fe  Fe44      1.0  0.63374  0.32126  0.35247  1.0000
  H   H692      1.0  0.59988  0.18836  0.49498  1.0000
  S   S86       1.0  0.59354  0.31297  0.35396  1.0000
  C   C393      1.0  0.37021  0.49335  0.19953  1.0000
  H   H693      1.0  0.57881  0.28677  0.43082  1.0000
  Fe  Fe45      1.0  0.40882  0.21357  0.30890  1.0000
  S   S87       1.0  0.38700  0.21129  0.26986  1.0000
  S   S88       1.0  0.39433  0.20325  0.35377  1.0000
  Fe  Fe46      1.0  0.45839  0.23556  0.27710  1.0000
  S   S89       1.0  0.43948  0.23444  0.23596  1.0000
  S   S90       1.0  0.49946  0.24725  0.27297  1.0000
  Fe  Fe47      1.0  0.41893  0.25000  0.25972  1.0000
  S   S91       1.0  0.41817  0.28637  0.24926  1.0000
  Fe  Fe48      1.0  0.40940  0.19583  0.24919  1.0000
  S   S92       1.0  0.39166  0.16238  0.21818  1.0000
  S   S93       1.0  0.43970  0.25329  0.30030  1.0000
  S   S94       1.0  0.42928  0.19594  0.28878  1.0000
  Fe  Fe49      1.0  0.37788  0.36125  0.14394  1.0000
  S   S95       1.0  0.39693  0.39400  0.17380  1.0000
  S   S96       1.0  0.36635  0.32060  0.15583  1.0000
  Fe  Fe50      1.0  0.37546  0.39482  0.09710  1.0000
  S   S97       1.0  0.39353  0.42965  0.12509  1.0000
  S   S98       1.0  0.36416  0.40001  0.05274  1.0000
  Fe  Fe51      1.0  0.41972  0.41601  0.13718  1.0000
  S   S99       1.0  0.46180  0.43836  0.14084  1.0000
  Fe  Fe52      1.0  0.36860  0.40449  0.15928  1.0000
  S   S100      1.0  0.40279  0.38230  0.10788  1.0000
  S   S101      1.0  0.34861  0.37075  0.13055  1.0000
  C   C394      1.0  0.37293  0.39437  0.01917  1.0000
  H   H694      1.0  0.42690  0.46224  0.07514  1.0000
  H   H695      1.0  0.37404  0.45385  0.04995  1.0000
  H   H696      1.0  0.39121  0.37468  0.03430  1.0000
  C   C395      1.0  0.46112  0.42039  0.06446  1.0000
  H   H697      1.0  0.38601  0.13648  0.29141  1.0000
  S   S102      1.0  0.39374  0.00233  0.18282  1.0000
  C   C396      1.0  0.36470  0.08697  0.27171  1.0000
  C   C397      1.0  0.62732  0.38436  0.33282  1.0000
  C   C398      1.0  0.45619  0.41565  0.22097  1.0000
  H   H698      1.0  0.44739  0.47552  0.12566  1.0000
  H   H699      1.0  0.34941  0.22314  0.33205  1.0000
  C   C399      1.0  0.38033  0.31105  0.18229  1.0000
  C   C400      1.0  0.37651  0.28632  0.18167  1.0000
  C   C401      1.0  0.38773  0.27827  0.20201  1.0000
  C   C402      1.0  0.40266  0.29481  0.22349  1.0000
  C   C403      1.0  0.40592  0.31933  0.22447  1.0000
  C   C404      1.0  0.39491  0.32741  0.20398  1.0000
  H   H700      1.0  0.36508  0.27340  0.16510  1.0000
  H   H701      1.0  0.38494  0.25934  0.20098  1.0000
  H   H702      1.0  0.41714  0.33217  0.24119  1.0000
  H   H703      1.0  0.39760  0.34627  0.20501  1.0000
  S   S103      1.0  0.36996  0.02224  0.13380  1.0000
  H   H704      1.0  0.60405  0.31012  0.45209  1.0000
  C   C405      1.0  0.38306  0.07907  0.02393  1.0000
  C   C406      1.0  0.56771  0.29453  0.33108  1.0000
  C   C407      1.0  0.56984  0.28355  0.30622  1.0000
  C   C408      1.0  0.54878  0.26923  0.28872  1.0000
  C   C409      1.0  0.52534  0.26562  0.29584  1.0000
  C   C410      1.0  0.52327  0.27678  0.32057  1.0000
  C   C411      1.0  0.54435  0.29120  0.33798  1.0000
  H   H705      1.0  0.58767  0.28600  0.30056  1.0000
  H   H706      1.0  0.55064  0.26076  0.26962  1.0000
  H   H707      1.0  0.50543  0.27426  0.32631  1.0000
  H   H708      1.0  0.54247  0.29965  0.35710  1.0000
  H   H709      1.0  0.63002  0.32368  0.25906  1.0000
  H   H710      1.0  0.48571  0.42303  0.19321  1.0000
  H   H711      1.0  0.61106  0.02842  0.02126  1.0000
  S   S104      1.0  0.40339  0.03199  0.05754  1.0000
  H   H712      1.0  0.57770  0.28394  0.46858  1.0000
  H   H713      1.0  0.58173  0.11376  0.18046  1.0000
  C   C412      1.0  0.34004  0.11878  0.27371  1.0000
  C   C413      1.0  0.60032  0.13967  0.21463  1.0000
  C   C414      1.0  0.65061  0.45776  0.29206  1.0000
  C   C415      1.0  0.40687  0.09665  0.20242  1.0000
  C   C416      1.0  0.41619  0.11178  0.22686  1.0000
  C   C417      1.0  0.41161  0.13182  0.23213  1.0000
  C   C418      1.0  0.39754  0.13697  0.21298  1.0000
  C   C419      1.0  0.38776  0.12151  0.18884  1.0000
  C   C420      1.0  0.39243  0.10152  0.18352  1.0000
  H   H714      1.0  0.42713  0.10798  0.24178  1.0000
  H   H715      1.0  0.41909  0.14337  0.25089  1.0000
  H   H716      1.0  0.37672  0.12519  0.17391  1.0000
  H   H717      1.0  0.38508  0.09007  0.16465  1.0000
  C   C421      1.0  0.36152  0.18208  0.39704  1.0000
  C   C422      1.0  0.36411  0.18472  0.36772  1.0000
  N   N24       1.0  0.63467  0.26517  0.47483  1.0000
  H   H718      1.0  0.37786  0.19153  0.41049  1.0000
  C   C423      1.0  0.32804  0.34842  0.23376  1.0000
  H   H719      1.0  0.60762  0.11327  0.15052  1.0000
  H   H720      1.0  0.33487  0.28028  0.23268  1.0000
  H   H721      1.0  0.60231  0.07487  0.10546  1.0000
  H   H722      1.0  0.34028  0.23940  0.38601  1.0000
  H   H723      1.0  0.61452  0.28025  0.42930  1.0000
  H   H724      1.0  0.64258  0.22518  0.49310  1.0000
  C   C424      1.0  0.60298  0.27403  0.44831  1.0000
  H   H725      1.0  0.43581  0.20461  0.18378  1.0000
  C   C425      1.0  0.64637  0.34771  0.49283  1.0000
  N   N25       1.0  0.46972  0.37299  0.17120  1.0000
  C   C426      1.0  0.45100  0.34869  0.15674  1.0000
  C   C427      1.0  0.48575  0.36744  0.19056  1.0000
  C   C428      1.0  0.45599  0.38338  0.18719  1.0000
  H   H726      1.0  0.47626  0.02937  0.12706  1.0000
  C   C429      1.0  0.38465  0.12632  0.33542  1.0000
  C   C430      1.0  0.43406  0.35106  0.13427  1.0000
  H   H727      1.0  0.35052  0.07829  0.31334  1.0000
  C   C431      1.0  0.47238  0.34999  0.21576  1.0000
  C   C432      1.0  0.49050  0.34604  0.23404  1.0000
  C   C433      1.0  0.52325  0.01556  0.12851  1.0000
  C   C434      1.0  0.41899  0.32636  0.11772  1.0000
  H   H728      1.0  0.61818  0.15060  0.20356  1.0000
  H   H729      1.0  0.43813  0.33500  0.17226  1.0000
  H   H730      1.0  0.46033  0.33908  0.14716  1.0000
  H   H731      1.0  0.49424  0.35810  0.17866  1.0000
  H   H732      1.0  0.50172  0.38529  0.19898  1.0000
  H   H733      1.0  0.44167  0.36859  0.20055  1.0000
  H   H734      1.0  0.44553  0.38884  0.17238  1.0000
  H   H735      1.0  0.33135  0.46871  0.20415  1.0000
  N   N26       1.0  0.44698  0.47214  0.03602  1.0000
  H   H736      1.0  0.48404  0.36813  0.11480  1.0000
  H   H737      1.0  0.50163  0.40914  0.16137  1.0000
  H   H738      1.0  0.42078  0.35539  0.14469  1.0000
  H   H739      1.0  0.44469  0.36611  0.11893  1.0000
  H   H740      1.0  0.58749  0.03706  0.20111  1.0000
  C   C435      1.0  0.51046  0.02860  0.12276  1.0000
  H   H741      1.0  0.46384  0.35813  0.22945  1.0000
  H   H742      1.0  0.45767  0.33103  0.20841  1.0000
  H   H743      1.0  0.49906  0.33709  0.22162  1.0000
  H   H744      1.0  0.50526  0.36431  0.24302  1.0000
  H   H745      1.0  0.48029  0.33326  0.25163  1.0000
  C   C436      1.0  0.47220  0.40697  0.20597  1.0000
  H   H746      1.0  0.43168  0.42792  0.07270  1.0000
  H   H747      1.0  0.65593  0.43431  0.32122  1.0000
  H   H748      1.0  0.40803  0.31042  0.13209  1.0000
  H   H749      1.0  0.40584  0.32806  0.10312  1.0000
  H   H750      1.0  0.43141  0.32210  0.10525  1.0000
  C   C437      1.0  0.47394  0.99667  0.14678  1.0000
  N   N27       1.0  0.59061  0.07335  0.19261  1.0000
  C   C438      1.0  0.56284  0.05927  0.18787  1.0000
  C   C439      1.0  0.60308  0.07716  0.16461  1.0000
  C   C440      1.0  0.59689  0.05660  0.21005  1.0000
  C   C441      1.0  0.60013  0.09831  0.20795  1.0000
  H   H751      1.0  0.60119  0.33654  0.27644  1.0000
  C   C442      1.0  0.54706  0.04971  0.21474  1.0000
  H   H752      1.0  0.38013  0.48374  0.06432  1.0000
  H   H753      1.0  0.60950  0.41577  0.31175  1.0000
  H   H754      1.0  0.62511  0.38229  0.26106  1.0000
  H   H755      1.0  0.35502  0.25475  0.33864  1.0000
  H   H756      1.0  0.55726  0.04223  0.17449  1.0000
  H   H757      1.0  0.55668  0.07063  0.17573  1.0000
  H   H758      1.0  0.58833  0.25399  0.44521  1.0000
  C   C443      1.0  0.48591  0.01919  0.13173  1.0000
  H   H759      1.0  0.39278  0.37735  0.23576  1.0000
  H   H760      1.0  0.58960  0.05468  0.23166  1.0000
  H   H761      1.0  0.60017  0.09579  0.23112  1.0000
  C   C444      1.0  0.52007  0.04232  0.20875  1.0000
  H   H762      1.0  0.56767  0.10306  0.21368  1.0000
  H   H763      1.0  0.54708  0.03260  0.22255  1.0000
  H   H764      1.0  0.55456  0.06413  0.23181  1.0000
  H   H765      1.0  0.46809  0.43209  0.23486  1.0000
  H   H766      1.0  0.62353  0.08683  0.16748  1.0000
  H   H767      1.0  0.47287  0.43095  0.08296  1.0000
  C   C445      1.0  0.39283  0.01504  0.02501  1.0000
  Fe  Fe53      1.0  0.39583  0.01874  0.10345  1.0000
  C   C446      1.0  0.61862  0.27725  0.47537  1.0000
  H   H768      1.0  0.37361  0.47726  0.19690  1.0000
  H   H769      1.0  0.41270  0.48997  0.03149  1.0000
  H   H770      1.0  0.32882  0.20671  0.37995  1.0000
  H   H771      1.0  0.61397  0.41103  0.27620  1.0000
  H   H772      1.0  0.35189  0.04699  0.00449  1.0000
  N   N28       1.0  0.48811  0.18331  0.21059  1.0000
  C   C447      1.0  0.49256  0.16836  0.18840  1.0000
  C   C448      1.0  0.51127  0.20863  0.21591  1.0000
  C   C449      1.0  0.48223  0.16843  0.23749  1.0000
  C   C450      1.0  0.46630  0.18665  0.20310  1.0000
  C   C451      1.0  0.46735  0.19953  0.17484  1.0000
  C   C452      1.0  0.47036  0.14156  0.18150  1.0000
  C   C453      1.0  0.48093  0.18202  0.26448  1.0000
  C   C454      1.0  0.52786  0.22210  0.19042  1.0000
  C   C455      1.0  0.54761  0.24924  0.19810  1.0000
  C   C456      1.0  0.44210  0.19653  0.16707  1.0000
  C   C457      1.0  0.47646  0.12893  0.15762  1.0000
  C   C458      1.0  0.47297  0.16435  0.28964  1.0000
  H   H773      1.0  0.50860  0.16610  0.19492  1.0000
  H   H774      1.0  0.49811  0.17859  0.16826  1.0000
  H   H775      1.0  0.50632  0.22193  0.22605  1.0000
  H   H776      1.0  0.52391  0.20670  0.23124  1.0000
  H   H777      1.0  0.49622  0.16250  0.24170  1.0000
  H   H778      1.0  0.46409  0.15073  0.23550  1.0000
  H   H779      1.0  0.44884  0.16818  0.20324  1.0000
  H   H780      1.0  0.46372  0.19820  0.21935  1.0000
  H   H781      1.0  0.47257  0.19138  0.15724  1.0000
  H   H782      1.0  0.48076  0.22010  0.17670  1.0000
  H   H783      1.0  0.46569  0.12898  0.19989  1.0000
  H   H784      1.0  0.45364  0.14238  0.17486  1.0000
  H   H785      1.0  0.46736  0.18852  0.26193  1.0000
  H   H786      1.0  0.49929  0.19862  0.26988  1.0000
  H   H787      1.0  0.53762  0.21196  0.18381  1.0000
  H   H788      1.0  0.51710  0.22276  0.17214  1.0000
  H   H789      1.0  0.55957  0.25837  0.17976  1.0000
  H   H790      1.0  0.53875  0.26041  0.20420  1.0000
  H   H791      1.0  0.55949  0.24947  0.21586  1.0000
  H   H792      1.0  0.44346  0.20656  0.14720  1.0000
  H   H793      1.0  0.49277  0.12699  0.16333  1.0000
  H   H794      1.0  0.46035  0.10969  0.15358  1.0000
  H   H795      1.0  0.48023  0.13998  0.13802  1.0000
  H   H796      1.0  0.47217  0.17459  0.30855  1.0000
  H   H797      1.0  0.45428  0.14764  0.28576  1.0000
  H   H798      1.0  0.48651  0.15793  0.29385  1.0000
  H   H799      1.0  0.38440  0.10814  0.33361  1.0000
  H   H800      1.0  0.57881  0.08601  0.13842  1.0000
  H   H801      1.0  0.42872  0.44206  0.00500  1.0000
  N   N29       1.0  0.61626  0.38472  0.30455  1.0000
  C   C459      1.0  0.58867  0.36652  0.30516  1.0000
  H   H802      1.0  0.37238  0.37275  0.26435  1.0000
  Fe  Fe54      1.0  0.60957  0.99657  0.08422  1.0000
  C   C460      1.0  0.48618  0.39255  0.15029  1.0000
  H   H803      1.0  0.52981  0.42132  0.12059  1.0000
  C   C461      1.0  0.57426  0.36293  0.27708  1.0000
  H   H804      1.0  0.60668  0.23154  0.45328  1.0000
  C   C462      1.0  0.61941  0.39479  0.35801  1.0000
  H   H805      1.0  0.36082  0.09258  0.25098  1.0000
  C   C463      1.0  0.54774  0.34064  0.27873  1.0000
  H   H806      1.0  0.57973  0.37286  0.32071  1.0000
  H   H807      1.0  0.58481  0.34769  0.31280  1.0000
  H   H808      1.0  0.36702  0.05466  0.28741  1.0000
  H   H809      1.0  0.40871  0.44545  0.04520  1.0000
  H   H810      1.0  0.62650  0.40178  0.40283  1.0000
  H   H811      1.0  0.60366  0.23058  0.49011  1.0000
  H   H812      1.0  0.62001  0.11126  0.20292  1.0000
  H   H813      1.0  0.60509  0.26958  0.49272  1.0000
  C   C464      1.0  0.63575  0.34406  0.25936  1.0000
  H   H814      1.0  0.57318  0.38014  0.27246  1.0000
  H   H815      1.0  0.58318  0.35928  0.25912  1.0000
  C   C465      1.0  0.44076  0.46297  0.00589  1.0000
  C   C466      1.0  0.62117  0.34895  0.28164  1.0000
  H   H816      1.0  0.59911  0.38352  0.36112  1.0000
  H   H817      1.0  0.47325  0.42147  0.04701  1.0000
  C   C467      1.0  0.44468  0.43119  0.05541  1.0000
  H   H818      1.0  0.59746  0.05849  0.15463  1.0000
  H   H819      1.0  0.53773  0.34337  0.29631  1.0000
  H   H820      1.0  0.53747  0.33887  0.25883  1.0000
  H   H821      1.0  0.54792  0.32273  0.28194  1.0000
  H   H822      1.0  0.63037  0.29782  0.47984  1.0000
  H   H823      1.0  0.63118  0.10155  0.11799  1.0000
  N   N30       1.0  0.34733  0.11072  0.30051  1.0000
  C   C468      1.0  0.37299  0.13146  0.30920  1.0000
  H   H824      1.0  0.38418  0.10039  0.27815  1.0000
  H   H825      1.0  0.42291  0.14812  0.32149  1.0000
  H   H826      1.0  0.59827  0.18669  0.45693  1.0000
  C   C469      1.0  0.50513  0.48347  0.13457  1.0000
  H   H827      1.0  0.37288  0.14920  0.31415  1.0000
  H   H828      1.0  0.48251  0.40289  0.22231  1.0000
  H   H829      1.0  0.62383  0.05308  0.25651  1.0000
  H   H830      1.0  0.50339  0.41221  0.09728  1.0000
  H   H831      1.0  0.32879  0.36683  0.23037  1.0000
  H   H832      1.0  0.34933  0.47785  0.23661  1.0000
  H   H833      1.0  0.37551  0.06226  0.25126  1.0000
  H   H834      1.0  0.62040  0.18123  0.47581  1.0000
  H   H835      1.0  0.47584  0.46217  0.03541  1.0000
  H   H836      1.0  0.38628  0.46302  0.08539  1.0000
  H   H837      1.0  0.41956  0.14289  0.35879  1.0000
  S   S105      1.0  0.64806  0.30080  0.37922  1.0000
  C   C470      1.0  0.58575  0.11269  0.20292  1.0000
  H   H838      1.0  0.40280  0.09298  0.01976  1.0000
  C   C471      1.0  0.62489  0.06535  0.21330  1.0000
  H   H839      1.0  0.62463  0.41479  0.35489  1.0000
  C   C472      1.0  0.61095  0.09409  0.11496  1.0000
  C   C473      1.0  0.46055  0.45989  0.04915  1.0000
  H   H840      1.0  0.32740  0.07152  0.28743  1.0000
  C   C474      1.0  0.42367  0.46439  0.05248  1.0000
  H   H841      1.0  0.51430  0.47296  0.13996  1.0000
  H   H842      1.0  0.34090  0.08916  0.35509  1.0000
  H   H843      1.0  0.51012  0.37715  0.13831  1.0000
  H   H844      1.0  0.34445  0.17469  0.32810  1.0000
  S   S106      1.0  0.35132  0.41541  0.19523  1.0000
  C   C475      1.0  0.49828  0.38372  0.12809  1.0000
  Fe  Fe55      1.0  0.57985  0.01210  0.12154  1.0000
  H   H845      1.0  0.41291  0.16566  0.34322  1.0000
  H   H846      1.0  0.35359  0.15899  0.28243  1.0000
  H   H847      1.0  0.52301  0.39864  0.09270  1.0000
  H   H848      1.0  0.51952  0.04604  0.11116  1.0000
  S   S107      1.0  0.55430  0.02865  0.11712  1.0000
  C   C476      1.0  0.63028  0.22066  0.47436  1.0000
  C   C477      1.0  0.32862  0.10701  0.32271  1.0000
  H   H849      1.0  0.43365  0.42017  0.03685  1.0000
  H   H850      1.0  0.35447  0.12401  0.25750  1.0000
  C   C478      1.0  0.34280  0.17249  0.35060  1.0000
  H   H851      1.0  0.44933  0.40026  0.07027  1.0000
  C   C479      1.0  0.34107  0.23551  0.33103  1.0000
  H   H852      1.0  0.37295  0.08920  0.02903  1.0000
  H   H853      1.0  0.60829  0.10649  0.10006  1.0000
  H   H854      1.0  0.33640  0.23680  0.30873  1.0000
  H   H855      1.0  0.35554  0.33577  0.23120  1.0000
  C   C480      1.0  0.35374  0.35239  0.22569  1.0000
  C   C481      1.0  0.46741  0.48481  0.12644  1.0000
  C   C482      1.0  0.38602  0.38147  0.01595  1.0000
  C   C483      1.0  0.33805  0.16711  0.40914  1.0000
  C   C484      1.0  0.47907  0.47104  0.13341  1.0000
  H   H856      1.0  0.42797  0.17623  0.16403  1.0000
  H   H857      1.0  0.58935  0.14928  0.21154  1.0000
  H   H858      1.0  0.44674  0.42165  0.20543  1.0000
  C   C485      1.0  0.41167  0.14706  0.33987  1.0000
  C   C486      1.0  0.59881  0.09344  0.14288  1.0000
  H   H859      1.0  0.37462  0.39280  0.23529  1.0000
  C   C487      1.0  0.51462  0.40535  0.10852  1.0000
  C   C488      1.0  0.37459  0.37524  0.24128  1.0000
  H   H860      1.0  0.35650  0.35540  0.20282  1.0000
  H   H861      1.0  0.33645  0.16509  0.43171  1.0000
  H   H862      1.0  0.64109  0.22347  0.45506  1.0000
  C   C489      1.0  0.34061  0.22328  0.46961  1.0000
  H   H863      1.0  0.63186  0.06225  0.19325  1.0000
  C   C490      1.0  0.34652  0.48467  0.21615  1.0000
  C   C491      1.0  0.61769  0.23693  0.47326  1.0000
  H   H864      1.0  0.50903  0.03480  0.22807  1.0000
  C   C492      1.0  0.61094  0.19254  0.47559  1.0000
  S   S108      1.0  0.59657  0.00731  0.16161  1.0000
  H   H865      1.0  0.51878  0.05894  0.20175  1.0000
  H   H866      1.0  0.35949  0.23774  0.47700  1.0000
  H   H867      1.0  0.33979  0.24775  0.43765  1.0000
  H   H868      1.0  0.64072  0.26284  0.43035  1.0000
  C   C493      1.0  0.59011  0.28968  0.45021  1.0000
  H   H869      1.0  0.34109  0.15101  0.23171  1.0000
  C   C494      1.0  0.62857  0.37722  0.28241  1.0000
  H   H870      1.0  0.63597  0.08567  0.21919  1.0000
  H   H871      1.0  0.62227  0.36473  0.33823  1.0000
  H   H872      1.0  0.64957  0.05629  0.23638  1.0000
  H   H873      1.0  0.33891  0.20436  0.47147  1.0000
  C   C495      1.0  0.36240  0.06107  0.26760  1.0000
  H   H874      1.0  0.65243  0.40450  0.38358  1.0000
  H   H875      1.0  0.35114  0.22727  0.42657  1.0000
  H   H876      1.0  0.46954  0.46945  0.06947  1.0000
  C   C496      1.0  0.34655  0.08608  0.29427  1.0000
  C   C497      1.0  0.65084  0.27463  0.44913  1.0000
  H   H877      1.0  0.38251  0.06778  0.04245  1.0000
  C   C498      1.0  0.62947  0.05009  0.23548  1.0000
  H   H878      1.0  0.62489  0.34312  0.30225  1.0000
  H   H879      1.0  0.42625  0.04097  0.00360  1.0000
  H   H880      1.0  0.61904  0.02963  0.22993  1.0000
  H   H881      1.0  0.65064  0.35006  0.44767  1.0000
  H   H882      1.0  0.51184  0.02740  0.19218  1.0000
  C   C499      1.0  0.38682  0.46999  0.06378  1.0000
  H   H883      1.0  0.33395  0.12538  0.33314  1.0000
  H   H884      1.0  0.32680  0.22423  0.48332  1.0000
  C   C500      1.0  0.33602  0.14181  0.27628  1.0000
  C   C501      1.0  0.41319  0.48274  0.05256  1.0000
  H   H885      1.0  0.62589  0.37363  0.39050  1.0000
  H   H886      1.0  0.65499  0.29412  0.44392  1.0000
  H   H887      1.0  0.65600  0.35521  0.26417  1.0000
  H   H888      1.0  0.63206  0.34919  0.23821  1.0000
  H   H889      1.0  0.33360  0.47683  0.31202  1.0000
  S   S109      1.0  0.65573  0.32211  0.31506  1.0000
  C   C502      1.0  0.32731  0.14715  0.24830  1.0000
  H   H890      1.0  0.64915  0.38819  0.28533  1.0000
  H   H891      1.0  0.64396  0.45729  0.27018  1.0000
  C   C503      1.0  0.60939  0.01704  0.00301  1.0000
  H   H892      1.0  0.64796  0.39482  0.33218  1.0000
  Fe  Fe56      1.0  0.41801  0.00056  0.14917  1.0000
  C   C504      1.0  0.40791  0.02458  0.00126  1.0000
  C   C505      1.0  0.65814  0.34821  0.46757  1.0000
  H   H893      1.0  0.62973  0.34912  0.49219  1.0000
  H   H894      1.0  0.63993  0.46269  0.30674  1.0000
  H   H895      1.0  0.32935  0.42379  0.24359  1.0000
  C   C506      1.0  0.64814  0.43236  0.29969  1.0000
  H   H896      1.0  0.55421  0.01695  0.99882  1.0000
  C   C507      1.0  0.37103  0.06148  0.99860  1.0000
  H   H897      1.0  0.32611  0.34554  0.25686  1.0000
  C   C508      1.0  0.60974  0.99450  0.00645  1.0000
  Fe  Fe57      1.0  0.38740  0.03273  0.84782  1.0000
  S   S110      1.0  0.39296  0.07287  0.84608  1.0000
  S   S111      1.0  0.41039  0.02907  0.88239  1.0000
  H   H898      1.0  0.53816  0.02811  0.88551  1.0000
  S   S112      1.0  0.59000  0.02744  0.84069  1.0000
  H   H899      1.0  0.43888  0.00327  0.93108  1.0000
  Fe  Fe58      1.0  0.61785  0.02617  0.81171  1.0000
  H   H900      1.0  0.36294  0.16492  0.63321  1.0000
  S   S113      1.0  0.62892  0.29939  0.61529  1.0000
  H   H901      1.0  0.52006  0.48324  0.81914  1.0000
  Fe  Fe59      1.0  0.62579  0.32059  0.65231  1.0000
  S   S114      1.0  0.59317  0.30798  0.68255  1.0000
  C   C509      1.0  0.36620  0.40286  0.99495  1.0000
  Fe  Fe60      1.0  0.38574  0.20566  0.69149  1.0000
  S   S115      1.0  0.38051  0.19588  0.73751  1.0000
  S   S116      1.0  0.35362  0.20117  0.66327  1.0000
  Fe  Fe61      1.0  0.44241  0.22701  0.69582  1.0000
  S   S117      1.0  0.44098  0.21791  0.74179  1.0000
  S   S118      1.0  0.47485  0.24548  0.66536  1.0000
  Fe  Fe62      1.0  0.40653  0.18067  0.73107  1.0000
  S   S119      1.0  0.39681  0.13979  0.74058  1.0000
  Fe  Fe63      1.0  0.41502  0.23391  0.74496  1.0000
  S   S120      1.0  0.42167  0.26218  0.78072  1.0000
  S   S121      1.0  0.40983  0.18873  0.68444  1.0000
  S   S122      1.0  0.41838  0.24467  0.69961  1.0000
  Fe  Fe64      1.0  0.39396  0.37799  0.82466  1.0000
  S   S123      1.0  0.38853  0.40975  0.80838  1.0000
  S   S124      1.0  0.39564  0.35103  0.79175  1.0000
  Fe  Fe65      1.0  0.38760  0.38972  0.88650  1.0000
  S   S125      1.0  0.38080  0.42115  0.87426  1.0000
  S   S126      1.0  0.39195  0.37756  0.93097  1.0000
  Fe  Fe66      1.0  0.35681  0.39628  0.83826  1.0000
  Fe  Fe67      1.0  0.41298  0.43264  0.84510  1.0000
  S   S127      1.0  0.44014  0.47512  0.84637  1.0000
  S   S128      1.0  0.36108  0.36352  0.85295  1.0000
  S   S129      1.0  0.42099  0.40224  0.85897  1.0000
  H   H902      1.0  0.64899  0.42467  0.55275  1.0000
  H   H903      1.0  0.54555  0.06268  0.92160  1.0000
  C   C510      1.0  0.52094  0.00539  0.95283  1.0000
  S   S130      1.0  0.63230  0.01000  0.84459  1.0000
  H   H904      1.0  0.43614  0.32575  0.87579  1.0000
  C   C511      1.0  0.47198  0.49156  0.83789  1.0000
  C   C512      1.0  0.38485  0.38498  0.96460  1.0000
  C   C513      1.0  0.37213  0.39825  0.96784  1.0000
  H   H905      1.0  0.38652  0.02962  0.75986  1.0000
  H   H906      1.0  0.36651  0.40463  0.94946  1.0000
  C   C514      1.0  0.40386  0.32700  0.78878  1.0000
  C   C515      1.0  0.41763  0.32308  0.80956  1.0000
  C   C516      1.0  0.42296  0.30328  0.80667  1.0000
  C   C517      1.0  0.41485  0.28724  0.78283  1.0000
  C   C518      1.0  0.40168  0.29160  0.76166  1.0000
  C   C519      1.0  0.39624  0.31133  0.76466  1.0000
  H   H907      1.0  0.42421  0.33541  0.82775  1.0000
  H   H908      1.0  0.43340  0.30032  0.82306  1.0000
  H   H909      1.0  0.39532  0.27954  0.74316  1.0000
  H   H910      1.0  0.38571  0.31423  0.74832  1.0000
  C   C520      1.0  0.56034  0.28999  0.67709  1.0000
  C   C521      1.0  0.54925  0.28503  0.65030  1.0000
  C   C522      1.0  0.52313  0.27141  0.64718  1.0000
  C   C523      1.0  0.50770  0.26229  0.67070  1.0000
  C   C524      1.0  0.51876  0.26697  0.69746  1.0000
  C   C525      1.0  0.54487  0.28096  0.70062  1.0000
  H   H911      1.0  0.56083  0.29188  0.63201  1.0000
  H   H912      1.0  0.51484  0.26784  0.62636  1.0000
  H   H913      1.0  0.50722  0.25965  0.71569  1.0000
  H   H914      1.0  0.55320  0.28460  0.72143  1.0000
  H   H915      1.0  0.65594  0.14977  0.69131  1.0000
  N   N31       1.0  0.51740  0.00841  0.92194  1.0000
  H   H916      1.0  0.49928  0.29019  0.58642  1.0000
  C   C526      1.0  0.50367  0.02185  0.83852  1.0000
  C   C527      1.0  0.45908  0.01666  0.92887  1.0000
  H   H917      1.0  0.51334  0.04180  0.84375  1.0000
  H   H918      1.0  0.53741  0.02101  0.83111  1.0000
  C   C528      1.0  0.39305  0.09105  0.81673  1.0000
  C   C529      1.0  0.38346  0.08012  0.79035  1.0000
  C   C530      1.0  0.38423  0.09530  0.76764  1.0000
  C   C531      1.0  0.39464  0.12163  0.77083  1.0000
  C   C532      1.0  0.40401  0.13256  0.79731  1.0000
  C   C533      1.0  0.40314  0.11734  0.82008  1.0000
  H   H919      1.0  0.37531  0.05993  0.78745  1.0000
  H   H920      1.0  0.37681  0.08657  0.74734  1.0000
  H   H921      1.0  0.41213  0.15275  0.80016  1.0000
  H   H922      1.0  0.41057  0.12607  0.84037  1.0000
  C   C534      1.0  0.60781  0.02538  0.97582  1.0000
  H   H923      1.0  0.55448  0.01853  0.90812  1.0000
  H   H924      1.0  0.60831  0.04322  0.97346  1.0000
  H   H925      1.0  0.46861  0.45122  0.89413  1.0000
  C   C535      1.0  0.34288  0.18500  0.63051  1.0000
  H   H926      1.0  0.41139  0.02044  0.95660  1.0000
  H   H927      1.0  0.47485  0.45862  0.82902  1.0000
  H   H928      1.0  0.40163  0.36642  0.98663  1.0000
  H   H929      1.0  0.43566  0.49394  0.98951  1.0000
  H   H930      1.0  0.35601  0.41280  0.99712  1.0000
  H   H931      1.0  0.34615  0.14196  0.58778  1.0000
  H   H932      1.0  0.59205  0.06146  0.90320  1.0000
  H   H933      1.0  0.33459  0.26402  0.79477  1.0000
  H   H934      1.0  0.45274  0.16991  0.61979  1.0000
  C   C536      1.0  0.50079  0.01986  0.91945  1.0000
  Fe  Fe68      1.0  0.60267  0.00882  0.87277  1.0000
  H   H935      1.0  0.63770  0.44144  0.73980  1.0000
  C   C537      1.0  0.43864  0.19207  0.59956  1.0000
  N   N32       1.0  0.45701  0.09511  0.77739  1.0000
  C   C538      1.0  0.45271  0.11440  0.76248  1.0000
  C   C539      1.0  0.43460  0.06891  0.77363  1.0000
  C   C540      1.0  0.46004  0.10168  0.80839  1.0000
  C   C541      1.0  0.48033  0.09574  0.76798  1.0000
  C   C542      1.0  0.48220  0.09169  0.73624  1.0000
  C   C543      1.0  0.47403  0.14229  0.76461  1.0000
  C   C544      1.0  0.46125  0.08225  0.82838  1.0000
  N   N33       1.0  0.36040  0.29912  0.88623  1.0000
  H   H936      1.0  0.50732  0.03634  0.93400  1.0000
  C   C545      1.0  0.50829  0.09725  0.72896  1.0000
  C   C546      1.0  0.46736  0.15966  0.74833  1.0000
  C   C547      1.0  0.46406  0.09107  0.85892  1.0000
  H   H937      1.0  0.43573  0.11365  0.77071  1.0000
  H   H938      1.0  0.44883  0.10999  0.73975  1.0000
  H   H939      1.0  0.43987  0.05425  0.77765  1.0000
  H   H940      1.0  0.42041  0.06566  0.78962  1.0000
  H   H941      1.0  0.44449  0.10433  0.81550  1.0000
  H   H942      1.0  0.47734  0.11993  0.81261  1.0000
  H   H943      1.0  0.49699  0.11382  0.77470  1.0000
  H   H944      1.0  0.48246  0.08076  0.77862  1.0000
  H   H945      1.0  0.47806  0.10410  0.72314  1.0000
  H   H946      1.0  0.46929  0.07164  0.73044  1.0000
  H   H947      1.0  0.47768  0.14918  0.78668  1.0000
  H   H948      1.0  0.49134  0.14445  0.75570  1.0000
  H   H949      1.0  0.47729  0.07976  0.82376  1.0000
  H   H950      1.0  0.44410  0.06354  0.82677  1.0000
  H   H951      1.0  0.42350  0.16438  0.63313  1.0000
  H   H952      1.0  0.43246  0.06702  0.72692  1.0000
  H   H953      1.0  0.44716  0.34691  0.90574  1.0000
  H   H954      1.0  0.63820  0.15698  0.78188  1.0000
  H   H955      1.0  0.36793  0.18960  0.49922  1.0000
  H   H956      1.0  0.51330  0.08493  0.74116  1.0000
  H   H957      1.0  0.45077  0.15913  0.75742  1.0000
  H   H958      1.0  0.48303  0.17943  0.74962  1.0000
  H   H959      1.0  0.40891  0.02246  0.74491  1.0000
  H   H960      1.0  0.46427  0.07663  0.87286  1.0000
  H   H961      1.0  0.48169  0.10920  0.86224  1.0000
  H   H962      1.0  0.44822  0.09360  0.86468  1.0000
  C   C548      1.0  0.40037  0.03458  0.74305  1.0000
  H   H963      1.0  0.38993  0.05824  0.91399  1.0000
  C   C549      1.0  0.34363  0.29329  0.86075  1.0000
  H   H964      1.0  0.38642  0.04159  0.94511  1.0000
  C   C550      1.0  0.35030  0.16828  0.62065  1.0000
  C   C551      1.0  0.42667  0.47309  0.98821  1.0000
  H   H965      1.0  0.59028  0.08881  0.91366  1.0000
  S   S131      1.0  0.60653  0.02387  0.91797  1.0000
  C   C552      1.0  0.48115  0.46138  0.91231  1.0000
  H   H966      1.0  0.52805  0.02375  0.96416  1.0000
  H   H967      1.0  0.36015  0.33307  0.89785  1.0000
  C   C553      1.0  0.38890  0.05976  0.93723  1.0000
  H   H968      1.0  0.50898  0.09353  0.70624  1.0000
  H   H969      1.0  0.41335  0.47139  0.94538  1.0000
  H   H970      1.0  0.43369  0.21856  0.62407  1.0000
  H   H971      1.0  0.38992  0.13554  0.88917  1.0000
  C   C554      1.0  0.37003  0.07599  0.97229  1.0000
  H   H972      1.0  0.35424  0.26712  0.84136  1.0000
  H   H973      1.0  0.43601  0.35537  0.87491  1.0000
  H   H974      1.0  0.42924  0.17730  0.58307  1.0000
  H   H975      1.0  0.36652  0.29717  0.82461  1.0000
  C   C555      1.0  0.51737  0.01011  0.83142  1.0000
  H   H976      1.0  0.37094  0.27033  0.88991  1.0000
  S   S132      1.0  0.63937  0.05517  0.77730  1.0000
  H   H977      1.0  0.62661  0.27753  0.53208  1.0000
  S   S133      1.0  0.63967  0.34362  0.54980  1.0000
  C   C556      1.0  0.40711  0.32629  0.90044  1.0000
  H   H978      1.0  0.43438  0.06062  0.93760  1.0000
  C   C557      1.0  0.64677  0.14488  0.78314  1.0000
  H   H979      1.0  0.46167  0.02862  0.91029  1.0000
  H   H980      1.0  0.46592  0.02886  0.94799  1.0000
  H   H981      1.0  0.45747  0.20613  0.59243  1.0000
  H   H982      1.0  0.36320  0.16664  0.52555  1.0000
  C   C558      1.0  0.65568  0.34494  0.51883  1.0000
  C   C559      1.0  0.62660  0.11803  0.79037  1.0000
  C   C560      1.0  0.35803  0.27567  0.89972  1.0000
  H   H983      1.0  0.49257  0.45248  0.91690  1.0000
  H   H984      1.0  0.35442  0.07969  0.97537  1.0000
  C   C561      1.0  0.35000  0.28202  0.83508  1.0000
  H   H985      1.0  0.62319  0.24638  0.53101  1.0000
  H   H986      1.0  0.34410  0.31077  0.85336  1.0000
  H   H987      1.0  0.39911  0.10362  0.90727  1.0000
  C   C562      1.0  0.65472  0.27430  0.55452  1.0000
  H   H988      1.0  0.57437  0.07163  0.88207  1.0000
  H   H989      1.0  0.63868  0.20539  0.70564  1.0000
  S   S134      1.0  0.64366  0.35811  0.63020  1.0000
  H   H990      1.0  0.49417  0.26235  0.56766  1.0000
  H   H991      1.0  0.56300  0.05231  0.94277  1.0000
  H   H992      1.0  0.46346  0.15390  0.72584  1.0000
  N   N34       1.0  0.36684  0.06259  0.94452  1.0000
  C   C563      1.0  0.54166  0.02618  0.90811  1.0000
  C   C564      1.0  0.49771  0.48922  0.90500  1.0000
  H   H993      1.0  0.64282  0.16934  0.72879  1.0000
  H   H994      1.0  0.64698  0.01260  0.90757  1.0000
  H   H995      1.0  0.36921  0.10510  0.87359  1.0000
  C   C565      1.0  0.42019  0.06254  0.74510  1.0000
  C   C566      1.0  0.65054  0.27334  0.50132  1.0000
  Fe  Fe69      1.0  0.64929  0.33727  0.59430  1.0000
  C   C567      1.0  0.47274  0.00191  0.92530  1.0000
  H   H996      1.0  0.43533  0.08237  0.91134  1.0000
  H   H997      1.0  0.46534  0.25196  0.60710  1.0000
  C   C568      1.0  0.57972  0.06970  0.90388  1.0000
  C   C569      1.0  0.47762  0.00802  0.83888  1.0000
  H   H998      1.0  0.36408  0.27963  0.92219  1.0000
  H   H999      1.0  0.61833  0.11816  0.81084  1.0000
  H   H1000     1.0  0.38869  0.33199  0.86458  1.0000
  C   C570      1.0  0.35519  0.31448  0.90709  1.0000
  H   H1001     1.0  0.33891  0.32883  0.95394  1.0000
  H   H1002     1.0  0.50171  0.02744  0.89795  1.0000
  C   C571      1.0  0.32893  0.27100  0.81322  1.0000
  S   S135      1.0  0.39861  0.01333  0.81602  1.0000
  H   H1003     1.0  0.52214  0.11738  0.73351  1.0000
  H   H1004     1.0  0.63459  0.10538  0.79210  1.0000
  Fe  Fe70      1.0  0.41980  0.00771  0.85109  1.0000
  H   H1005     1.0  0.40530  0.31106  0.91453  1.0000
  H   H1006     1.0  0.41658  0.07831  0.97138  1.0000
  H   H1007     1.0  0.38824  0.11595  0.93491  1.0000
  C   C572      1.0  0.37743  0.18415  0.51530  1.0000
  H   H1008     1.0  0.64431  0.26936  0.57444  1.0000
  C   C573      1.0  0.60605  0.01111  0.95174  1.0000
  C   C574      1.0  0.39947  0.01317  0.97450  1.0000
  C   C575      1.0  0.42545  0.46595  0.95717  1.0000
  H   H1009     1.0  0.41789  0.09987  0.94530  1.0000
  C   C576      1.0  0.44184  0.17909  0.62535  1.0000
  H   H1010     1.0  0.40575  0.34074  0.91317  1.0000
  C   C577      1.0  0.34067  0.15524  0.59493  1.0000
  H   H1011     1.0  0.33802  0.43155  0.79183  1.0000
  H   H1012     1.0  0.39213  0.30485  0.86227  1.0000
  H   H1013     1.0  0.34449  0.07698  0.92609  1.0000
  H   H1014     1.0  0.63750  0.39541  0.70165  1.0000
  H   H1015     1.0  0.41756  0.44524  0.95447  1.0000
  H   H1016     1.0  0.45397  0.09414  0.94297  1.0000
  H   H1017     1.0  0.36713  0.31886  0.92624  1.0000
  H   H1018     1.0  0.46953  0.45926  0.93069  1.0000
  H   H1019     1.0  0.55592  0.00456  0.94977  1.0000
  N   N35       1.0  0.41839  0.21801  0.58244  1.0000
  C   C578      1.0  0.42349  0.20517  0.60658  1.0000
  C   C579      1.0  0.40344  0.22981  0.59227  1.0000
  C   C580      1.0  0.40295  0.19783  0.56072  1.0000
  C   C581      1.0  0.44196  0.23732  0.56858  1.0000
  C   C582      1.0  0.46134  0.25906  0.58754  1.0000
  C   C583      1.0  0.39071  0.20551  0.53694  1.0000
  C   C584      1.0  0.40889  0.24144  0.62233  1.0000
  C   C585      1.0  0.39597  0.25679  0.62701  1.0000
  C   C586      1.0  0.48598  0.27439  0.57254  1.0000
  C   C587      1.0  0.55667  0.05312  0.92109  1.0000
  H   H1020     1.0  0.40562  0.19078  0.61585  1.0000
  H   H1021     1.0  0.40512  0.24447  0.57720  1.0000
  H   H1022     1.0  0.38331  0.21534  0.59248  1.0000
  H   H1023     1.0  0.38765  0.18101  0.57107  1.0000
  H   H1024     1.0  0.41430  0.19095  0.55013  1.0000
  H   H1025     1.0  0.45121  0.22790  0.55838  1.0000
  H   H1026     1.0  0.43769  0.24663  0.55112  1.0000
  H   H1027     1.0  0.45463  0.27227  0.59280  1.0000
  H   H1028     1.0  0.40465  0.22243  0.52568  1.0000
  H   H1029     1.0  0.37657  0.20961  0.54547  1.0000
  H   H1030     1.0  0.40173  0.22604  0.63796  1.0000
  H   H1031     1.0  0.42888  0.25381  0.62694  1.0000
  H   H1032     1.0  0.40426  0.27387  0.61369  1.0000
  H   H1033     1.0  0.37580  0.24518  0.62204  1.0000
  H   H1034     1.0  0.39805  0.26281  0.64937  1.0000
  H   H1035     1.0  0.39047  0.03058  0.72246  1.0000
  H   H1036     1.0  0.48334  0.28246  0.55279  1.0000
  C   C588      1.0  0.64836  0.45725  0.75484  1.0000
  H   H1037     1.0  0.41051  0.07354  0.74297  1.0000
  H   H1038     1.0  0.50895  0.48993  0.88684  1.0000
  N   N36       1.0  0.48882  0.32711  0.73386  1.0000
  C   C589      1.0  0.47482  0.30960  0.70947  1.0000
  C   C590      1.0  0.48635  0.31213  0.76008  1.0000
  C   C591      1.0  0.47684  0.34295  0.73938  1.0000
  C   C592      1.0  0.51579  0.34472  0.72733  1.0000
  C   C593      1.0  0.53091  0.33220  0.71796  1.0000
  C   C594      1.0  0.47599  0.32258  0.68109  1.0000
  C   C595      1.0  0.48539  0.35943  0.76662  1.0000
  C   C596      1.0  0.48555  0.28654  0.75633  1.0000
  C   C597      1.0  0.48809  0.27610  0.78452  1.0000
  C   C598      1.0  0.55624  0.35177  0.70684  1.0000
  C   C599      1.0  0.46233  0.30306  0.65774  1.0000
  C   C600      1.0  0.47270  0.37525  0.76895  1.0000
  H   H1039     1.0  0.45490  0.29757  0.71494  1.0000
  H   H1040     1.0  0.48133  0.29603  0.70523  1.0000
  H   H1041     1.0  0.50141  0.32389  0.77554  1.0000
  H   H1042     1.0  0.46871  0.30710  0.77085  1.0000
  H   H1043     1.0  0.45625  0.33056  0.74053  1.0000
  H   H1044     1.0  0.48020  0.35614  0.72177  1.0000
  H   H1045     1.0  0.51755  0.35853  0.71106  1.0000
  H   H1046     1.0  0.52585  0.35653  0.74603  1.0000
  H   H1047     1.0  0.52136  0.31795  0.70102  1.0000
  H   H1048     1.0  0.53448  0.32316  0.73619  1.0000
  H   H1049     1.0  0.46712  0.33435  0.68258  1.0000
  H   H1050     1.0  0.49546  0.33459  0.67440  1.0000
  H   H1051     1.0  0.50569  0.37267  0.76692  1.0000
  H   H1052     1.0  0.48055  0.34751  0.78562  1.0000
  H   H1053     1.0  0.46745  0.27255  0.74665  1.0000
  H   H1054     1.0  0.50030  0.28796  0.74264  1.0000
  H   H1055     1.0  0.48655  0.25738  0.78116  1.0000
  H   H1056     1.0  0.50642  0.28901  0.79453  1.0000
  H   H1057     1.0  0.47311  0.27362  0.79885  1.0000
  H   H1058     1.0  0.55403  0.36094  0.68778  1.0000
  H   H1059     1.0  0.56710  0.36640  0.72313  1.0000
  H   H1060     1.0  0.56683  0.34227  0.70103  1.0000
  H   H1061     1.0  0.47087  0.29108  0.65461  1.0000
  H   H1062     1.0  0.44251  0.29091  0.66303  1.0000
  H   H1063     1.0  0.46339  0.31279  0.63773  1.0000
  H   H1064     1.0  0.45220  0.36292  0.76865  1.0000
  H   H1065     1.0  0.47830  0.38614  0.78903  1.0000
  H   H1066     1.0  0.47809  0.38879  0.75135  1.0000
  H   H1067     1.0  0.61163  0.11030  0.77404  1.0000
  C   C601      1.0  0.41478  0.08060  0.94852  1.0000
  H   H1068     1.0  0.45199  0.19309  0.64244  1.0000
  C   C602      1.0  0.64854  0.40900  0.56496  1.0000
  S   S136      1.0  0.46161  0.02390  0.84860  1.0000
  C   C603      1.0  0.54354  0.99677  0.99213  1.0000
  C   C604      1.0  0.43317  0.33932  0.88834  1.0000
  C   C605      1.0  0.63661  0.26690  0.52956  1.0000
  C   C606      1.0  0.38687  0.31559  0.87681  1.0000
  C   C607      1.0  0.43585  0.07925  0.93419  1.0000
  H   H1069     1.0  0.61477  0.44900  0.77662  1.0000
  C   C608      1.0  0.48471  0.47904  0.83040  1.0000
  H   H1070     1.0  0.44420  0.47604  0.94795  1.0000
  C   C609      1.0  0.39186  0.37677  0.98884  1.0000
  H   H1071     1.0  0.64411  0.13361  0.73988  1.0000
  H   H1072     1.0  0.34556  0.22603  0.91081  1.0000
  H   H1073     1.0  0.63729  0.40595  0.58397  1.0000
  C   C610      1.0  0.63323  0.45118  0.78162  1.0000
  H   H1074     1.0  0.32908  0.33864  0.92291  1.0000
  H   H1075     1.0  0.38681  0.09501  0.97264  1.0000
  H   H1076     1.0  0.38140  0.05149  0.99453  1.0000
  H   H1077     1.0  0.39088  0.18022  0.50457  1.0000
  H   H1078     1.0  0.63036  0.43325  0.79084  1.0000
  C   C611      1.0  0.37444  0.11622  0.89354  1.0000
  H   H1079     1.0  0.35151  0.01813  0.91195  1.0000
  H   H1080     1.0  0.63942  0.39142  0.55202  1.0000
  C   C612      1.0  0.51030  0.49303  0.82483  1.0000
  C   C613      1.0  0.34402  0.03666  0.94675  1.0000
  C   C614      1.0  0.38273  0.10387  0.91578  1.0000
  H   H1081     1.0  0.65597  0.03341  0.95129  1.0000
  H   H1082     1.0  0.65748  0.04974  0.89105  1.0000
  H   H1083     1.0  0.34706  0.02533  0.96295  1.0000
  H   H1084     1.0  0.52280  0.49390  0.93902  1.0000
  C   C615      1.0  0.36181  0.07656  0.92162  1.0000
  C   C616      1.0  0.53793  0.99454  0.96056  1.0000
  S   S137      1.0  0.35297  0.99657  0.85986  1.0000
  C   C617      1.0  0.33586  0.02000  0.91980  1.0000
  H   H1085     1.0  0.64279  0.46674  0.79734  1.0000
  H   H1086     1.0  0.35862  0.06660  0.90108  1.0000
  H   H1087     1.0  0.65001  0.47490  0.74638  1.0000
  C   C618      1.0  0.32846  0.30277  0.91812  1.0000
  C   C619      1.0  0.33125  0.23078  0.91713  1.0000
  C   C620      1.0  0.33207  0.25138  0.89831  1.0000
  H   H1088     1.0  0.33443  0.23707  0.93947  1.0000
  H   H1089     1.0  0.40724  0.46439  0.99546  1.0000
  C   C621      1.0  0.32563  0.32209  0.93581  1.0000
  H   H1090     1.0  0.32765  0.24366  0.87655  1.0000
  H   H1091     1.0  0.45777  0.46680  0.99457  1.0000
  C   C622      1.0  0.65591  0.39677  0.70378  1.0000
  H   H1092     1.0  0.65303  0.37817  0.71072  1.0000
  C   C623      1.0  0.32600  0.18871  0.61415  1.0000
  H   H1093     1.0  0.35836  0.11767  0.90094  1.0000
  H   H1094     1.0  0.32943  0.02803  0.90303  1.0000
  H   H1095     1.0  0.32786  0.03828  0.95379  1.0000
  H   H1096     1.0  0.55909  0.79658  0.33634  1.0000
  S   S138      1.0  0.38627  0.98004  0.11821  1.0000
  C   C624      1.0  0.58151  0.74696  0.36577  1.0000
  Fe  Fe71      1.0  0.36272  0.98453  0.15087  1.0000
  H   H1097     1.0  0.62610  0.83817  0.33552  1.0000
  H   H1098     1.0  0.57724  0.93881  0.06785  1.0000
  S   S139      1.0  0.57187  0.97476  0.10362  1.0000
  Fe  Fe72      1.0  0.59170  0.97137  0.14208  1.0000
  S   S140      1.0  0.57332  0.93420  0.16682  1.0000
  Fe  Fe73      1.0  0.61887  0.59435  0.14095  1.0000
  S   S141      1.0  0.58940  0.60257  0.15661  1.0000
  C   C625      1.0  0.63886  0.83538  0.34851  1.0000
  Fe  Fe74      1.0  0.61144  0.60569  0.07959  1.0000
  S   S142      1.0  0.58204  0.61490  0.09083  1.0000
  S   S143      1.0  0.62647  0.60558  0.03606  1.0000
  Fe  Fe75      1.0  0.60633  0.63624  0.12810  1.0000
  S   S144      1.0  0.61781  0.67722  0.13985  1.0000
  Fe  Fe76      1.0  0.56693  0.58064  0.11842  1.0000
  S   S145      1.0  0.52485  0.55621  0.11586  1.0000
  S   S146      1.0  0.63731  0.62941  0.11491  1.0000
  S   S147      1.0  0.59477  0.56993  0.10476  1.0000
  H   H1099     1.0  0.52612  0.98697  0.00422  1.0000
  C   C626      1.0  0.34627  0.59924  0.39245  1.0000
  S   S148      1.0  0.36483  0.70659  0.36072  1.0000
  H   H1100     1.0  0.57218  0.81515  0.39769  1.0000
  Fe  Fe77      1.0  0.36666  0.68320  0.32539  1.0000
  S   S149      1.0  0.39893  0.69220  0.29615  1.0000
  S   S150      1.0  0.34663  0.64688  0.34939  1.0000
  Fe  Fe78      1.0  0.54649  0.77991  0.27162  1.0000
  S   S151      1.0  0.54912  0.78135  0.22430  1.0000
  S   S152      1.0  0.51486  0.77458  0.30021  1.0000
  Fe  Fe79      1.0  0.60112  0.79377  0.27988  1.0000
  S   S153      1.0  0.60725  0.79562  0.23320  1.0000
  S   S154      1.0  0.63195  0.79783  0.31010  1.0000
  Fe  Fe80      1.0  0.58621  0.81697  0.23131  1.0000
  S   S155      1.0  0.60548  0.85425  0.20679  1.0000
  Fe  Fe81      1.0  0.57017  0.76009  0.22955  1.0000
  S   S156      1.0  0.55968  0.72351  0.20472  1.0000
  S   S157      1.0  0.58240  0.81692  0.27829  1.0000
  S   S158      1.0  0.56516  0.75676  0.27651  1.0000
  C   C627      1.0  0.60602  0.71533  0.07795  1.0000
  C   C628      1.0  0.59562  0.78773  0.40633  1.0000
  H   H1101     1.0  0.55605  0.66925  0.04082  1.0000
  C   C629      1.0  0.48274  0.75126  0.29888  1.0000
  C   C630      1.0  0.46712  0.75114  0.32008  1.0000
  C   C631      1.0  0.44152  0.73311  0.31984  1.0000
  C   C632      1.0  0.43117  0.71504  0.29821  1.0000
  C   C633      1.0  0.44678  0.71526  0.27695  1.0000
  C   C634      1.0  0.47240  0.73316  0.27731  1.0000
  H   H1102     1.0  0.47490  0.76506  0.33686  1.0000
  H   H1103     1.0  0.42980  0.73320  0.33635  1.0000
  H   H1104     1.0  0.43900  0.70142  0.26008  1.0000
  H   H1105     1.0  0.48411  0.73300  0.26083  1.0000
  S   S159      1.0  0.35025  0.66179  0.42782  1.0000
  C   C635      1.0  0.61813  0.80544  0.45302  1.0000
  H   H1106     1.0  0.47774  0.96634  0.16442  1.0000
  H   H1107     1.0  0.59910  0.72980  0.27104  1.0000
  H   H1108     1.0  0.57643  0.92100  0.03798  1.0000
  C   C636      1.0  0.60112  0.68998  0.15693  1.0000
  C   C637      1.0  0.61400  0.71535  0.16624  1.0000
  C   C638      1.0  0.60172  0.72605  0.18072  1.0000
  C   C639      1.0  0.57628  0.71154  0.18583  1.0000
  C   C640      1.0  0.56332  0.68638  0.17582  1.0000
  C   C641      1.0  0.57561  0.67564  0.16149  1.0000
  H   H1109     1.0  0.63371  0.72673  0.16267  1.0000
  H   H1110     1.0  0.61195  0.74547  0.18801  1.0000
  H   H1111     1.0  0.54361  0.67502  0.17940  1.0000
  H   H1112     1.0  0.56534  0.65621  0.15420  1.0000
  C   C642      1.0  0.56412  0.83258  0.34781  1.0000
  C   C643      1.0  0.50780  0.52336  0.12247  1.0000
  H   H1113     1.0  0.53951  0.51897  0.13035  1.0000
  H   H1114     1.0  0.49501  0.54914  0.01814  1.0000
  C   C644      1.0  0.41260  0.68525  0.48006  1.0000
  H   H1115     1.0  0.55656  0.93888  0.00812  1.0000
  C   C645      1.0  0.59609  0.87626  0.19608  1.0000
  C   C646      1.0  0.57222  0.87220  0.20062  1.0000
  C   C647      1.0  0.56574  0.89020  0.19170  1.0000
  C   C648      1.0  0.58293  0.91251  0.17811  1.0000
  C   C649      1.0  0.60685  0.91666  0.17374  1.0000
  C   C650      1.0  0.61332  0.89861  0.18256  1.0000
  H   H1116     1.0  0.55874  0.85519  0.21100  1.0000
  H   H1117     1.0  0.54723  0.88682  0.19545  1.0000
  H   H1118     1.0  0.62042  0.93384  0.16374  1.0000
  H   H1119     1.0  0.63184  0.90202  0.17891  1.0000
  C   C651      1.0  0.56600  0.92021  0.05717  1.0000
  N   N37       1.0  0.57405  0.78170  0.38656  1.0000
  H   H1120     1.0  0.34212  0.51531  0.19988  1.0000
  H   H1121     1.0  0.59431  0.77004  0.41439  1.0000
  H   H1122     1.0  0.64096  0.92627  0.08469  1.0000
  C   C652      1.0  0.55215  0.89991  0.10377  1.0000
  C   C653      1.0  0.60371  0.68579  0.00480  1.0000
  C   C654      1.0  0.55763  0.61444  0.22688  1.0000
  C   C655      1.0  0.60099  0.64692  0.26785  1.0000
  H   H1123     1.0  0.60363  0.62780  0.21711  1.0000
  C   C656      1.0  0.54111  0.63862  0.06986  1.0000
  H   H1124     1.0  0.52846  0.90144  0.03751  1.0000
  H   H1125     1.0  0.56853  0.73399  0.38163  1.0000
  H   H1126     1.0  0.56139  0.76320  0.34560  1.0000
  C   C657      1.0  0.63965  0.66006  0.22035  1.0000
  H   H1127     1.0  0.49931  0.74943  0.40651  1.0000
  H   H1128     1.0  0.55809  0.91981  0.10958  1.0000
  H   H1129     1.0  0.60475  0.82402  0.42609  1.0000
  H   H1130     1.0  0.35019  0.58803  0.40785  1.0000
  C   C658      1.0  0.58696  0.67074  0.06564  1.0000
  H   H1131     1.0  0.57293  0.53432  0.01235  1.0000
  H   H1132     1.0  0.33743  0.94311  0.09239  1.0000
  C   C659      1.0  0.54803  0.85127  0.07502  1.0000
  C   C660      1.0  0.59286  0.88207  0.27997  1.0000
  S   S160      1.0  0.63722  0.57826  0.17021  1.0000
  H   H1133     1.0  0.32693  0.89291  0.22501  1.0000
  H   H1134     1.0  0.54601  0.85175  0.09810  1.0000
  H   H1135     1.0  0.61367  0.94448  0.07923  1.0000
  H   H1136     1.0  0.58156  0.71601  0.34342  1.0000
  H   H1137     1.0  0.52289  0.88677  0.15162  1.0000
  H   H1138     1.0  0.50865  0.82448  0.06809  1.0000
  H   H1139     1.0  0.58445  0.89436  0.28037  1.0000
  C   C661      1.0  0.63339  0.88163  0.28368  1.0000
  H   H1140     1.0  0.58962  0.61997  0.01930  1.0000
  H   H1141     1.0  0.58900  0.68513  0.27575  1.0000
  Fe  Fe82      1.0  0.34204  0.66995  0.38340  1.0000
  C   C662      1.0  0.51947  0.50953  0.12914  1.0000
  H   H1142     1.0  0.36833  0.49978  0.17832  1.0000
  H   H1143     1.0  0.50449  0.72396  0.41720  1.0000
  H   H1144     1.0  0.59880  0.51397  0.10261  1.0000
  S   S161      1.0  0.44323  0.98432  0.15909  1.0000
  H   H1145     1.0  0.55901  0.95943  0.03692  1.0000
  H   H1146     1.0  0.34875  0.89032  0.16064  1.0000
  H   H1147     1.0  0.55697  0.67820  0.07722  1.0000
  H   H1148     1.0  0.60658  0.75936  0.09489  1.0000
  C   C663      1.0  0.57571  0.80648  0.37903  1.0000
  C   C664      1.0  0.59482  0.69450  0.25511  1.0000
  H   H1149     1.0  0.54455  0.77613  0.41438  1.0000
  C   C665      1.0  0.52965  0.60368  0.22363  1.0000
  H   H1150     1.0  0.56909  0.65167  0.21101  1.0000
  N   N38       1.0  0.60754  0.69680  0.05810  1.0000
  H   H1151     1.0  0.58330  0.84338  0.33974  1.0000
  C   C666      1.0  0.62081  0.89800  0.28558  1.0000
  H   H1152     1.0  0.60492  0.70892  0.10007  1.0000
  N   N39       1.0  0.38446  0.76094  0.25917  1.0000
  C   C667      1.0  0.37172  0.73240  0.25920  1.0000
  C   C668      1.0  0.38766  0.77125  0.28884  1.0000
  H   H1153     1.0  0.35673  0.65023  0.48420  1.0000
  C   C669      1.0  0.40904  0.77272  0.24450  1.0000
  C   C670      1.0  0.42842  0.76615  0.25624  1.0000
  C   C671      1.0  0.36794  0.71932  0.23009  1.0000
  H   H1154     1.0  0.58796  0.70575  0.02640  1.0000
  C   C672      1.0  0.39293  0.75710  0.31240  1.0000
  C   C673      1.0  0.40033  0.77220  0.33996  1.0000
  C   C674      1.0  0.45061  0.77549  0.23686  1.0000
  H   H1155     1.0  0.56630  0.55929  0.00523  1.0000
  H   H1156     1.0  0.54281  0.62518  0.05557  1.0000
  H   H1157     1.0  0.35323  0.72448  0.26921  1.0000
  H   H1158     1.0  0.38203  0.72566  0.27231  1.0000
  H   H1159     1.0  0.40260  0.79147  0.28977  1.0000
  H   H1160     1.0  0.37040  0.77094  0.29563  1.0000
  S   S162      1.0  0.62898  0.99092  0.12176  1.0000
  H   H1161     1.0  0.62049  0.72270  0.02327  1.0000
  H   H1162     1.0  0.40615  0.76791  0.22169  1.0000
  H   H1163     1.0  0.41826  0.79368  0.24548  1.0000
  H   H1164     1.0  0.42053  0.74552  0.25862  1.0000
  H   H1165     1.0  0.43577  0.77571  0.27685  1.0000
  H   H1166     1.0  0.35648  0.72362  0.21568  1.0000
  H   H1167     1.0  0.38609  0.72532  0.22025  1.0000
  C   C675      1.0  0.35464  0.69058  0.23279  1.0000
  H   H1168     1.0  0.56107  0.64764  0.24696  1.0000
  H   H1169     1.0  0.37574  0.73888  0.31597  1.0000
  H   H1170     1.0  0.40768  0.75288  0.30710  1.0000
  H   H1171     1.0  0.41741  0.79081  0.33730  1.0000
  H   H1172     1.0  0.38503  0.77508  0.34720  1.0000
  H   H1173     1.0  0.40417  0.76168  0.35636  1.0000
  H   H1174     1.0  0.46453  0.77128  0.24634  1.0000
  H   H1175     1.0  0.44471  0.76574  0.21611  1.0000
  H   H1176     1.0  0.45961  0.79624  0.23395  1.0000
  H   H1177     1.0  0.36526  0.68486  0.24694  1.0000
  H   H1178     1.0  0.61643  0.73312  0.23990  1.0000
  H   H1179     1.0  0.64667  0.65971  0.17558  1.0000
  H   H1180     1.0  0.43229  0.69277  0.47433  1.0000
  H   H1181     1.0  0.62431  0.86597  0.29897  1.0000
  C   C676      1.0  0.65832  0.85604  0.26233  1.0000
  N   N40       1.0  0.56333  0.89918  0.07602  1.0000
  H   H1182     1.0  0.55252  0.75229  0.41657  1.0000
  H   H1183     1.0  0.35708  0.92431  0.10934  1.0000
  H   H1184     1.0  0.52908  0.86964  0.05690  1.0000
  C   C677      1.0  0.50326  0.73461  0.39898  1.0000
  H   H1185     1.0  0.53308  0.92302  0.06622  1.0000
  H   H1186     1.0  0.60915  0.64402  0.32504  1.0000
  H   H1187     1.0  0.62342  0.90670  0.30671  1.0000
  C   C678      1.0  0.35583  0.80060  0.22895  1.0000
  C   C679      1.0  0.46400  0.50042  0.03815  1.0000
  H   H1188     1.0  0.40095  0.66734  0.46816  1.0000
  H   H1189     1.0  0.65514  0.55179  0.20417  1.0000
  H   H1190     1.0  0.54382  0.63451  0.09194  1.0000
  C   C680      1.0  0.51134  0.99307  0.14360  1.0000
  H   H1191     1.0  0.33413  0.54403  0.27058  1.0000
  H   H1192     1.0  0.63697  0.53310  0.07477  1.0000
  C   C681      1.0  0.63457  0.67496  0.05623  1.0000
  H   H1193     1.0  0.58393  0.86739  0.29623  1.0000
  H   H1194     1.0  0.62226  0.68768  0.00244  1.0000
  H   H1195     1.0  0.64548  0.94795  0.11292  1.0000
  H   H1196     1.0  0.42502  0.49929  0.06641  1.0000
  H   H1197     1.0  0.38645  0.50892  0.21079  1.0000
  H   H1198     1.0  0.52765  0.81029  0.07352  1.0000
  H   H1199     1.0  0.59163  0.74406  0.32290  1.0000
  H   H1200     1.0  0.33784  0.79031  0.23994  1.0000
  H   H1201     1.0  0.58981  0.66581  0.00889  1.0000
  H   H1202     1.0  0.56234  0.84271  0.36623  1.0000
  C   C682      1.0  0.52732  0.74646  0.38248  1.0000
  H   H1203     1.0  0.37777  0.80402  0.26536  1.0000
  H   H1204     1.0  0.61616  0.53055  0.13371  1.0000
  H   H1205     1.0  0.62059  0.81823  0.47093  1.0000
  H   H1206     1.0  0.61245  0.78640  0.46141  1.0000
  H   H1207     1.0  0.64407  0.65270  0.23949  1.0000
  H   H1208     1.0  0.52854  0.82492  0.04038  1.0000
  C   C683      1.0  0.55786  0.80584  0.35575  1.0000
  C   C684      1.0  0.37544  0.79642  0.24366  1.0000
  H   H1209     1.0  0.36596  0.76246  0.22081  1.0000
  C   C685      1.0  0.59849  0.80427  0.43245  1.0000
  H   H1210     1.0  0.53851  0.79604  0.36324  1.0000
  C   C686      1.0  0.48681  0.98371  0.15270  1.0000
  H   H1211     1.0  0.55604  0.87558  0.03917  1.0000
  C   C687      1.0  0.62428  0.75949  0.09875  1.0000
  H   H1212     1.0  0.62121  0.50667  0.11762  1.0000
  H   H1213     1.0  0.63630  0.81297  0.44254  1.0000
  H   H1214     1.0  0.45516  0.51073  0.02913  1.0000
  C   C688      1.0  0.51464  0.89072  0.13286  1.0000
  H   H1215     1.0  0.62829  0.91443  0.11898  1.0000
  C   C689      1.0  0.60834  0.92908  0.09461  1.0000
  C   C690      1.0  0.54852  0.87427  0.06060  1.0000
  C   C691      1.0  0.57148  0.64359  0.23091  1.0000
  H   H1216     1.0  0.62803  0.87227  0.26276  1.0000
  H   H1217     1.0  0.33572  0.68332  0.24112  1.0000
  C   C692      1.0  0.33558  0.66228  0.45930  1.0000
  C   C693      1.0  0.56008  0.66592  0.06265  1.0000
  H   H1218     1.0  0.60081  0.93339  0.11347  1.0000
  C   C694      1.0  0.54180  0.91961  0.04784  1.0000
  H   H1219     1.0  0.33854  0.89577  0.07313  1.0000
  H   H1220     1.0  0.59703  0.90088  0.06160  1.0000
  H   H1221     1.0  0.51714  0.86369  0.10659  1.0000
  C   C695      1.0  0.61718  0.52212  0.11341  1.0000
  H   H1222     1.0  0.58069  0.79668  0.44365  1.0000
  H   H1223     1.0  0.52974  0.73083  0.37431  1.0000
  H   H1224     1.0  0.52099  0.98291  0.14831  1.0000
  H   H1225     1.0  0.52549  0.61234  0.20539  1.0000
  H   H1226     1.0  0.47257  0.52144  0.11596  1.0000
  H   H1227     1.0  0.62889  0.69477  0.24514  1.0000
  H   H1228     1.0  0.62696  0.72779  0.27347  1.0000
  H   H1229     1.0  0.58758  0.65591  0.05287  1.0000
  H   H1230     1.0  0.36282  0.88865  0.12857  1.0000
  H   H1231     1.0  0.35516  0.59949  0.37230  1.0000
  C   C696      1.0  0.61669  0.61148  0.00300  1.0000
  C   C697      1.0  0.33265  0.54703  0.24783  1.0000
  C   C698      1.0  0.62623  0.65200  0.31234  1.0000
  H   H1232     1.0  0.63982  0.77929  0.09757  1.0000
  H   H1233     1.0  0.59343  0.78384  0.34855  1.0000
  H   H1234     1.0  0.63872  0.70345  0.08506  1.0000
  H   H1235     1.0  0.58823  0.88867  0.09614  1.0000
  C   C699      1.0  0.38404  0.92277  0.15260  1.0000
  C   C700      1.0  0.52688  0.82625  0.06345  1.0000
  H   H1236     1.0  0.52031  0.58294  0.21991  1.0000
  H   H1237     1.0  0.64135  0.67361  0.27510  1.0000
  C   C701      1.0  0.58906  0.90321  0.08146  1.0000
  H   H1238     1.0  0.56374  0.60926  0.20744  1.0000
  H   H1239     1.0  0.55897  0.72381  0.33025  1.0000
  H   H1240     1.0  0.65531  0.86282  0.24197  1.0000
  C   C702      1.0  0.64909  0.84982  0.37335  1.0000
  C   C703      1.0  0.62766  0.74313  0.07690  1.0000
  C   C704      1.0  0.48174  0.51085  0.12097  1.0000
  H   H1241     1.0  0.35463  0.61901  0.40034  1.0000
  H   H1242     1.0  0.52003  0.91102  0.13319  1.0000
  H   H1243     1.0  0.64214  0.66575  0.32564  1.0000
  H   H1244     1.0  0.52944  0.93937  0.02005  1.0000
  H   H1245     1.0  0.35733  0.52149  0.23280  1.0000
  H   H1246     1.0  0.34840  0.75724  0.25183  1.0000
  C   C705      1.0  0.57816  0.73182  0.33887  1.0000
  H   H1247     1.0  0.64952  0.68099  0.22120  1.0000
  H   H1248     1.0  0.62554  0.66560  0.03614  1.0000
  H   H1249     1.0  0.57782  0.69080  0.24319  1.0000
  H   H1250     1.0  0.49412  0.87917  0.13405  1.0000
  H   H1251     1.0  0.35121  0.55438  0.23850  1.0000
  C   C706      1.0  0.63711  0.54229  0.09495  1.0000
  H   H1252     1.0  0.39403  0.91513  0.16492  1.0000
  H   H1253     1.0  0.39585  0.93360  0.13475  1.0000
  H   H1254     1.0  0.38138  0.93588  0.16641  1.0000
  H   H1255     1.0  0.56571  0.85152  0.07111  1.0000
  H   H1256     1.0  0.58963  0.66664  0.08779  1.0000
  H   H1257     1.0  0.39315  0.80775  0.23251  1.0000
  C   C707      1.0  0.52343  0.88416  0.10598  1.0000
  H   H1258     1.0  0.33837  0.50689  0.27411  1.0000
  C   C708      1.0  0.36757  0.76794  0.24334  1.0000
  H   H1259     1.0  0.58879  0.71609  0.07390  1.0000
  H   H1260     1.0  0.58899  0.87276  0.25900  1.0000
  H   H1261     1.0  0.58437  0.64217  0.28063  1.0000
  H   H1262     1.0  0.40663  0.69890  0.47372  1.0000
  C   C709      1.0  0.59839  0.61831  0.00062  1.0000
  H   H1263     1.0  0.60954  0.69033  0.21607  1.0000
  H   H1264     1.0  0.55955  0.89324  0.12116  1.0000
  C   C710      1.0  0.63218  0.92932  0.10329  1.0000
  H   H1265     1.0  0.51377  0.88714  0.08807  1.0000
  H   H1266     1.0  0.33947  0.58489  0.25675  1.0000
  H   H1267     1.0  0.55104  0.83150  0.33101  1.0000
  H   H1268     1.0  0.64400  0.86367  0.37940  1.0000
  H   H1269     1.0  0.60110  0.62881  0.26586  1.0000
  C   C711      1.0  0.64494  0.81712  0.34071  1.0000
  C   C712      1.0  0.34433  0.91149  0.12556  1.0000
  H   H1270     1.0  0.62143  0.68125  0.29408  1.0000
  H   H1271     1.0  0.52474  0.75595  0.36410  1.0000
  H   H1272     1.0  0.61350  0.79763  0.39488  1.0000
  C   C713      1.0  0.57731  0.76960  0.36050  1.0000
  H   H1273     1.0  0.36190  0.82106  0.22922  1.0000
  C   C714      1.0  0.35904  0.90113  0.14197  1.0000
  H   H1274     1.0  0.64584  0.74455  0.08144  1.0000
  H   H1275     1.0  0.64699  0.71481  0.05032  1.0000
  H   H1276     1.0  0.48756  0.72131  0.38510  1.0000
  C   C715      1.0  0.36915  0.99380  0.02159  1.0000
  H   H1277     1.0  0.34540  0.93232  0.19703  1.0000
  C   C716      1.0  0.34118  0.50661  0.22065  1.0000
  H   H1278     1.0  0.62421  0.75248  0.12027  1.0000
  H   H1279     1.0  0.59489  0.82019  0.37253  1.0000
  C   C717      1.0  0.55002  0.76464  0.40131  1.0000
  H   H1280     1.0  0.52201  0.60725  0.24293  1.0000
  H   H1281     1.0  0.50827  0.54510  0.05047  1.0000
  N   N41       1.0  0.59868  0.65607  0.23909  1.0000
  C   C718      1.0  0.61123  0.64858  0.21720  1.0000
  H   H1282     1.0  0.52205  0.63560  0.06753  1.0000
  C   C719      1.0  0.60471  0.70375  0.02844  1.0000
  H   H1283     1.0  0.60725  0.65330  0.19585  1.0000
  H   H1284     1.0  0.60080  0.75401  0.37362  1.0000
  H   H1285     1.0  0.62972  0.63658  0.30597  1.0000
  C   C720      1.0  0.34292  0.65595  0.48460  1.0000
  H   H1286     1.0  0.56103  0.60514  0.24499  1.0000
  H   H1287     1.0  0.33568  0.87097  0.09442  1.0000
  H   H1288     1.0  0.35724  0.98637  0.03954  1.0000
  C   C721      1.0  0.60918  0.68431  0.23815  1.0000
  H   H1289     1.0  0.63158  0.55656  0.09074  1.0000
  H   H1290     1.0  0.50064  0.50343  0.03337  1.0000
  C   C722      1.0  0.61038  0.72303  0.26015  1.0000
  H   H1291     1.0  0.35313  0.79401  0.20673  1.0000
  H   H1292     1.0  0.62552  0.66101  0.07316  1.0000
  C   C723      1.0  0.63260  0.69881  0.06261  1.0000
  C   C724      1.0  0.48956  0.51125  0.02393  1.0000
  C   C725      1.0  0.50481  0.53996  0.02777  1.0000
  H   H1293     1.0  0.62843  0.75142  0.05601  1.0000
  C   C726      1.0  0.62368  0.66534  0.28650  1.0000
  H   H1294     1.0  0.62836  0.91316  0.26968  1.0000
  H   H1295     1.0  0.34153  0.92386  0.14042  1.0000
  H   H1296     1.0  0.63991  0.84144  0.27003  1.0000
  H   H1297     1.0  0.64960  0.90135  0.23214  1.0000
  H   H1298     1.0  0.46760  0.50628  0.06074  1.0000
  H   H1299     1.0  0.52302  0.54738  0.01753  1.0000
  H   H1300     1.0  0.65449  0.88910  0.33293  1.0000
  C   C727      1.0  0.54711  0.94059  0.02693  1.0000
  S   S163      1.0  0.61417  0.98426  0.03996  1.0000
  H   H1301     1.0  0.35291  0.68177  0.21184  1.0000
  H   H1302     1.0  0.48722  0.50706  0.00105  1.0000
  S   S164      1.0  0.33134  0.67686  0.30427  1.0000
  Fe  Fe83      1.0  0.32854  0.69890  0.34034  1.0000
  C   C728      1.0  0.64994  0.65241  0.19555  1.0000
  H   H1303     1.0  0.64113  0.63151  0.19396  1.0000
  C   C729      1.0  0.32563  0.56760  0.24518  1.0000
  C   C730      1.0  0.32554  0.88068  0.08742  1.0000
  H   H1304     1.0  0.32555  0.86984  0.69053  1.0000
  S   S165      1.0  0.38793  0.96972  0.86330  1.0000
  H   H1305     1.0  0.63831  0.68224  0.68673  1.0000
  H   H1306     1.0  0.41489  0.64425  0.60936  1.0000
  Fe  Fe84      1.0  0.36555  0.97655  0.83015  1.0000
  H   H1307     1.0  0.53273  0.60564  0.89595  1.0000
  H   H1308     1.0  0.52710  0.71242  0.75511  1.0000
  H   H1309     1.0  0.51307  0.57652  0.87716  1.0000
  Fe  Fe85      1.0  0.60233  0.97155  0.82863  1.0000
  H   H1310     1.0  0.44523  0.97146  0.83208  1.0000
  S   S166      1.0  0.60716  0.93692  0.82407  1.0000
  H   H1311     1.0  0.49190  0.65753  0.67299  1.0000
  H   H1312     1.0  0.53140  0.74673  0.82209  1.0000
  S   S167      1.0  0.57418  0.96953  0.85936  1.0000
  Fe  Fe86      1.0  0.59341  0.63284  0.81001  1.0000
  S   S168      1.0  0.60304  0.60452  0.79238  1.0000
  S   S169      1.0  0.57996  0.65135  0.77740  1.0000
  Fe  Fe87      1.0  0.60160  0.62105  0.87128  1.0000
  S   S170      1.0  0.61239  0.59267  0.85765  1.0000
  S   S171      1.0  0.59431  0.62883  0.91649  1.0000
  Fe  Fe88      1.0  0.63462  0.62023  0.82370  1.0000
  Fe  Fe89      1.0  0.58008  0.57888  0.82712  1.0000
  S   S172      1.0  0.55570  0.53635  0.82086  1.0000
  S   S173      1.0  0.62639  0.65024  0.83978  1.0000
  S   S174      1.0  0.56795  0.60563  0.84230  1.0000
  H   H1313     1.0  0.46369  0.98851  0.90740  1.0000
  H   H1314     1.0  0.54195  0.52713  0.88141  1.0000
  H   H1315     1.0  0.57795  0.69013  0.97702  1.0000
  C   C731      1.0  0.63831  0.87504  0.68126  1.0000
  Fe  Fe90      1.0  0.35272  0.69180  0.63226  1.0000
  S   S175      1.0  0.39208  0.72580  0.63697  1.0000
  S   S176      1.0  0.34245  0.65775  0.60470  1.0000
  Fe  Fe91      1.0  0.57695  0.79057  0.66614  1.0000
  S   S177      1.0  0.59911  0.81156  0.70464  1.0000
  S   S178      1.0  0.58983  0.79195  0.62106  1.0000
  Fe  Fe92      1.0  0.52768  0.76458  0.69830  1.0000
  S   S179      1.0  0.54647  0.78433  0.73899  1.0000
  S   S180      1.0  0.48728  0.73247  0.69814  1.0000
  Fe  Fe93      1.0  0.56809  0.81949  0.71333  1.0000
  S   S181      1.0  0.57403  0.85953  0.71962  1.0000
  Fe  Fe94      1.0  0.57588  0.77477  0.72748  1.0000
  S   S182      1.0  0.59284  0.76107  0.76121  1.0000
  S   S183      1.0  0.54692  0.80019  0.67330  1.0000
  S   S184      1.0  0.55610  0.75329  0.68832  1.0000
  C   C732      1.0  0.41810  0.72728  0.65471  1.0000
  C   C733      1.0  0.44107  0.74993  0.65405  1.0000
  C   C734      1.0  0.46248  0.75182  0.66695  1.0000
  C   C735      1.0  0.46106  0.73109  0.68100  1.0000
  C   C736      1.0  0.43805  0.70848  0.68184  1.0000
  C   C737      1.0  0.41668  0.70655  0.66876  1.0000
  H   H1316     1.0  0.44228  0.76613  0.64350  1.0000
  H   H1317     1.0  0.48000  0.76935  0.66624  1.0000
  H   H1318     1.0  0.43670  0.69235  0.69271  1.0000
  H   H1319     1.0  0.39913  0.68904  0.66955  1.0000
  H   H1320     1.0  0.62940  0.61207  0.93297  1.0000
  S   S185      1.0  0.52187  0.96910  0.81558  1.0000
  C   C738      1.0  0.54792  0.54522  0.95111  1.0000
  C   C739      1.0  0.58777  0.73003  0.76628  1.0000
  C   C740      1.0  0.57402  0.71039  0.74705  1.0000
  C   C741      1.0  0.57155  0.68639  0.75115  1.0000
  C   C742      1.0  0.58249  0.68158  0.77463  1.0000
  C   C743      1.0  0.59592  0.70112  0.79408  1.0000
  C   C744      1.0  0.59864  0.72522  0.78981  1.0000
  H   H1321     1.0  0.56589  0.71389  0.72865  1.0000
  H   H1322     1.0  0.56127  0.67147  0.73586  1.0000
  H   H1323     1.0  0.60442  0.69777  0.81227  1.0000
  H   H1324     1.0  0.60934  0.74028  0.80481  1.0000
  H   H1325     1.0  0.46326  0.68501  0.77351  1.0000
  C   C745      1.0  0.52334  0.51958  0.82670  1.0000
  C   C746      1.0  0.62451  0.76394  0.69644  1.0000
  H   H1326     1.0  0.55607  0.89210  0.83544  1.0000
  H   H1327     1.0  0.49055  0.96835  0.92037  1.0000
  C   C747      1.0  0.62059  0.61370  0.95167  1.0000
  C   C748      1.0  0.60276  0.62114  0.94933  1.0000
  C   C749      1.0  0.59161  0.62325  0.97396  1.0000
  H   H1328     1.0  0.64176  0.60381  0.97987  1.0000
  H   H1329     1.0  0.57769  0.62883  0.97236  1.0000
  C   C750      1.0  0.59784  0.91553  0.79487  1.0000
  C   C751      1.0  0.59197  0.92148  0.76859  1.0000
  C   C752      1.0  0.58493  0.90415  0.74591  1.0000
  C   C753      1.0  0.58338  0.88053  0.74916  1.0000
  C   C754      1.0  0.58920  0.87452  0.77545  1.0000
  C   C755      1.0  0.59652  0.89199  0.79808  1.0000
  H   H1330     1.0  0.59319  0.93959  0.76567  1.0000
  H   H1331     1.0  0.58065  0.90912  0.72566  1.0000
  H   H1332     1.0  0.58821  0.85650  0.77835  1.0000
  H   H1333     1.0  0.60113  0.88718  0.81826  1.0000
  H   H1334     1.0  0.45895  0.85843  0.78816  1.0000
  H   H1335     1.0  0.34411  0.80634  0.77039  1.0000
  H   H1336     1.0  0.60783  0.96258  0.98472  1.0000
  C   C756      1.0  0.53634  0.57400  0.91019  1.0000
  H   H1337     1.0  0.46941  0.95069  0.81901  1.0000
  H   H1338     1.0  0.38392  0.70816  0.51838  1.0000
  H   H1339     1.0  0.64619  0.82468  0.54101  1.0000
  C   C757      1.0  0.61244  0.88171  0.64715  1.0000
  H   H1340     1.0  0.43873  0.65356  0.73866  1.0000
  H   H1341     1.0  0.62398  0.69198  0.74538  1.0000
  C   C758      1.0  0.48755  0.67443  0.72634  1.0000
  S   S186      1.0  0.34178  0.94989  0.79392  1.0000
  H   H1342     1.0  0.51213  0.82775  0.71100  1.0000
  H   H1343     1.0  0.39952  0.65011  0.63780  1.0000
  C   C759      1.0  0.61960  0.81040  0.60600  1.0000
  H   H1344     1.0  0.63977  0.82479  0.64500  1.0000
  H   H1345     1.0  0.48710  0.63071  0.74000  1.0000
  C   C760      1.0  0.51329  0.71304  0.79569  1.0000
  H   H1346     1.0  0.56618  0.56203  0.94593  1.0000
  C   C761      1.0  0.63615  0.96442  0.89640  1.0000
  H   H1347     1.0  0.43181  0.75699  0.57038  1.0000
  H   H1348     1.0  0.46601  0.90416  0.82297  1.0000
  H   H1349     1.0  0.60384  0.97679  0.93701  1.0000
  H   H1350     1.0  0.49168  0.94319  0.86985  1.0000
  C   C762      1.0  0.36048  0.98280  0.99466  1.0000
  H   H1351     1.0  0.43471  0.72593  0.59752  1.0000
  H   H1352     1.0  0.46825  0.66392  0.79445  1.0000
  C   C763      1.0  0.57956  0.51855  0.88160  1.0000
  H   H1353     1.0  0.64977  0.58226  0.78323  1.0000
  C   C764      1.0  0.51102  0.68294  0.70851  1.0000
  H   H1354     1.0  0.34232  0.84126  0.74870  1.0000
  C   C765      1.0  0.53366  0.93833  0.75468  1.0000
  H   H1355     1.0  0.48650  0.77047  0.57388  1.0000
  H   H1356     1.0  0.48053  0.87331  0.81716  1.0000
  C   C766      1.0  0.52080  0.58486  0.89823  1.0000
  N   N42       1.0  0.41888  0.70401  0.55921  1.0000
  H   H1357     1.0  0.59521  0.69302  0.69577  1.0000
  H   H1358     1.0  0.38951  0.67317  0.51652  1.0000
  C   C767      1.0  0.60547  0.98812  0.95523  1.0000
  H   H1359     1.0  0.50537  0.58109  0.91247  1.0000
  H   H1360     1.0  0.64370  0.95966  0.69092  1.0000
  H   H1361     1.0  0.47531  0.52791  0.84538  1.0000
  H   H1362     1.0  0.51184  0.53725  0.89263  1.0000
  C   C768      1.0  0.41561  0.68009  0.57248  1.0000
  C   C769      1.0  0.38904  0.71879  0.53862  1.0000
  H   H1363     1.0  0.63369  0.77717  0.71444  1.0000
  C   C770      1.0  0.50512  0.98442  0.82437  1.0000
  H   H1364     1.0  0.56309  0.84679  0.63543  1.0000
  C   C771      1.0  0.47061  0.77297  0.57956  1.0000
  H   H1365     1.0  0.56955  0.65164  0.67268  1.0000
  H   H1366     1.0  0.62511  0.77509  0.67777  1.0000
  H   H1367     1.0  0.60529  0.79916  0.56372  1.0000
  H   H1368     1.0  0.51706  0.75025  0.79059  1.0000
  H   H1369     1.0  0.52396  0.70347  0.71101  1.0000
  H   H1370     1.0  0.50600  0.66550  0.79237  1.0000
  H   H1371     1.0  0.62770  0.73650  0.67190  1.0000
  C   C772      1.0  0.58978  0.66266  0.66866  1.0000
  C   C773      1.0  0.55321  0.95681  0.73455  1.0000
  C   C774      1.0  0.62764  0.60913  0.97835  1.0000
  H   H1372     1.0  0.45662  0.72437  0.57525  1.0000
  C   C775      1.0  0.50430  0.67804  0.67725  1.0000
  H   H1373     1.0  0.46983  0.99069  0.94453  1.0000
  Fe  Fe95      1.0  0.37724  0.99193  0.89246  1.0000
  C   C776      1.0  0.33902  0.81792  0.78368  1.0000
  H   H1374     1.0  0.62958  0.94484  0.90358  1.0000
  C   C777      1.0  0.42106  0.63793  0.77766  1.0000
  C   C778      1.0  0.45469  0.88631  0.81079  1.0000
  C   C779      1.0  0.63759  0.74902  0.69011  1.0000
  N   N43       1.0  0.49157  0.67753  0.75779  1.0000
  C   C780      1.0  0.64102  0.82488  0.62239  1.0000
  N   N44       1.0  0.63850  0.89246  0.65877  1.0000
  C   C781      1.0  0.52715  0.91077  0.74835  1.0000
  C   C782      1.0  0.36719  0.72199  0.54712  1.0000
  H   H1375     1.0  0.59936  0.87853  0.66441  1.0000
  H   H1376     1.0  0.35821  0.84868  0.81419  1.0000
  C   C783      1.0  0.54348  0.89933  0.84105  1.0000
  H   H1377     1.0  0.37861  0.68462  0.56065  1.0000
  H   H1378     1.0  0.44552  0.70678  0.52866  1.0000
  C   C784      1.0  0.65622  0.89443  0.63629  1.0000
  H   H1379     1.0  0.37014  0.82730  0.81201  1.0000
  H   H1380     1.0  0.43213  0.67801  0.56858  1.0000
  C   C785      1.0  0.60312  0.68042  0.69356  1.0000
  C   C786      1.0  0.63249  0.91988  0.69603  1.0000
  H   H1381     1.0  0.65292  0.73036  0.77113  1.0000
  C   C787      1.0  0.39477  0.70421  0.56139  1.0000
  S   S187      1.0  0.36301  0.97892  0.93710  1.0000
  H   H1382     1.0  0.33805  0.65161  0.52961  1.0000
  C   C788      1.0  0.44673  0.75287  0.56496  1.0000
  H   H1383     1.0  0.55342  0.91511  0.85633  1.0000
  H   H1384     1.0  0.40499  0.73780  0.53480  1.0000
  H   H1385     1.0  0.36229  0.73092  0.52982  1.0000
  S   S188      1.0  0.58973  0.98759  0.79432  1.0000
  H   H1386     1.0  0.44465  0.88980  0.79351  1.0000
  H   H1387     1.0  0.51698  0.94032  0.75187  1.0000
  H   H1388     1.0  0.52843  0.97412  0.95507  1.0000
  H   H1389     1.0  0.44994  0.75504  0.54209  1.0000
  H   H1390     1.0  0.50082  0.71658  0.75384  1.0000
  H   H1391     1.0  0.55288  0.92504  0.80671  1.0000
  C   C789      1.0  0.48504  0.51810  0.83966  1.0000
  C   C790      1.0  0.41134  0.67780  0.60465  1.0000
  C   C791      1.0  0.50841  0.70540  0.76408  1.0000
  H   H1392     1.0  0.56822  0.82903  0.60873  1.0000
  N   N45       1.0  0.53391  0.53179  0.92442  1.0000
  H   H1393     1.0  0.44083  0.87201  0.82504  1.0000
  C   C792      1.0  0.50762  0.62419  0.77193  1.0000
  H   H1394     1.0  0.49580  0.70586  0.80740  1.0000
  C   C793      1.0  0.33227  0.65658  0.51030  1.0000
  H   H1395     1.0  0.52146  0.68472  0.66494  1.0000
  H   H1396     1.0  0.55718  0.97631  0.73930  1.0000
  C   C794      1.0  0.49041  0.89606  0.77853  1.0000
  H   H1397     1.0  0.53482  0.51664  0.98406  1.0000
  H   H1398     1.0  0.57727  0.86160  0.60261  1.0000
  H   H1399     1.0  0.49493  0.68853  0.67016  1.0000
  H   H1400     1.0  0.59690  0.67969  0.95988  1.0000
  H   H1401     1.0  0.49694  0.93332  0.90386  1.0000
  C   C795      1.0  0.51058  0.53206  0.83407  1.0000
  C   C796      1.0  0.52779  0.74175  0.79941  1.0000
  H   H1402     1.0  0.52348  0.67259  0.76163  1.0000
  H   H1403     1.0  0.39376  0.71180  0.58222  1.0000
  H   H1404     1.0  0.54642  0.95211  0.71244  1.0000
  H   H1405     1.0  0.59225  0.53795  0.87401  1.0000
  H   H1406     1.0  0.48660  0.81747  0.73463  1.0000
  H   H1407     1.0  0.55351  0.49940  0.91384  1.0000
  H   H1408     1.0  0.54432  0.58365  0.93062  1.0000
  H   H1409     1.0  0.38323  0.63776  0.60489  1.0000
  H   H1410     1.0  0.59946  0.84103  0.64609  1.0000
  H   H1411     1.0  0.51256  0.62793  0.79464  1.0000
  H   H1412     1.0  0.54593  0.74991  0.78879  1.0000
  H   H1413     1.0  0.48831  0.83558  0.70380  1.0000
  C   C797      1.0  0.49120  0.63498  0.76271  1.0000
  H   H1414     1.0  0.47453  0.65451  0.72024  1.0000
  C   C798      1.0  0.50412  0.66366  0.76910  1.0000
  H   H1415     1.0  0.55914  0.51731  0.96378  1.0000
  H   H1416     1.0  0.63441  0.85678  0.67170  1.0000
  H   H1417     1.0  0.52545  0.85415  0.75356  1.0000
  C   C799      1.0  0.49705  0.86576  0.75206  1.0000
  C   C800      1.0  0.47123  0.87670  0.79905  1.0000
  C   C801      1.0  0.53591  0.90855  0.81491  1.0000
  H   H1418     1.0  0.51892  0.90669  0.72669  1.0000
  C   C802      1.0  0.40168  0.65078  0.61463  1.0000
  H   H1419     1.0  0.62281  0.86994  0.69602  1.0000
  H   H1420     1.0  0.61919  0.72443  0.72529  1.0000
  H   H1421     1.0  0.54488  0.91076  0.74667  1.0000
  C   C803      1.0  0.43961  0.72609  0.57512  1.0000
  C   C804      1.0  0.64489  0.82480  0.56363  1.0000
  H   H1422     1.0  0.49884  0.91477  0.78924  1.0000
  C   C805      1.0  0.52445  0.88734  0.79225  1.0000
  C   C806      1.0  0.64398  0.94694  0.70734  1.0000
  H   H1423     1.0  0.59866  0.66843  0.71245  1.0000
  H   H1424     1.0  0.52038  0.55246  0.83546  1.0000
  H   H1425     1.0  0.47994  0.89765  0.76022  1.0000
  H   H1426     1.0  0.52301  0.91488  0.82190  1.0000
  H   H1427     1.0  0.47839  0.68508  0.71896  1.0000
  C   C807      1.0  0.47903  0.97057  0.82451  1.0000
  H   H1428     1.0  0.41765  0.65366  0.78278  1.0000
  C   C808      1.0  0.52042  0.54494  0.91361  1.0000
  C   C809      1.0  0.51431  0.85762  0.73770  1.0000
  H   H1429     1.0  0.52495  0.63265  0.75966  1.0000
  H   H1430     1.0  0.46864  0.77187  0.60272  1.0000
  C   C810      1.0  0.60158  0.85599  0.63139  1.0000
  N   N46       1.0  0.51004  0.89047  0.76836  1.0000
  H   H1431     1.0  0.48463  0.86652  0.73547  1.0000
  H   H1432     1.0  0.54078  0.94411  0.77639  1.0000
  H   H1433     1.0  0.59264  0.67357  0.64909  1.0000
  H   H1434     1.0  0.54026  0.88572  0.78412  1.0000
  H   H1435     1.0  0.51824  0.93944  0.87569  1.0000
  H   H1436     1.0  0.51266  0.86907  0.80298  1.0000
  C   C811      1.0  0.49929  0.83311  0.72079  1.0000
  C   C812      1.0  0.46530  0.98228  0.83190  1.0000
  H   H1437     1.0  0.53773  0.55300  0.96269  1.0000
  C   C813      1.0  0.46715  0.66909  0.77227  1.0000
  H   H1438     1.0  0.50285  0.99264  0.96266  1.0000
  H   H1439     1.0  0.61297  0.91351  0.68992  1.0000
  C   C814      1.0  0.59682  0.69249  0.97647  1.0000
  C   C815      1.0  0.40924  0.68030  0.51160  1.0000
  C   C816      1.0  0.60764  0.98007  0.98237  1.0000
  H   H1440     1.0  0.37203  0.73414  0.56624  1.0000
  H   H1441     1.0  0.52725  0.87220  0.72304  1.0000
  H   H1442     1.0  0.40421  0.62268  0.76690  1.0000
  H   H1443     1.0  0.52684  0.88408  0.85137  1.0000
  H   H1444     1.0  0.61350  0.85672  0.61392  1.0000
  H   H1445     1.0  0.35070  0.70335  0.55149  1.0000
  H   H1446     1.0  0.59662  0.64916  0.66578  1.0000
  H   H1447     1.0  0.50481  0.54124  0.92768  1.0000
  H   H1448     1.0  0.47475  0.79207  0.57290  1.0000
  H   H1449     1.0  0.58021  0.52927  0.92450  1.0000
  H   H1450     1.0  0.34193  0.96678  0.99220  1.0000
  H   H1451     1.0  0.49760  0.60342  0.76829  1.0000
  C   C817      1.0  0.37543  0.99262  0.97085  1.0000
  C   C818      1.0  0.56596  0.51926  0.90775  1.0000
  S   S189      1.0  0.32801  0.66922  0.66742  1.0000
  C   C819      1.0  0.63155  0.69593  0.68898  1.0000
  H   H1452     1.0  0.59072  0.50945  0.88656  1.0000
  C   C820      1.0  0.55245  0.52928  0.97324  1.0000
  H   H1453     1.0  0.42911  0.69006  0.61614  1.0000
  H   H1454     1.0  0.49443  0.98401  0.88782  1.0000
  H   H1455     1.0  0.64544  0.93059  0.65402  1.0000
  H   H1456     1.0  0.53571  0.97470  0.91023  1.0000
  C   C821      1.0  0.44333  0.64704  0.75843  1.0000
  H   H1457     1.0  0.48483  0.84989  0.76596  1.0000
  H   H1458     1.0  0.44551  0.63062  0.75325  1.0000
  H   H1459     1.0  0.42422  0.63024  0.79741  1.0000
  H   H1460     1.0  0.47376  0.62491  0.77463  1.0000
  C   C822      1.0  0.57156  0.54613  0.99554  1.0000
  H   H1461     1.0  0.65687  0.76293  0.68423  1.0000
  H   H1462     1.0  0.42817  0.72087  0.51784  1.0000
  C   C823      1.0  0.50605  0.94558  0.88558  1.0000
  C   C824      1.0  0.64702  0.91856  0.67044  1.0000
  H   H1463     1.0  0.39951  0.66317  0.56261  1.0000
  H   H1464     1.0  0.61983  0.96710  0.89424  1.0000
  H   H1465     1.0  0.61108  0.89547  0.63307  1.0000
  H   H1466     1.0  0.64459  0.96662  0.87543  1.0000
  H   H1467     1.0  0.65270  0.87537  0.63004  1.0000
  C   C825      1.0  0.55166  0.53348  0.90209  1.0000
  C   C826      1.0  0.62172  0.81038  0.57660  1.0000
  H   H1468     1.0  0.64477  0.86137  0.73515  1.0000
  H   H1469     1.0  0.39776  0.68354  0.61073  1.0000
  H   H1470     1.0  0.52458  0.70564  0.80561  1.0000
  H   H1471     1.0  0.56619  0.55347  0.89868  1.0000
  H   H1472     1.0  0.55176  0.57897  0.89562  1.0000
  H   H1473     1.0  0.63401  0.70473  0.66808  1.0000
  H   H1474     1.0  0.57075  0.95639  0.73696  1.0000
  H   H1475     1.0  0.52077  0.67261  0.71450  1.0000
  C   C827      1.0  0.57596  0.84797  0.61881  1.0000
  C   C828      1.0  0.65628  0.90851  0.60920  1.0000
  H   H1476     1.0  0.37683  0.85004  0.78463  1.0000
  H   H1477     1.0  0.59010  0.55731  0.98600  1.0000
  C   C829      1.0  0.42655  0.70435  0.52922  1.0000
  C   C830      1.0  0.64351  0.70121  0.73848  1.0000
  C   C831      1.0  0.63795  0.73401  0.71607  1.0000
  C   C832      1.0  0.50477  0.98314  0.90671  1.0000
  H   H1478     1.0  0.63762  0.89967  0.59907  1.0000
  C   C833      1.0  0.52153  0.97323  0.89497  1.0000
  H   H1479     1.0  0.60476  0.75088  0.70145  1.0000
  H   H1480     1.0  0.55493  0.98794  0.99715  1.0000
  H   H1481     1.0  0.63668  0.68868  0.79468  1.0000
  C   C834      1.0  0.36249  0.83724  0.79955  1.0000
  H   H1482     1.0  0.64981  0.74845  0.73214  1.0000
  H   H1483     1.0  0.61046  0.71226  0.97080  1.0000
  H   H1484     1.0  0.48526  0.49646  0.89846  1.0000
  H   H1485     1.0  0.33265  0.80111  0.72367  1.0000
  H   H1486     1.0  0.53159  0.98446  0.87641  1.0000
  H   H1487     1.0  0.32852  0.84662  0.77804  1.0000
  H   H1488     1.0  0.41347  0.66509  0.51656  1.0000
  Fe  Fe96      1.0  0.56326  0.98791  0.82572  1.0000
  H   H1489     1.0  0.64755  0.68557  0.73516  1.0000
  H   H1490     1.0  0.63242  0.90797  0.71358  1.0000
  H   H1491     1.0  0.50190  0.50442  0.94706  1.0000
  N   N47       1.0  0.64673  0.71535  0.71143  1.0000
  C   C835      1.0  0.65515  0.98339  0.91751  1.0000
  H   H1492     1.0  0.64618  0.97947  0.93826  1.0000
  H   H1493     1.0  0.63320  0.94740  0.72549  1.0000
  C   C836      1.0  0.51443  0.50475  0.93037  1.0000
  H   H1494     1.0  0.56605  0.50745  0.86452  1.0000
  H   H1495     1.0  0.65661  0.84771  0.71022  1.0000
  C   C837      1.0  0.65648  0.70023  0.78895  1.0000
  C   C838      1.0  0.32828  0.83121  0.76520  1.0000
  H   H1496     1.0  0.32567  0.80519  0.79928  1.0000
  Fe  Fe97      1.0  0.86215  0.15351  0.45926  1.0000
  S   S190      1.0  0.86013  0.18236  0.43013  1.0000
  S   S191      1.0  0.87998  0.13020  0.44868  1.0000
  S   S192      1.0  0.82992  0.12193  0.48153  1.0000
  S   S193      1.0  0.97020  0.39973  0.11445  1.0000
  C   C839      1.0  0.95496  0.29190  0.12746  1.0000
  Fe  Fe98      1.0  0.96223  0.37536  0.15295  1.0000
  S   S194      1.0  0.92194  0.35434  0.16843  1.0000
  Fe  Fe99      1.0  0.77635  0.23462  0.28165  1.0000
  S   S195      1.0  0.78110  0.23359  0.23481  1.0000
  S   S196      1.0  0.77272  0.26466  0.30643  1.0000
  Fe  Fe100     1.0  0.78632  0.19132  0.29250  1.0000
  S   S197      1.0  0.79128  0.18654  0.24641  1.0000
  S   S198      1.0  0.78676  0.16491  0.32620  1.0000
  Fe  Fe101     1.0  0.81414  0.22926  0.24541  1.0000
  S   S199      1.0  0.85242  0.24648  0.22491  1.0000
  Fe  Fe102     1.0  0.75791  0.19093  0.23869  1.0000
  S   S200      1.0  0.72537  0.16944  0.20736  1.0000
  S   S201      1.0  0.81110  0.23327  0.29199  1.0000
  S   S202      1.0  0.75121  0.19271  0.28478  1.0000
  C   C840      1.0  0.80061  0.21172  0.41864  1.0000
  S   S203      1.0  0.70408  0.34218  0.35744  1.0000
  S   S204      1.0  0.67476  0.27031  0.32805  1.0000
  H   H1497     1.0  0.78015  0.23503  0.34854  1.0000
  S   S205      1.0  0.70649  0.39099  0.30026  1.0000
  H   H1498     1.0  0.77878  0.01062  0.44454  1.0000
  H   H1499     1.0  0.95247  0.48332  0.14982  1.0000
  H   H1500     1.0  0.84602  0.24756  0.15097  1.0000
  H   H1501     1.0  0.81758  0.26695  0.39544  1.0000
  C   C841      1.0  0.71368  0.42313  0.30025  1.0000
  C   C842      1.0  0.72832  0.43908  0.27860  1.0000
  C   C843      1.0  0.73391  0.46448  0.27720  1.0000
  C   C844      1.0  0.72464  0.47420  0.29729  1.0000
  C   C845      1.0  0.71013  0.45828  0.31903  1.0000
  C   C846      1.0  0.70481  0.43299  0.32066  1.0000
  H   H1502     1.0  0.73532  0.43171  0.26272  1.0000
  H   H1503     1.0  0.89469  0.31917  0.05275  1.0000
  H   H1504     1.0  0.70296  0.46563  0.33475  1.0000
  H   H1505     1.0  0.69382  0.42113  0.33762  1.0000
  C   C847      1.0  0.74511  0.26508  0.31380  1.0000
  C   C848      1.0  0.72167  0.24514  0.30596  1.0000
  C   C849      1.0  0.70032  0.24692  0.31088  1.0000
  C   C850      1.0  0.70214  0.26860  0.32362  1.0000
  C   C851      1.0  0.72557  0.28833  0.33195  1.0000
  C   C852      1.0  0.74691  0.28653  0.32708  1.0000
  H   H1506     1.0  0.72000  0.22850  0.29579  1.0000
  H   H1507     1.0  0.68228  0.23153  0.30445  1.0000
  H   H1508     1.0  0.72725  0.30508  0.34186  1.0000
  H   H1509     1.0  0.76496  0.30206  0.33326  1.0000
  Fe  Fe103     1.0  0.84886  0.09919  0.47369  1.0000
  H   H1510     1.0  0.92725  0.33099  0.05527  1.0000
  S   S206      1.0  0.98324  0.35687  0.13772  1.0000
  H   H1511     1.0  0.83879  0.26247  0.35283  1.0000
  C   C853      1.0  0.92312  0.46828  0.21096  1.0000
  C   C854      1.0  0.87173  0.27696  0.21018  1.0000
  C   C855      1.0  0.86393  0.29469  0.20707  1.0000
  C   C856      1.0  0.87960  0.31824  0.19442  1.0000
  C   C857      1.0  0.90338  0.32458  0.18500  1.0000
  C   C858      1.0  0.91127  0.30696  0.18840  1.0000
  C   C859      1.0  0.89550  0.28330  0.20077  1.0000
  H   H1512     1.0  0.84572  0.29014  0.21406  1.0000
  H   H1513     1.0  0.87325  0.33167  0.19191  1.0000
  H   H1514     1.0  0.92948  0.31154  0.18143  1.0000
  H   H1515     1.0  0.90178  0.26981  0.20305  1.0000
  C   C860      1.0  0.68378  0.08588  0.17656  1.0000
  C   C861      1.0  0.70304  0.09420  0.19686  1.0000
  C   C862      1.0  0.71586  0.11955  0.20661  1.0000
  C   C863      1.0  0.70962  0.13704  0.19614  1.0000
  C   C864      1.0  0.69027  0.12870  0.17590  1.0000
  H   H1516     1.0  0.89581  0.34294  0.09488  1.0000
  H   H1517     1.0  0.87989  0.27431  0.05328  1.0000
  H   H1518     1.0  0.73065  0.12555  0.22213  1.0000
  H   H1519     1.0  0.68539  0.14205  0.16744  1.0000
  C   C865      1.0  0.92868  0.30679  0.10112  1.0000
  C   C866      1.0  0.83964  0.17698  0.40115  1.0000
  C   C867      1.0  0.82096  0.15274  0.39303  1.0000
  C   C868      1.0  0.80505  0.14947  0.37002  1.0000
  C   C869      1.0  0.80761  0.17030  0.35478  1.0000
  C   C870      1.0  0.82631  0.19455  0.36285  1.0000
  C   C871      1.0  0.84225  0.19782  0.38583  1.0000
  H   H1520     1.0  0.81871  0.13651  0.40454  1.0000
  H   H1521     1.0  0.79062  0.13061  0.36403  1.0000
  H   H1522     1.0  0.82837  0.21078  0.35160  1.0000
  H   H1523     1.0  0.85665  0.21666  0.39193  1.0000
  H   H1524     1.0  0.75034  0.23942  0.37375  1.0000
  H   H1525     1.0  0.93743  0.27765  0.08758  1.0000
  H   H1526     1.0  0.79118  0.19200  0.41051  1.0000
  H   H1527     1.0  0.82117  0.23100  0.45697  1.0000
  N   N48       1.0  0.86775  0.18919  0.28660  1.0000
  C   C872      1.0  0.87774  0.21734  0.28515  1.0000
  C   C873      1.0  0.88254  0.18257  0.26701  1.0000
  C   C874      1.0  0.84064  0.17573  0.27811  1.0000
  C   C875      1.0  0.87009  0.18121  0.31589  1.0000
  C   C876      1.0  0.89673  0.19449  0.32881  1.0000
  C   C877      1.0  0.86857  0.22872  0.30797  1.0000
  C   C878      1.0  0.82750  0.14641  0.27669  1.0000
  C   C879      1.0  0.87850  0.18502  0.23518  1.0000
  C   C880      1.0  0.89575  0.17975  0.21752  1.0000
  C   C881      1.0  0.89646  0.18731  0.35957  1.0000
  C   C882      1.0  0.87926  0.25707  0.30377  1.0000
  C   C883      1.0  0.80182  0.13499  0.26276  1.0000
  H   H1528     1.0  0.87275  0.22230  0.26454  1.0000
  H   H1529     1.0  0.89839  0.22797  0.28601  1.0000
  H   H1530     1.0  0.90275  0.19493  0.27149  1.0000
  H   H1531     1.0  0.87889  0.16306  0.27082  1.0000
  H   H1532     1.0  0.83795  0.18284  0.25762  1.0000
  H   H1533     1.0  0.82992  0.18020  0.29317  1.0000
  H   H1534     1.0  0.85757  0.18360  0.33043  1.0000
  H   H1535     1.0  0.86354  0.16062  0.31629  1.0000
  H   H1536     1.0  0.90568  0.21535  0.32802  1.0000
  H   H1537     1.0  0.90849  0.18868  0.31733  1.0000
  H   H1538     1.0  0.84812  0.21963  0.30709  1.0000
  H   H1539     1.0  0.87427  0.22623  0.32934  1.0000
  H   H1540     1.0  0.82494  0.13864  0.29822  1.0000
  H   H1541     1.0  0.83818  0.13973  0.26453  1.0000
  H   H1542     1.0  0.85918  0.17126  0.22843  1.0000
  H   H1543     1.0  0.88224  0.20431  0.23013  1.0000
  H   H1544     1.0  0.89232  0.18141  0.19488  1.0000
  H   H1545     1.0  0.91548  0.19364  0.22263  1.0000
  H   H1546     1.0  0.89227  0.16032  0.22129  1.0000
  H   H1547     1.0  0.88724  0.16646  0.36186  1.0000
  H   H1548     1.0  0.91577  0.19583  0.36794  1.0000
  H   H1549     1.0  0.88656  0.19454  0.37240  1.0000
  H   H1550     1.0  0.87246  0.26473  0.32040  1.0000
  H   H1551     1.0  0.89985  0.26720  0.30498  1.0000
  H   H1552     1.0  0.87329  0.26071  0.28307  1.0000
  H   H1553     1.0  0.78982  0.14019  0.27469  1.0000
  H   H1554     1.0  0.80327  0.14159  0.24079  1.0000
  H   H1555     1.0  0.79281  0.11405  0.26240  1.0000
  Fe  Fe104     1.0  0.67871  0.33935  0.39250  1.0000
  H   H1556     1.0  0.85310  0.27986  0.14871  1.0000
  C   C884      1.0  0.75464  0.19497  0.38225  1.0000
  N   N49       1.0  0.77068  0.22235  0.39136  1.0000
  C   C885      1.0  0.78953  0.23569  0.36877  1.0000
  C   C886      1.0  0.81067  0.21154  0.44805  1.0000
  Fe  Fe105     1.0  0.67256  0.30472  0.34291  1.0000
  H   H1557     1.0  0.78246  0.27088  0.41316  1.0000
  H   H1558     1.0  0.73256  0.39445  0.47068  1.0000
  C   C887      1.0  0.72292  0.16221  0.34817  1.0000
  S   S207      1.0  0.66295  0.35993  0.36851  1.0000
  H   H1559     1.0  0.88573  0.48231  0.20747  1.0000
  C   C888      1.0  0.74726  0.26914  0.41163  1.0000
  C   C889      1.0  0.80874  0.26388  0.37437  1.0000
  C   C890      1.0  0.93307  0.28431  0.10722  1.0000
  H   H1560     1.0  0.76825  0.21186  0.43495  1.0000
  H   H1561     1.0  0.93464  0.46241  0.19900  1.0000
  H   H1562     1.0  0.84363  0.29380  0.35851  1.0000
  C   C891      1.0  0.87509  0.27012  0.12155  1.0000
  H   H1563     1.0  0.66325  0.09749  0.15000  1.0000
  H   H1564     1.0  0.75316  0.28464  0.42736  1.0000
  C   C892      1.0  0.81946  0.99622  0.49447  1.0000
  H   H1565     1.0  0.76041  0.24939  0.43743  1.0000
  H   H1566     1.0  0.81678  0.22355  0.40532  1.0000
  H   H1567     1.0  0.74498  0.47638  0.26029  1.0000
  H   H1568     1.0  0.70817  0.08094  0.20506  1.0000
  H   H1569     1.0  0.74421  0.18304  0.40038  1.0000
  H   H1570     1.0  0.92742  0.35131  0.10280  1.0000
  S   S208      1.0  0.82200  0.05843  0.45803  1.0000
  C   C893      1.0  0.75412  0.23371  0.39468  1.0000
  C   C894      1.0  0.85095  0.26345  0.13632  1.0000
  C   C895      1.0  0.82954  0.27398  0.35299  1.0000
  H   H1571     1.0  0.74936  0.07041  0.48403  1.0000
  N   N50       1.0  0.75292  0.29720  0.23395  1.0000
  C   C896      1.0  0.74560  0.26965  0.23246  1.0000
  C   C897      1.0  0.77797  0.31226  0.24858  1.0000
  C   C898      1.0  0.73383  0.29930  0.25135  1.0000
  C   C899      1.0  0.75281  0.30765  0.20530  1.0000
  C   C900      1.0  0.77045  0.30686  0.18328  1.0000
  C   C901      1.0  0.71921  0.25109  0.22074  1.0000
  C   C902      1.0  0.74091  0.32634  0.26165  1.0000
  C   C903      1.0  0.79769  0.30432  0.24288  1.0000
  C   C904      1.0  0.82296  0.32342  0.25559  1.0000
  C   C905      1.0  0.76513  0.31371  0.15415  1.0000
  C   C906      1.0  0.71481  0.22415  0.21921  1.0000
  C   C907      1.0  0.71855  0.32687  0.27376  1.0000
  H   H1572     1.0  0.74691  0.26302  0.25381  1.0000
  H   H1573     1.0  0.75874  0.26676  0.21975  1.0000
  H   H1574     1.0  0.78628  0.33273  0.24386  1.0000
  H   H1575     1.0  0.77567  0.31065  0.27183  1.0000
  H   H1576     1.0  0.72953  0.28749  0.27044  1.0000
  H   H1577     1.0  0.71591  0.29155  0.23950  1.0000
  H   H1578     1.0  0.73368  0.29801  0.19612  1.0000
  H   H1579     1.0  0.75799  0.32782  0.20701  1.0000
  H   H1580     1.0  0.76858  0.28793  0.18145  1.0000
  H   H1581     1.0  0.78992  0.32111  0.18888  1.0000
  H   H1582     1.0  0.70482  0.25068  0.23458  1.0000
  H   H1583     1.0  0.71658  0.25638  0.19925  1.0000
  H   H1584     1.0  0.74816  0.34027  0.24452  1.0000
  H   H1585     1.0  0.75538  0.33287  0.27853  1.0000
  H   H1586     1.0  0.79208  0.28587  0.25276  1.0000
  H   H1587     1.0  0.80016  0.30219  0.22034  1.0000
  H   H1588     1.0  0.82155  0.32518  0.27864  1.0000
  H   H1589     1.0  0.83644  0.31690  0.25184  1.0000
  H   H1590     1.0  0.83009  0.34221  0.24577  1.0000
  H   H1591     1.0  0.74606  0.29965  0.14683  1.0000
  H   H1592     1.0  0.76717  0.33283  0.15450  1.0000
  H   H1593     1.0  0.77850  0.31372  0.13893  1.0000
  H   H1594     1.0  0.72806  0.22305  0.20467  1.0000
  H   H1595     1.0  0.71704  0.21775  0.24032  1.0000
  H   H1596     1.0  0.69568  0.21100  0.21131  1.0000
  H   H1597     1.0  0.72430  0.34619  0.28167  1.0000
  H   H1598     1.0  0.70383  0.32164  0.25742  1.0000
  H   H1599     1.0  0.71075  0.31362  0.29154  1.0000
  H   H1600     1.0  0.79381  0.24194  0.42805  1.0000
  H   H1601     1.0  0.89311  0.25144  0.01476  1.0000
  H   H1602     1.0  0.82206  0.27393  0.33169  1.0000
  H   H1603     1.0  0.79966  0.22546  0.36417  1.0000
  C   C908      1.0  0.67958  0.34630  0.46817  1.0000
  H   H1604     1.0  0.79955  0.27536  0.37226  1.0000
  H   H1605     1.0  0.74351  0.20224  0.34060  1.0000
  H   H1606     1.0  0.89551  0.26225  0.07321  1.0000
  C   C909      1.0  0.76278  0.25632  0.41549  1.0000
  C   C910      1.0  0.68865  0.28159  0.42195  1.0000
  S   S209      1.0  0.69502  0.34662  0.43709  1.0000
  Fe  Fe106     1.0  0.68567  0.35977  0.33235  1.0000
  H   H1607     1.0  0.71996  0.19251  0.36634  1.0000
  H   H1608     1.0  0.76636  0.18717  0.37471  1.0000
  H   H1609     1.0  0.73570  0.21928  0.40276  1.0000
  C   C911      1.0  0.78281  0.22258  0.41915  1.0000
  H   H1610     1.0  0.71350  0.14892  0.36561  1.0000
  C   C912      1.0  0.98918  0.37641  0.02262  1.0000
  H   H1611     1.0  0.74986  0.27737  0.39031  1.0000
  C   C913      1.0  0.89829  0.27974  0.06307  1.0000
  C   C914      1.0  0.73507  0.18958  0.35863  1.0000
  C   C915      1.0  0.92192  0.48945  0.19537  1.0000
  H   H1612     1.0  0.92894  0.31589  0.12156  1.0000
  H   H1613     1.0  0.70891  0.15884  0.33150  1.0000
  H   H1614     1.0  0.83554  0.25763  0.12077  1.0000
  H   H1615     1.0  0.91667  0.26801  0.11632  1.0000
  H   H1616     1.0  0.82345  0.20383  0.44690  1.0000
  H   H1617     1.0  0.67046  0.47280  0.29359  1.0000
  H   H1618     1.0  0.68935  0.29301  0.46474  1.0000
  H   H1619     1.0  0.72725  0.25536  0.41451  1.0000
  C   C916      1.0  0.97275  0.17788  0.49515  1.0000
  S   S210      1.0  0.66863  0.05366  0.16479  1.0000
  H   H1620     1.0  0.93178  0.47490  0.23213  1.0000
  H   H1621     1.0  0.79529  0.19937  0.46223  1.0000
  H   H1622     1.0  0.73699  0.15825  0.33914  1.0000
  C   C917      1.0  0.67751  0.10336  0.16610  1.0000
  C   C918      1.0  0.67677  0.27679  0.45085  1.0000
  C   C919      1.0  0.81286  0.02696  0.46887  1.0000
  H   H1623     1.0  0.94564  0.32119  0.09031  1.0000
  H   H1624     1.0  0.90425  0.45161  0.21308  1.0000
  H   H1625     1.0  0.65980  0.42886  0.28499  1.0000
  H   H1626     1.0  0.91585  0.24992  0.03763  1.0000
  H   H1627     1.0  0.69064  0.29920  0.41284  1.0000
  H   H1628     1.0  0.87157  0.25336  0.10896  1.0000
  Fe  Fe107     1.0  0.90107  0.14481  0.49007  1.0000
  H   H1629     1.0  0.67597  0.25961  0.45939  1.0000
  H   H1630     1.0  0.88878  0.30949  0.11904  1.0000
  H   H1631     1.0  0.66572  0.03291  0.01159  1.0000
  H   H1632     1.0  0.73447  0.42472  0.46820  1.0000
  C   C920      1.0  0.91678  0.28604  0.03866  1.0000
  C   C921      1.0  0.91365  0.34688  0.08559  1.0000
  C   C922      1.0  0.68930  0.34427  0.49423  1.0000
  H   H1633     1.0  0.75831  0.42170  0.48712  1.0000
  H   H1634     1.0  0.84504  0.03670  0.49475  1.0000
  H   H1635     1.0  0.86778  0.29199  0.09095  1.0000
  H   H1636     1.0  0.96469  0.19569  0.46099  1.0000
  H   H1637     1.0  0.93635  0.29654  0.04631  1.0000
  H   H1638     1.0  0.97263  0.45723  0.14589  1.0000
  C   C923      1.0  0.98356  0.47756  0.14404  1.0000
  H   H1639     1.0  0.92373  0.38610  0.07991  1.0000
  C   C924      1.0  0.91242  0.26216  0.02326  1.0000
  H   H1640     1.0  0.92540  0.26747  0.00546  1.0000
  S   S211      1.0  0.98503  0.36266  0.05660  1.0000
  N   N51       1.0  0.90552  0.30079  0.08429  1.0000
  H   H1641     1.0  0.70744  0.28388  0.42394  1.0000
  C   C925      1.0  0.79019  0.00673  0.45865  1.0000
  C   C926      1.0  0.92229  0.37017  0.06715  1.0000
  C   C927      1.0  0.67536  0.05188  0.00179  1.0000
  H   H1642     1.0  0.94083  0.37601  0.05834  1.0000
  H   H1643     1.0  0.95189  0.29895  0.14767  1.0000
  C   C928      1.0  0.88397  0.29402  0.10345  1.0000
  C   C929      1.0  0.91020  0.32396  0.06803  1.0000
  C   C930      1.0  0.97919  0.19541  0.47347  1.0000
  H   H1644     1.0  0.97240  0.30672  0.11799  1.0000
  H   H1645     1.0  0.95708  0.27525  0.13185  1.0000
  H   H1646     1.0  0.88914  0.27377  0.13823  1.0000
  H   H1647     1.0  0.90885  0.36622  0.04961  1.0000
  H   H1648     1.0  0.70604  0.34304  0.49489  1.0000
  H   H1649     1.0  0.97227  0.34034  0.00112  1.0000
  H   H1650     1.0  0.67728  0.26555  0.40732  1.0000
  H   H1651     1.0  0.91432  0.29813  0.02305  1.0000
  C   C931      1.0  0.97219  0.49242  0.14636  1.0000
  C   C932      1.0  0.76660  0.07141  0.49224  1.0000
  H   H1652     1.0  0.77673  0.06940  0.47426  1.0000
  C   C933      1.0  0.82742  0.02150  0.48696  1.0000
  H   H1653     1.0  0.91427  0.48219  0.17396  1.0000
  H   H1654     1.0  0.68822  0.06575  0.01771  1.0000
  C   C934      1.0  0.73813  0.41240  0.48218  1.0000
  C   C935      1.0  0.98118  0.36059  0.99859  1.0000
  C   C936      1.0  0.78531  0.06471  0.58508  1.0000
  H   H1655     1.0  0.66589  0.01318  0.96484  1.0000
  H   H1656     1.0  0.68291  0.43322  0.58628  1.0000
  H   H1657     1.0  0.66481  0.40086  0.68294  1.0000
  H   H1658     1.0  0.89726  0.20898  0.54326  1.0000
  H   H1659     1.0  0.79794  0.06963  0.52898  1.0000
  Fe  Fe108     1.0  0.85356  0.13621  0.52075  1.0000
  S   S212      1.0  0.83940  0.13401  0.56552  1.0000
  S   S213      1.0  0.87101  0.11209  0.51401  1.0000
  H   H1660     1.0  0.66028  0.19362  0.75358  1.0000
  S   S214      1.0  0.96715  0.40224  0.86057  1.0000
  H   H1661     1.0  0.78320  0.08847  0.61753  1.0000
  Fe  Fe109     1.0  0.96208  0.36778  0.83665  1.0000
  S   S215      1.0  0.92194  0.33503  0.82969  1.0000
  Fe  Fe110     1.0  0.78497  0.19989  0.66878  1.0000
  S   S216      1.0  0.80010  0.19158  0.70809  1.0000
  S   S217      1.0  0.78655  0.18915  0.62292  1.0000
  Fe  Fe111     1.0  0.76878  0.23332  0.70047  1.0000
  S   S218      1.0  0.78354  0.22750  0.74151  1.0000
  S   S219      1.0  0.75343  0.26031  0.70484  1.0000
  Fe  Fe112     1.0  0.81704  0.23328  0.71831  1.0000
  S   S220      1.0  0.85864  0.26031  0.72758  1.0000
  Fe  Fe113     1.0  0.76504  0.18631  0.72855  1.0000
  S   S221      1.0  0.74263  0.15914  0.76408  1.0000
  S   S222      1.0  0.80348  0.24169  0.67787  1.0000
  S   S223      1.0  0.74888  0.19209  0.68854  1.0000
  H   H1662     1.0  0.75712  0.41639  0.55794  1.0000
  H   H1663     1.0  0.83186  0.06166  0.52687  1.0000
  N   N52       1.0  0.68392  0.03185  0.92643  1.0000
  H   H1664     1.0  0.74504  0.03131  0.96329  1.0000
  H   H1665     1.0  0.76901  0.05802  0.94510  1.0000
  C   C937      1.0  0.78367  0.04990  0.52350  1.0000
  S   S224      1.0  0.68691  0.34553  0.60939  1.0000
  C   C938      1.0  0.71952  0.43148  0.66348  1.0000
  C   C939      1.0  0.70585  0.43840  0.64584  1.0000
  C   C940      1.0  0.71287  0.46409  0.64306  1.0000
  H   H1666     1.0  0.72663  0.44333  0.51156  1.0000
  C   C941      1.0  0.74687  0.47614  0.67607  1.0000
  C   C942      1.0  0.73997  0.45047  0.67866  1.0000
  H   H1667     1.0  0.68980  0.42392  0.63458  1.0000
  H   H1668     1.0  0.70220  0.46926  0.62931  1.0000
  C   C943      1.0  0.98463  0.37072  0.97126  1.0000
  H   H1669     1.0  0.75063  0.44529  0.69242  1.0000
  H   H1670     1.0  0.96690  0.45474  0.84478  1.0000
  H   H1671     1.0  0.75070  0.03306  0.56921  1.0000
  C   C944      1.0  0.73190  0.26453  0.68383  1.0000
  C   C945      1.0  0.72561  0.28267  0.69227  1.0000
  C   C946      1.0  0.70936  0.28743  0.67588  1.0000
  C   C947      1.0  0.69890  0.27384  0.65092  1.0000
  C   C948      1.0  0.70482  0.25534  0.64277  1.0000
  C   C949      1.0  0.72127  0.25075  0.65903  1.0000
  H   H1672     1.0  0.73358  0.29336  0.71149  1.0000
  H   H1673     1.0  0.70488  0.30159  0.68256  1.0000
  H   H1674     1.0  0.69679  0.24464  0.62357  1.0000
  H   H1675     1.0  0.72587  0.23671  0.65224  1.0000
  C   C950      1.0  0.90494  0.31436  0.80096  1.0000
  C   C951      1.0  0.91519  0.31641  0.77444  1.0000
  C   C952      1.0  0.90083  0.29959  0.75244  1.0000
  C   C953      1.0  0.87599  0.28059  0.75646  1.0000
  C   C954      1.0  0.86586  0.27835  0.78305  1.0000
  C   C955      1.0  0.88017  0.29521  0.80503  1.0000
  H   H1676     1.0  0.93421  0.33089  0.77095  1.0000
  H   H1677     1.0  0.90912  0.30131  0.73218  1.0000
  H   H1678     1.0  0.84702  0.26355  0.78677  1.0000
  H   H1679     1.0  0.87206  0.29327  0.82546  1.0000
  H   H1680     1.0  0.89437  0.47528  0.78152  1.0000
  H   H1681     1.0  0.86032  0.22746  0.55480  1.0000
  H   H1682     1.0  0.69233  0.21619  0.71216  1.0000
  H   H1683     1.0  0.66800  0.29498  0.55482  1.0000
  C   C956      1.0  0.67220  0.20266  0.71030  1.0000
  Fe  Fe114     1.0  0.66657  0.30903  0.63316  1.0000
  H   H1684     1.0  0.70128  0.01316  0.94751  1.0000
  C   C957      1.0  0.70035  0.11551  0.74364  1.0000
  C   C958      1.0  0.71437  0.12961  0.76705  1.0000
  C   C959      1.0  0.70548  0.12031  0.79403  1.0000
  C   C960      1.0  0.68293  0.09739  0.79764  1.0000
  H   H1685     1.0  0.66689  0.08222  0.72898  1.0000
  H   H1686     1.0  0.70696  0.12212  0.72275  1.0000
  H   H1687     1.0  0.71614  0.13097  0.81231  1.0000
  C   C961      1.0  0.73062  0.43140  0.52583  1.0000
  C   C962      1.0  0.82429  0.14914  0.58093  1.0000
  C   C963      1.0  0.81512  0.16190  0.56489  1.0000
  C   C964      1.0  0.80356  0.17389  0.57813  1.0000
  C   C965      1.0  0.80120  0.17352  0.60753  1.0000
  C   C966      1.0  0.81041  0.16076  0.62356  1.0000
  C   C967      1.0  0.82174  0.14854  0.61030  1.0000
  H   H1688     1.0  0.81681  0.16242  0.54229  1.0000
  H   H1689     1.0  0.79641  0.18359  0.56551  1.0000
  H   H1690     1.0  0.80866  0.16021  0.64616  1.0000
  H   H1691     1.0  0.82872  0.13870  0.62293  1.0000
  C   C968      1.0  0.72459  0.47366  0.55488  1.0000
  C   C969      1.0  0.77014  0.03746  0.57295  1.0000
  C   C970      1.0  0.67861  0.44389  0.71499  1.0000
  C   C971      1.0  0.73343  0.48311  0.65812  1.0000
  H   H1692     1.0  0.76891  0.02474  0.59027  1.0000
  C   C972      1.0  0.91710  0.24081  0.58970  1.0000
  H   H1693     1.0  0.70069  0.05576  0.89068  1.0000
  H   H1694     1.0  0.86191  0.22299  0.67539  1.0000
  H   H1695     1.0  0.67636  0.09068  0.81851  1.0000
  C   C973      1.0  0.86763  0.22028  0.51306  1.0000
  C   C974      1.0  0.71689  0.21258  0.75781  1.0000
  N   N53       1.0  0.71788  0.42817  0.55351  1.0000
  C   C975      1.0  0.72975  0.45359  0.56823  1.0000
  C   C976      1.0  0.72069  0.40983  0.57219  1.0000
  H   H1696     1.0  0.91460  0.48498  0.81224  1.0000
  H   H1697     1.0  0.78874  0.07918  0.56908  1.0000
  H   H1698     1.0  0.66522  0.26404  0.55376  1.0000
  C   C977      1.0  0.74773  0.41581  0.57776  1.0000
  C   C978      1.0  0.74838  0.39580  0.59627  1.0000
  H   H1699     1.0  0.86171  0.23312  0.50384  1.0000
  C   C979      1.0  0.73163  0.04965  0.93445  1.0000
  H   H1700     1.0  0.75028  0.46211  0.56915  1.0000
  H   H1701     1.0  0.72426  0.45152  0.59060  1.0000
  H   H1702     1.0  0.71276  0.40915  0.59322  1.0000
  H   H1703     1.0  0.70958  0.39017  0.56373  1.0000
  H   H1704     1.0  0.96675  0.27783  0.59605  1.0000
  H   H1705     1.0  0.68964  0.41634  0.72786  1.0000
  N   N54       1.0  0.69065  0.46530  0.73620  1.0000
  H   H1706     1.0  0.66490  0.12784  0.70423  1.0000
  H   H1707     1.0  0.68785  0.42964  0.53168  1.0000
  S   S225      1.0  0.66220  0.32772  0.67166  1.0000
  C   C980      1.0  0.67237  0.41729  0.72523  1.0000
  H   H1708     1.0  0.88301  0.22149  0.50034  1.0000
  H   H1709     1.0  0.75867  0.43426  0.58884  1.0000
  H   H1710     1.0  0.70424  0.04749  0.98391  1.0000
  H   H1711     1.0  0.73864  0.37701  0.58563  1.0000
  H   H1712     1.0  0.76793  0.40085  0.60045  1.0000
  C   C981      1.0  0.67763  0.09278  0.74726  1.0000
  H   H1713     1.0  0.72664  0.22659  0.80103  1.0000
  N   N55       1.0  0.89332  0.21570  0.58723  1.0000
  C   C982      1.0  0.88365  0.20979  0.55729  1.0000
  C   C983      1.0  0.89658  0.19440  0.59854  1.0000
  C   C984      1.0  0.87411  0.21755  0.60464  1.0000
  H   H1714     1.0  0.85250  0.04083  0.55101  1.0000
  H   H1715     1.0  0.75061  0.02845  0.92655  1.0000
  C   C985      1.0  0.77169  0.06890  0.60908  1.0000
  C   C986      1.0  0.87696  0.21687  0.63712  1.0000
  C   C987      1.0  0.90576  0.18120  0.57781  1.0000
  C   C988      1.0  0.91142  0.16267  0.59300  1.0000
  H   H1716     1.0  0.79105  0.04509  0.50485  1.0000
  H   H1717     1.0  0.70492  0.17502  0.77334  1.0000
  C   C989      1.0  0.73570  0.22468  0.78199  1.0000
  H   H1718     1.0  0.70334  0.39717  0.50280  1.0000
  H   H1719     1.0  0.86571  0.24447  0.64763  1.0000
  H   H1720     1.0  0.90917  0.20097  0.61734  1.0000
  H   H1721     1.0  0.87842  0.17873  0.60585  1.0000
  H   H1722     1.0  0.85520  0.20186  0.59907  1.0000
  H   H1723     1.0  0.87385  0.23521  0.59975  1.0000
  S   S226      1.0  0.67813  0.27887  0.62942  1.0000
  C   C990      1.0  0.66876  0.08347  0.77425  1.0000
  C   C991      1.0  0.69600  0.18589  0.76573  1.0000
  C   C992      1.0  0.76160  0.00554  0.53659  1.0000
  H   H1724     1.0  0.70458  0.46763  0.55562  1.0000
  C   C993      1.0  0.68958  0.16693  0.71859  1.0000
  H   H1725     1.0  0.68405  0.48093  0.67869  1.0000
  H   H1726     1.0  0.87157  0.19743  0.64388  1.0000
  H   H1727     1.0  0.89112  0.17012  0.56183  1.0000
  H   H1728     1.0  0.92248  0.19458  0.56632  1.0000
  H   H1729     1.0  0.89457  0.14791  0.60354  1.0000
  H   H1730     1.0  0.91736  0.15320  0.57750  1.0000
  H   H1731     1.0  0.92662  0.17273  0.60878  1.0000
  H   H1732     1.0  0.70765  0.07261  0.92291  1.0000
  C   C994      1.0  0.69252  0.05644  0.91115  1.0000
  H   H1733     1.0  0.70260  0.16062  0.72609  1.0000
  N   N56       1.0  0.78020  0.03188  0.54695  1.0000
  C   C995      1.0  0.92711  0.47197  0.77793  1.0000
  C   C996      1.0  0.68992  0.05185  0.97622  1.0000
  H   H1734     1.0  0.70666  0.01693  0.91078  1.0000
  H   H1735     1.0  0.70163  0.18493  0.70777  1.0000
  H   H1736     1.0  0.73956  0.39466  0.61676  1.0000
  H   H1737     1.0  0.89624  0.22971  0.64454  1.0000
  C   C997      1.0  0.67733  0.34340  0.51947  1.0000
  H   H1738     1.0  0.66090  0.47883  0.70227  1.0000
  C   C998      1.0  0.80432  0.03239  0.55364  1.0000
  C   C999      1.0  0.71430  0.46664  0.74662  1.0000
  H   H1739     1.0  0.67238  0.44483  0.77370  1.0000
  C   C1000     1.0  0.68372  0.08912  0.88952  1.0000
  H   H1740     1.0  0.73043  0.47706  0.53269  1.0000
  C   C1001     1.0  0.82884  0.05770  0.54966  1.0000
  C   C1002     1.0  0.85105  0.05629  0.56149  1.0000
  H   H1741     1.0  0.69837  0.10455  0.90270  1.0000
  H   H1742     1.0  0.66312  0.29413  0.50119  1.0000
  H   H1743     1.0  0.80427  0.02591  0.57549  1.0000
  H   H1744     1.0  0.80628  0.01871  0.53992  1.0000
  H   H1745     1.0  0.69100  0.44828  0.69675  1.0000
  H   H1746     1.0  0.86704  0.19050  0.55612  1.0000
  H   H1747     1.0  0.76831  0.05545  0.62636  1.0000
  H   H1748     1.0  0.67323  0.40012  0.58738  1.0000
  H   H1749     1.0  0.89189  0.24765  0.54370  1.0000
  H   H1750     1.0  0.76738  0.00192  0.51579  1.0000
  C   C1003     1.0  0.67205  0.14730  0.69623  1.0000
  H   H1751     1.0  0.82868  0.07391  0.55982  1.0000
  H   H1752     1.0  0.86842  0.07439  0.55773  1.0000
  H   H1753     1.0  0.84928  0.05304  0.58448  1.0000
  Fe  Fe115     1.0  0.68007  0.36381  0.64680  1.0000
  H   H1754     1.0  0.95528  0.28338  0.56320  1.0000
  C   C1004     1.0  0.69061  0.41803  0.54774  1.0000
  H   H1755     1.0  0.91386  0.25641  0.58329  1.0000
  N   N57       1.0  0.67684  0.17089  0.74319  1.0000
  C   C1005     1.0  0.72982  0.48780  0.76861  1.0000
  H   H1756     1.0  0.66243  0.41249  0.74538  1.0000
  H   H1757     1.0  0.72633  0.46888  0.72850  1.0000
  H   H1758     1.0  0.68715  0.18894  0.78427  1.0000
  H   H1759     1.0  0.98785  0.45955  0.93716  1.0000
  S   S227      1.0  0.71164  0.39949  0.66762  1.0000
  H   H1760     1.0  0.92339  0.24513  0.61198  1.0000
  H   H1761     1.0  0.70916  0.22514  0.75375  1.0000
  H   H1762     1.0  0.73239  0.06289  0.95082  1.0000
  H   H1763     1.0  0.80331  0.06804  0.59382  1.0000
  H   H1764     1.0  0.75617  0.47500  0.77775  1.0000
  H   H1765     1.0  0.75372  0.06660  0.60146  1.0000
  H   H1766     1.0  0.72711  0.21203  0.73922  1.0000
  H   H1767     1.0  0.70082  0.14524  0.67288  1.0000
  H   H1768     1.0  0.84051  0.21211  0.64598  1.0000
  H   H1769     1.0  0.71043  0.44875  0.75686  1.0000
  H   H1770     1.0  0.69317  0.16840  0.65985  1.0000
  C   C1006     1.0  0.67272  0.03167  0.95438  1.0000
  C   C1007     1.0  0.66221  0.18364  0.73503  1.0000
  H   H1771     1.0  0.73814  0.06034  0.91456  1.0000
  C   C1008     1.0  0.66398  0.01098  0.90834  1.0000
  N   N58       1.0  0.83341  0.32409  0.71888  1.0000
  C   C1009     1.0  0.84638  0.31036  0.70868  1.0000
  C   C1010     1.0  0.81734  0.31058  0.74370  1.0000
  C   C1011     1.0  0.81661  0.32338  0.69520  1.0000
  C   C1012     1.0  0.85156  0.35143  0.72602  1.0000
  C   C1013     1.0  0.87180  0.35662  0.74857  1.0000
  C   C1014     1.0  0.86210  0.32094  0.68188  1.0000
  C   C1015     1.0  0.79782  0.33214  0.70260  1.0000
  C   C1016     1.0  0.82713  0.29806  0.76460  1.0000
  C   C1017     1.0  0.81202  0.29006  0.79143  1.0000
  C   C1018     1.0  0.89128  0.38472  0.75024  1.0000
  C   C1019     1.0  0.87522  0.30630  0.67448  1.0000
  C   C1020     1.0  0.78369  0.33265  0.67632  1.0000
  H   H1772     1.0  0.83243  0.29017  0.70445  1.0000
  H   H1773     1.0  0.85883  0.30974  0.72509  1.0000
  H   H1774     1.0  0.81304  0.32355  0.75568  1.0000
  H   H1775     1.0  0.79905  0.29465  0.73632  1.0000
  H   H1776     1.0  0.80550  0.30376  0.68645  1.0000
  H   H1777     1.0  0.82774  0.33544  0.67756  1.0000
  H   H1778     1.0  0.86089  0.36196  0.70675  1.0000
  H   H1779     1.0  0.84161  0.36092  0.73402  1.0000
  H   H1780     1.0  0.88179  0.34628  0.74418  1.0000
  H   H1781     1.0  0.86328  0.35132  0.76957  1.0000
  H   H1782     1.0  0.85022  0.31923  0.66348  1.0000
  H   H1783     1.0  0.87659  0.34104  0.68492  1.0000
  H   H1784     1.0  0.80723  0.35139  0.71196  1.0000
  H   H1785     1.0  0.78388  0.31904  0.71766  1.0000
  H   H1786     1.0  0.82553  0.28082  0.75472  1.0000
  H   H1787     1.0  0.84678  0.31058  0.77069  1.0000
  H   H1788     1.0  0.81889  0.28031  0.80543  1.0000
  H   H1789     1.0  0.81395  0.30685  0.80282  1.0000
  H   H1790     1.0  0.79214  0.27684  0.78640  1.0000
  H   H1791     1.0  0.88252  0.39619  0.75536  1.0000
  H   H1792     1.0  0.90516  0.38790  0.76703  1.0000
  H   H1793     1.0  0.90117  0.39114  0.73005  1.0000
  H   H1794     1.0  0.86151  0.28594  0.67102  1.0000
  H   H1795     1.0  0.88590  0.31389  0.65495  1.0000
  H   H1796     1.0  0.88833  0.30819  0.69162  1.0000
  H   H1797     1.0  0.76947  0.33764  0.68224  1.0000
  H   H1798     1.0  0.79654  0.34691  0.66129  1.0000
  H   H1799     1.0  0.77409  0.31380  0.66580  1.0000
  C   C1021     1.0  0.68551  0.14926  0.66897  1.0000
  H   H1800     1.0  0.69899  0.07113  0.96741  1.0000
  H   H1801     1.0  0.66297  0.23000  0.72742  1.0000
  H   H1802     1.0  0.69179  0.08794  0.86928  1.0000
  C   C1022     1.0  0.91400  0.48569  0.78893  1.0000
  C   C1023     1.0  0.67253  0.06392  0.90484  1.0000
  C   C1024     1.0  0.87609  0.22798  0.54361  1.0000
  H   H1803     1.0  0.67041  0.01278  0.88627  1.0000
  H   H1804     1.0  0.91812  0.45249  0.78635  1.0000
  H   H1805     1.0  0.95134  0.48374  0.85733  1.0000
  C   C1025     1.0  0.96776  0.49058  0.84474  1.0000
  H   H1806     1.0  0.74304  0.00359  0.53306  1.0000
  C   C1026     1.0  0.75013  0.04123  0.94285  1.0000
  H   H1807     1.0  0.75040  0.24380  0.77572  1.0000
  S   S228      1.0  0.94114  0.15528  0.50321  1.0000
  C   C1027     1.0  0.67480  0.41552  0.57371  1.0000
  H   H1808     1.0  0.94693  0.48199  0.78486  1.0000
  H   H1809     1.0  0.68482  0.34151  0.53935  1.0000
  H   H1810     1.0  0.72669  0.39351  0.52152  1.0000
  H   H1811     1.0  0.66899  0.19241  0.69002  1.0000
  H   H1812     1.0  0.68358  0.47761  0.77582  1.0000
  H   H1813     1.0  0.74679  0.03235  0.50287  1.0000
  H   H1814     1.0  0.72117  0.48216  0.78957  1.0000
  H   H1815     1.0  0.68194  0.39873  0.53830  1.0000
  C   C1028     1.0  0.86024  0.22458  0.65232  1.0000
  H   H1816     1.0  0.66934  0.13454  0.75885  1.0000
  H   H1817     1.0  0.97677  0.48441  0.90469  1.0000
  C   C1029     1.0  0.70511  0.02658  0.92994  1.0000
  H   H1818     1.0  0.92608  0.47079  0.75463  1.0000
  C   C1030     1.0  0.99212  0.17795  0.51100  1.0000
  C   C1031     1.0  0.97655  0.47411  0.83773  1.0000
  H   H1819     1.0  0.74447  0.21316  0.78704  1.0000
  H   H1820     1.0  0.77826  0.09020  0.50244  1.0000
  C   C1032     1.0  0.69758  0.49027  0.72233  1.0000
  H   H1821     1.0  0.66433  0.06600  0.92450  1.0000
  C   C1033     1.0  0.72323  0.40677  0.50909  1.0000
  H   H1822     1.0  0.66123  0.44203  0.70612  1.0000
  H   H1823     1.0  0.75082  0.05386  0.53124  1.0000
  H   H1824     1.0  0.75116  0.44191  0.52880  1.0000
  H   H1825     1.0  0.67234  0.13517  0.65344  1.0000
  C   C1034     1.0  0.68087  0.48971  0.69747  1.0000
  H   H1826     1.0  0.94685  0.23218  0.58394  1.0000
  C   C1035     1.0  0.93971  0.24357  0.57358  1.0000
  H   H1827     1.0  0.93517  0.23773  0.55126  1.0000
  C   C1036     1.0  0.67444  0.46108  0.76117  1.0000
  C   C1037     1.0  0.96097  0.27099  0.57409  1.0000
  H   H1828     1.0  0.85166  0.20064  0.51179  1.0000
  S   S229      1.0  0.98889  0.36332  0.86536  1.0000
  H   H1829     1.0  0.66592  0.23069  0.68988  1.0000
  S   S230      1.0  0.88482  0.16963  0.49943  1.0000
  H   H1830     1.0  0.98751  0.16461  0.52788  1.0000
  H   H1831     1.0  0.76280  0.49056  0.68765  1.0000
  H   H1832     1.0  0.66897  0.09382  0.88491  1.0000
  H   H1833     1.0  0.97828  0.35829  0.95308  1.0000
  H   H1834     1.0  0.66053  0.15166  0.80077  1.0000
  H   H1835     1.0  0.66308  0.26541  0.50221  1.0000
  H   H1836     1.0  0.66143  0.05735  0.99564  1.0000
  H   H1837     1.0  0.97717  0.27229  0.56306  1.0000
  C   C1038     1.0  0.76012  0.05042  0.51349  1.0000
  C   C1039     1.0  0.75629  0.49250  0.77129  1.0000
  S   S231      1.0  0.99136  0.39043  0.80483  1.0000
  H   H1838     1.0  0.98594  0.33106  0.91266  1.0000
  C   C1040     1.0  0.65938  0.14517  0.75517  1.0000
  C   C1041     1.0  0.65904  0.21803  0.70831  1.0000
  H   H1839     1.0  0.70587  0.93409  0.31759  1.0000
  C   C1042     1.0  0.74700  0.60295  0.35321  1.0000
  Fe  Fe116     1.0  0.70529  0.86651  0.45561  1.0000
  H   H1840     1.0  0.74128  0.67058  0.42851  1.0000
  S   S232      1.0  0.74576  0.87944  0.44891  1.0000
  Fe  Fe117     1.0  0.85209  0.73035  0.44506  1.0000
  S   S233      1.0  0.84080  0.71925  0.39893  1.0000
  S   S234      1.0  0.87782  0.77137  0.45726  1.0000
  C   C1043     1.0  0.68954  0.54393  0.06188  1.0000
  Fe  Fe118     1.0  0.96616  0.61447  0.13760  1.0000
  H   H1841     1.0  0.94674  0.76312  0.43508  1.0000
  S   S235      1.0  0.92958  0.61537  0.13787  1.0000
  H   H1842     1.0  0.77762  0.84655  0.37842  1.0000
  C   C1044     1.0  0.78558  0.63508  0.43264  1.0000
  S   S236      1.0  0.96900  0.58897  0.10539  1.0000
  H   H1843     1.0  0.68945  0.93758  0.36407  1.0000
  Fe  Fe119     1.0  0.79413  0.59687  0.29297  1.0000
  S   S237      1.0  0.80479  0.61001  0.24863  1.0000
  S   S238      1.0  0.81475  0.61711  0.33377  1.0000
  Fe  Fe120     1.0  0.75762  0.54163  0.27324  1.0000
  S   S239      1.0  0.76642  0.55117  0.22733  1.0000
  H   H1844     1.0  0.70888  0.66017  0.07057  1.0000
  Fe  Fe121     1.0  0.80694  0.57476  0.24122  1.0000
  S   S240      1.0  0.84314  0.57529  0.22918  1.0000
  Fe  Fe122     1.0  0.76367  0.58596  0.23764  1.0000
  S   S241      1.0  0.74706  0.60424  0.20872  1.0000
  S   S242      1.0  0.79771  0.56246  0.28620  1.0000
  S   S243      1.0  0.75314  0.57541  0.28278  1.0000
  C   C1045     1.0  0.71624  0.59696  0.19917  1.0000
  C   C1046     1.0  0.69512  0.57448  0.20693  1.0000
  H   H1845     1.0  0.88925  0.51220  0.25716  1.0000
  H   H1846     1.0  0.93491  0.53896  0.25422  1.0000
  C   C1047     1.0  0.68905  0.60900  0.17371  1.0000
  C   C1048     1.0  0.71296  0.61414  0.18252  1.0000
  H   H1847     1.0  0.69721  0.56101  0.21965  1.0000
  C   C1049     1.0  0.85575  0.87391  0.44111  1.0000
  H   H1848     1.0  0.89608  0.89332  0.43793  1.0000
  H   H1849     1.0  0.72910  0.63162  0.17641  1.0000
  Fe  Fe123     1.0  0.84931  0.76453  0.49029  1.0000
  H   H1850     1.0  0.75064  0.57829  0.11967  1.0000
  H   H1851     1.0  0.67627  0.63706  0.06919  1.0000
  C   C1050     1.0  0.90596  0.60468  0.16379  1.0000
  C   C1051     1.0  0.88298  0.60273  0.15683  1.0000
  C   C1052     1.0  0.86369  0.59421  0.17655  1.0000
  C   C1053     1.0  0.86710  0.58750  0.20364  1.0000
  C   C1054     1.0  0.89021  0.58979  0.21071  1.0000
  C   C1055     1.0  0.90949  0.59832  0.19102  1.0000
  H   H1852     1.0  0.87994  0.60756  0.13591  1.0000
  H   H1853     1.0  0.84609  0.59254  0.17067  1.0000
  H   H1854     1.0  0.89324  0.58495  0.23163  1.0000
  H   H1855     1.0  0.92712  0.60008  0.19690  1.0000
  H   H1856     1.0  0.88030  0.86030  0.42835  1.0000
  H   H1857     1.0  0.85148  0.90943  0.49285  1.0000
  C   C1056     1.0  0.83410  0.69097  0.38091  1.0000
  C   C1057     1.0  0.84092  0.67409  0.39188  1.0000
  C   C1058     1.0  0.83497  0.65172  0.37698  1.0000
  C   C1059     1.0  0.82204  0.64587  0.35105  1.0000
  C   C1060     1.0  0.81549  0.66288  0.33989  1.0000
  C   C1061     1.0  0.82157  0.68533  0.35473  1.0000
  H   H1858     1.0  0.85086  0.67833  0.41178  1.0000
  H   H1859     1.0  0.84026  0.63876  0.38572  1.0000
  H   H1860     1.0  0.80569  0.65873  0.31990  1.0000
  H   H1861     1.0  0.81638  0.69836  0.34595  1.0000
  H   H1862     1.0  0.81927  0.87207  0.39914  1.0000
  Fe  Fe124     1.0  0.89515  0.75671  0.48853  1.0000
  C   C1062     1.0  0.70852  0.58459  0.11003  1.0000
  C   C1063     1.0  0.90530  0.49780  0.21068  1.0000
  H   H1863     1.0  0.89130  0.55733  0.05905  1.0000
  H   H1864     1.0  0.70005  0.56045  0.14692  1.0000
  H   H1865     1.0  0.68464  0.82535  0.39570  1.0000
  H   H1866     1.0  0.75528  0.67722  0.39428  1.0000
  H   H1867     1.0  0.73495  0.59338  0.39554  1.0000
  C   C1064     1.0  0.79833  0.78922  0.47021  1.0000
  C   C1065     1.0  0.78006  0.79566  0.46295  1.0000
  H   H1868     1.0  0.80041  0.77571  0.45754  1.0000
  H   H1869     1.0  0.76828  0.78695  0.44464  1.0000
  N   N59       1.0  0.83118  0.89662  0.45326  1.0000
  H   H1870     1.0  0.77558  0.64767  0.38008  1.0000
  H   H1871     1.0  0.70294  0.61899  0.05668  1.0000
  C   C1066     1.0  0.93828  0.65611  0.06657  1.0000
  H   H1872     1.0  0.85500  0.90392  0.41751  1.0000
  H   H1873     1.0  0.91053  0.64984  0.11474  1.0000
  H   H1874     1.0  0.66354  0.82729  0.24189  1.0000
  C   C1067     1.0  0.97055  0.56868  0.24147  1.0000
  H   H1875     1.0  0.92369  0.57086  0.06828  1.0000
  S   S244      1.0  0.67779  0.86513  0.42176  1.0000
  N   N60       1.0  0.68428  0.57524  0.09387  1.0000
  C   C1068     1.0  0.87937  0.87795  0.42709  1.0000
  H   H1876     1.0  0.69249  0.64750  0.10277  1.0000
  C   C1069     1.0  0.90425  0.54431  0.15611  1.0000
  C   C1070     1.0  0.85013  0.94502  0.46039  1.0000
  H   H1877     1.0  0.70233  0.55143  0.01864  1.0000
  H   H1878     1.0  0.89745  0.63032  0.06672  1.0000
  H   H1879     1.0  0.74179  0.58322  0.34763  1.0000
  H   H1880     1.0  0.72452  0.59384  0.09559  1.0000
  H   H1881     1.0  0.80663  0.85619  0.44986  1.0000
  H   H1882     1.0  0.81156  0.91765  0.45123  1.0000
  C   C1071     1.0  0.80771  0.87392  0.44244  1.0000
  C   C1072     1.0  0.93340  0.54503  0.20838  1.0000
  H   H1883     1.0  0.88608  0.50404  0.16397  1.0000
  H   H1884     1.0  0.86905  0.94833  0.45670  1.0000
  H   H1885     1.0  0.74561  0.59460  0.14829  1.0000
  H   H1886     1.0  0.72755  0.62944  0.43193  1.0000
  H   H1887     1.0  0.67101  0.68892  0.07595  1.0000
  C   C1073     1.0  0.97117  0.81259  0.47647  1.0000
  H   H1888     1.0  0.91980  0.68045  0.09991  1.0000
  H   H1889     1.0  0.97748  0.65287  0.01886  1.0000
  H   H1890     1.0  0.94652  0.54828  0.19112  1.0000
  H   H1891     1.0  0.93234  0.56267  0.20947  1.0000
  H   H1892     1.0  0.66649  0.79968  0.35208  1.0000
  C   C1074     1.0  0.66159  0.81372  0.35790  1.0000
  H   H1893     1.0  0.69135  0.88822  0.28029  1.0000
  H   H1894     1.0  0.79119  0.87366  0.45138  1.0000
  H   H1895     1.0  0.92128  0.56217  0.16221  1.0000
  H   H1896     1.0  0.68699  0.62254  0.16112  1.0000
  C   C1075     1.0  0.77641  0.66998  0.42681  1.0000
  H   H1897     1.0  0.73603  0.60644  0.43880  1.0000
  C   C1076     1.0  0.92981  0.64438  0.01580  1.0000
  C   C1077     1.0  0.74286  0.62703  0.44074  1.0000
  C   C1078     1.0  0.67925  0.59696  0.09174  1.0000
  H   H1898     1.0  0.80929  0.62166  0.47461  1.0000
  H   H1899     1.0  0.95890  0.67564  0.25516  1.0000
  H   H1900     1.0  0.87097  0.91354  0.45012  1.0000
  H   H1901     1.0  0.86491  0.52855  0.28031  1.0000
  C   C1079     1.0  0.83323  0.89419  0.48456  1.0000
  H   H1902     1.0  0.83035  0.63804  0.44618  1.0000
  C   C1080     1.0  0.69583  0.92382  0.36039  1.0000
  H   H1903     1.0  0.81747  0.67085  0.44764  1.0000
  C   C1081     1.0  0.77689  0.81319  0.47907  1.0000
  H   H1904     1.0  0.86160  0.54147  0.24772  1.0000
  C   C1082     1.0  0.75961  0.63478  0.39334  1.0000
  H   H1905     1.0  0.89969  0.59790  0.03845  1.0000
  H   H1906     1.0  0.85633  0.86830  0.46311  1.0000
  C   C1083     1.0  0.75209  0.60724  0.38483  1.0000
  H   H1907     1.0  0.88769  0.65572  0.09840  1.0000
  H   H1908     1.0  0.70225  0.58278  0.05367  1.0000
  C   C1084     1.0  0.95810  0.75927  0.42023  1.0000
  H   H1909     1.0  0.69090  0.51938  0.02980  1.0000
  C   C1085     1.0  0.94672  0.54362  0.23558  1.0000
  C   C1086     1.0  0.74520  0.63278  0.47267  1.0000
  H   H1910     1.0  0.70612  0.54734  0.11632  1.0000
  H   H1911     1.0  0.98697  0.79805  0.42063  1.0000
  H   H1912     1.0  0.78229  0.67667  0.44872  1.0000
  C   C1087     1.0  0.71169  0.56515  0.12791  1.0000
  C   C1088     1.0  0.81395  0.80041  0.49369  1.0000
  H   H1913     1.0  0.76386  0.61588  0.34132  1.0000
  Fe  Fe125     1.0  0.74022  0.84888  0.47969  1.0000
  C   C1089     1.0  0.90348  0.54215  0.12412  1.0000
  H   H1914     1.0  0.67165  0.69525  0.03863  1.0000
  H   H1915     1.0  0.93408  0.66399  0.01102  1.0000
  C   C1090     1.0  0.69355  0.91664  0.32925  1.0000
  C   C1091     1.0  0.78212  0.98147  0.46634  1.0000
  C   C1092     1.0  0.79680  0.97599  0.48420  1.0000
  H   H1916     1.0  0.70040  0.94933  0.22544  1.0000
  H   H1917     1.0  0.66929  0.53008  0.02202  1.0000
  H   H1918     1.0  0.91408  0.56744  0.03180  1.0000
  H   H1919     1.0  0.90383  0.55902  0.11502  1.0000
  H   H1920     1.0  0.90725  0.66089  0.05225  1.0000
  H   H1921     1.0  0.90895  0.49796  0.23354  1.0000
  H   H1922     1.0  0.94725  0.61207  0.03160  1.0000
  C   C1093     1.0  0.83006  0.92008  0.44613  1.0000
  C   C1094     1.0  0.96620  0.79189  0.49329  1.0000
  H   H1923     1.0  0.79711  0.63647  0.41437  1.0000
  H   H1924     1.0  0.83005  0.96504  0.45150  1.0000
  H   H1925     1.0  0.95153  0.75958  0.39851  1.0000
  N   N61       1.0  0.88880  0.64715  0.29153  1.0000
  C   C1095     1.0  0.87490  0.63921  0.26377  1.0000
  C   C1096     1.0  0.87862  0.62505  0.31152  1.0000
  C   C1097     1.0  0.88434  0.66724  0.30410  1.0000
  C   C1098     1.0  0.91643  0.65835  0.28803  1.0000
  C   C1099     1.0  0.92491  0.64304  0.26991  1.0000
  C   C1100     1.0  0.88157  0.66064  0.24229  1.0000
  C   C1101     1.0  0.89404  0.67567  0.33471  1.0000
  C   C1102     1.0  0.86871  0.59828  0.29864  1.0000
  C   C1103     1.0  0.86225  0.57851  0.32144  1.0000
  C   C1104     1.0  0.95304  0.65760  0.26626  1.0000
  C   C1105     1.0  0.87208  0.65004  0.21277  1.0000
  C   C1106     1.0  0.89152  0.69833  0.34357  1.0000
  H   H1926     1.0  0.85463  0.63015  0.26745  1.0000
  H   H1927     1.0  0.87719  0.62431  0.25332  1.0000
  H   H1928     1.0  0.89254  0.62817  0.32827  1.0000
  H   H1929     1.0  0.86238  0.62352  0.32283  1.0000
  H   H1930     1.0  0.86403  0.66057  0.30399  1.0000
  H   H1931     1.0  0.89301  0.68461  0.29113  1.0000
  H   H1932     1.0  0.92478  0.67764  0.27907  1.0000
  H   H1933     1.0  0.92582  0.66117  0.30883  1.0000
  H   H1934     1.0  0.91649  0.63908  0.24851  1.0000
  H   H1935     1.0  0.92029  0.62508  0.28029  1.0000
  H   H1936     1.0  0.87285  0.67192  0.24845  1.0000
  H   H1937     1.0  0.90188  0.67349  0.24107  1.0000
  H   H1938     1.0  0.91388  0.68133  0.33706  1.0000
  H   H1939     1.0  0.88322  0.66013  0.34958  1.0000
  H   H1940     1.0  0.85140  0.59275  0.28652  1.0000
  H   H1941     1.0  0.88195  0.59724  0.28429  1.0000
  H   H1942     1.0  0.84814  0.57829  0.33567  1.0000
  H   H1943     1.0  0.85431  0.55950  0.31150  1.0000
  H   H1944     1.0  0.87908  0.58250  0.33383  1.0000
  C   C1107     1.0  0.97154  0.66152  0.03540  1.0000
  H   H1945     1.0  0.96281  0.66167  0.28696  1.0000
  H   H1946     1.0  0.95863  0.64610  0.25345  1.0000
  H   H1947     1.0  0.85203  0.63561  0.21289  1.0000
  H   H1948     1.0  0.87474  0.66552  0.19853  1.0000
  H   H1949     1.0  0.88776  0.54560  0.16208  1.0000
  H   H1950     1.0  0.89646  0.70268  0.36620  1.0000
  H   H1951     1.0  0.90406  0.71525  0.33121  1.0000
  H   H1952     1.0  0.87215  0.69419  0.34031  1.0000
  H   H1953     1.0  0.84733  0.94455  0.48340  1.0000
  H   H1954     1.0  0.68475  0.90677  0.37331  1.0000
  H   H1955     1.0  0.69481  0.92702  0.27265  1.0000
  H   H1956     1.0  0.83281  0.87623  0.48953  1.0000
  H   H1957     1.0  0.83176  0.92326  0.42307  1.0000
  S   S245      1.0  0.82289  0.72439  0.47646  1.0000
  H   H1958     1.0  0.69182  0.85681  0.24803  1.0000
  C   C1108     1.0  0.70034  0.62180  0.07914  1.0000
  H   H1959     1.0  0.84758  0.50767  0.25148  1.0000
  H   H1960     1.0  0.96650  0.58433  0.24388  1.0000
  H   H1961     1.0  0.66257  0.59176  0.07833  1.0000
  H   H1962     1.0  0.76696  0.60288  0.38999  1.0000
  H   H1963     1.0  0.97955  0.56732  0.26116  1.0000
  C   C1109     1.0  0.69404  0.64289  0.08057  1.0000
  C   C1110     1.0  0.80368  0.87204  0.41009  1.0000
  C   C1111     1.0  0.68790  0.53579  0.03117  1.0000
  H   H1964     1.0  0.77662  0.61496  0.43918  1.0000
  C   C1112     1.0  0.67192  0.82825  0.38269  1.0000
  H   H1965     1.0  0.77400  0.71245  0.44601  1.0000
  C   C1113     1.0  0.67123  0.56930  0.19806  1.0000
  C   C1114     1.0  0.85377  0.89827  0.43989  1.0000
  C   C1115     1.0  0.91300  0.59804  0.05418  1.0000
  H   H1966     1.0  0.71137  0.59960  0.12545  1.0000
  H   H1967     1.0  0.97441  0.59620  0.03258  1.0000
  H   H1968     1.0  0.98379  0.57313  0.22407  1.0000
  C   C1116     1.0  0.88772  0.52578  0.21440  1.0000
  C   C1117     1.0  0.91043  0.57184  0.05327  1.0000
  H   H1969     1.0  0.90766  0.60084  0.07549  1.0000
  H   H1970     1.0  0.74385  0.63735  0.38661  1.0000
  H   H1971     1.0  0.67517  0.52751  0.07342  1.0000
  H   H1972     1.0  0.79598  0.65377  0.47474  1.0000
  H   H1973     1.0  0.79361  0.68009  0.41442  1.0000
  H   H1974     1.0  0.70819  0.54873  0.07002  1.0000
  C   C1118     1.0  0.78000  0.84766  0.40162  1.0000
  H   H1975     1.0  0.78941  0.71890  0.41256  1.0000
  Fe  Fe126     1.0  0.98745  0.57875  0.13974  1.0000
  H   H1976     1.0  0.71553  0.93259  0.36747  1.0000
  H   H1977     1.0  0.73992  0.56297  0.15304  1.0000
  H   H1978     1.0  0.71827  0.62865  0.09052  1.0000
  C   C1119     1.0  0.90714  0.65977  0.09724  1.0000
  H   H1979     1.0  0.98553  0.67534  0.07882  1.0000
  N   N62       1.0  0.76612  0.64183  0.42402  1.0000
  H   H1980     1.0  0.80174  0.88806  0.40230  1.0000
  H   H1981     1.0  0.83515  0.65306  0.48005  1.0000
  H   H1982     1.0  0.78097  0.83089  0.40880  1.0000
  C   C1120     1.0  0.66796  0.58645  0.18138  1.0000
  H   H1983     1.0  0.67662  0.83554  0.27687  1.0000
  C   C1121     1.0  0.77119  0.70844  0.42307  1.0000
  C   C1122     1.0  0.98543  0.77938  0.42413  1.0000
  N   N63       1.0  0.90806  0.52268  0.20144  1.0000
  H   H1984     1.0  0.73155  0.60606  0.34671  1.0000
  C   C1123     1.0  0.80482  0.65162  0.45576  1.0000
  S   S246      1.0  0.97090  0.53665  0.14789  1.0000
  S   S247      1.0  0.98248  0.60252  0.17240  1.0000
  C   C1124     1.0  0.98514  0.60702  0.01489  1.0000
  C   C1125     1.0  0.73862  0.57597  0.13775  1.0000
  C   C1126     1.0  0.68614  0.56722  0.06446  1.0000
  C   C1127     1.0  0.90400  0.52121  0.16992  1.0000
  C   C1128     1.0  0.75909  0.68005  0.41723  1.0000
  H   H1985     1.0  0.67906  0.90240  0.23003  1.0000
  H   H1986     1.0  0.88856  0.54338  0.20709  1.0000
  S   S248      1.0  0.87107  0.71622  0.47392  1.0000
  S   S249      1.0  0.72906  0.50532  0.29529  1.0000
  H   H1987     1.0  0.95210  0.52895  0.23343  1.0000
  H   H1988     1.0  0.66967  0.56378  0.05153  1.0000
  C   C1129     1.0  0.94003  0.61884  0.04858  1.0000
  H   H1989     1.0  0.76473  0.96623  0.45810  1.0000
  S   S250      1.0  0.75394  0.82114  0.46811  1.0000
  C   C1130     1.0  0.82083  0.64028  0.46459  1.0000
  H   H1990     1.0  0.67496  0.60158  0.11288  1.0000
  H   H1991     1.0  0.75903  0.71551  0.41490  1.0000
  H   H1992     1.0  0.94111  0.50542  0.19320  1.0000
  C   C1131     1.0  0.91121  0.65066  0.06893  1.0000
  H   H1993     1.0  0.83986  0.85781  0.43010  1.0000
  H   H1994     1.0  0.76352  0.84717  0.41097  1.0000
  H   H1995     1.0  0.88266  0.64135  0.20442  1.0000
  H   H1996     1.0  0.94987  0.67714  0.06643  1.0000
  H   H1997     1.0  0.95087  0.61960  0.06769  1.0000
  H   H1998     1.0  0.90955  0.63366  0.01929  1.0000
  C   C1132     1.0  0.66303  0.55429  0.10955  1.0000
  H   H1999     1.0  0.88623  0.52500  0.11680  1.0000
  H   H2000     1.0  0.85363  0.97039  0.42635  1.0000
  H   H2001     1.0  0.91872  0.51921  0.15923  1.0000
  Fe  Fe127     1.0  0.75361  0.90502  0.48667  1.0000
  C   C1133     1.0  0.98611  0.51888  0.14396  1.0000
  H   H2002     1.0  0.94325  0.65012  0.08659  1.0000
  H   H2003     1.0  0.66166  0.56133  0.13064  1.0000
  S   S251      1.0  0.69900  0.83445  0.48417  1.0000
  S   S252      1.0  0.71365  0.89420  0.49166  1.0000
  C   C1134     1.0  0.67359  0.84321  0.25702  1.0000
  H   H2004     1.0  0.86922  0.51003  0.20728  1.0000
  H   H2005     1.0  0.87939  0.88273  0.40460  1.0000
  H   H2006     1.0  0.70724  0.62495  0.47786  1.0000
  N   N64       1.0  0.94430  0.64474  0.04170  1.0000
  C   C1135     1.0  0.84892  0.96772  0.44896  1.0000
  H   H2007     1.0  0.90353  0.54616  0.25399  1.0000
  H   H2008     1.0  0.66626  0.53838  0.11388  1.0000
  H   H2009     1.0  0.97494  0.67995  0.02692  1.0000
  H   H2010     1.0  0.95591  0.81409  0.46750  1.0000
  C   C1136     1.0  0.86403  0.52623  0.25710  1.0000
  H   H2011     1.0  0.75295  0.65318  0.47720  1.0000
  H   H2012     1.0  0.91983  0.54130  0.11651  1.0000
  H   H2013     1.0  0.95526  0.74019  0.42473  1.0000
  C   C1137     1.0  0.88784  0.52763  0.24684  1.0000
  H   H2014     1.0  0.70064  0.90333  0.32703  1.0000
  H   H2015     1.0  0.86232  0.98512  0.46068  1.0000
  H   H2016     1.0  0.98979  0.64990  0.06687  1.0000
  C   C1138     1.0  0.66572  0.84642  0.39059  1.0000
  C   C1139     1.0  0.67438  0.91787  0.26949  1.0000
  H   H2017     1.0  0.75712  0.62627  0.48282  1.0000
  C   C1140     1.0  0.68017  0.93719  0.22114  1.0000
  H   H2018     1.0  0.66957  0.86722  0.30468  1.0000
  S   S253      1.0  0.78827  0.94441  0.49379  1.0000
  H   H2019     1.0  0.67025  0.66046  0.19850  1.0000
  C   C1141     1.0  0.67113  0.87742  0.28474  1.0000
  H   H2020     1.0  0.67727  0.93285  0.19826  1.0000
  H   H2021     1.0  0.80973  0.91013  0.49752  1.0000
  C   C1142     1.0  0.98999  0.66736  0.06036  1.0000
  H   H2022     1.0  0.66985  0.93273  0.27532  1.0000
  C   C1143     1.0  0.66623  0.90480  0.31850  1.0000
  C   C1144     1.0  0.66964  0.91258  0.23753  1.0000
  H   H2023     1.0  0.67053  0.94768  0.22681  1.0000
  N   N65       1.0  0.66119  0.89534  0.28839  1.0000
  H   H2024     1.0  0.66102  0.91953  0.32183  1.0000
  H   H2025     1.0  0.71139  0.59795  0.48334  1.0000
  H   H2026     1.0  0.79465  0.87628  0.49788  1.0000
  H   H2027     1.0  0.99071  0.77868  0.44625  1.0000
  C   C1145     1.0  0.71989  0.61868  0.48657  1.0000
  C   C1146     1.0  0.66159  0.68130  0.05531  1.0000
  H   H2028     1.0  0.66217  0.66386  0.05040  1.0000
  H   H2029     1.0  0.70694  0.52809  0.68445  1.0000
  S   S254      1.0  0.74201  0.51521  0.65296  1.0000
  N   N66       1.0  0.73369  0.64948  0.70109  1.0000
  H   H2030     1.0  0.92387  0.53086  0.82813  1.0000
  Fe  Fe128     1.0  0.70984  0.86285  0.51969  1.0000
  S   S255      1.0  0.69593  0.85882  0.56494  1.0000
  S   S256      1.0  0.75048  0.87515  0.51690  1.0000
  Fe  Fe129     1.0  0.98498  0.57834  0.84327  1.0000
  C   C1147     1.0  0.81085  0.81804  0.50972  1.0000
  H   H2031     1.0  0.96833  0.51569  0.90495  1.0000
  H   H2032     1.0  0.93079  0.51326  0.75636  1.0000
  S   S257      1.0  0.93534  0.76713  0.50062  1.0000
  H   H2033     1.0  0.83535  0.91287  0.53926  1.0000
  H   H2034     1.0  0.95457  0.58909  0.98502  1.0000
  S   S258      1.0  0.82530  0.67558  0.53039  1.0000
  S   S259      1.0  0.86857  0.75268  0.52269  1.0000
  H   H2035     1.0  0.69316  0.91661  0.59644  1.0000
  S   S260      1.0  0.95616  0.58734  0.85801  1.0000
  H   H2036     1.0  0.74856  0.98433  0.57600  1.0000
  H   H2037     1.0  0.83110  0.99229  0.50816  1.0000
  Fe  Fe130     1.0  0.96876  0.61640  0.82441  1.0000
  S   S261      1.0  0.94393  0.62178  0.79191  1.0000
  H   H2038     1.0  0.94429  0.71455  0.56269  1.0000
  H   H2039     1.0  0.88158  0.72838  0.61214  1.0000
  Fe  Fe131     1.0  0.79399  0.60773  0.68300  1.0000
  S   S262      1.0  0.79299  0.60907  0.73062  1.0000
  S   S263      1.0  0.80938  0.64580  0.66045  1.0000
  Fe  Fe132     1.0  0.76548  0.54943  0.68177  1.0000
  S   S264      1.0  0.76324  0.54755  0.72859  1.0000
  H   H2040     1.0  0.85378  0.50873  0.72562  1.0000
  Fe  Fe133     1.0  0.75304  0.57800  0.72654  1.0000
  S   S265      1.0  0.71589  0.56898  0.74610  1.0000
  Fe  Fe134     1.0  0.80352  0.57865  0.72925  1.0000
  S   S266      1.0  0.82745  0.57383  0.76342  1.0000
  S   S267      1.0  0.75362  0.57863  0.67938  1.0000
  S   S268      1.0  0.80649  0.57874  0.68184  1.0000
  H   H2041     1.0  0.86761  0.75913  0.60267  1.0000
  C   C1148     1.0  0.70499  0.58690  0.76457  1.0000
  C   C1149     1.0  0.72107  0.61056  0.77674  1.0000
  C   C1150     1.0  0.71147  0.62406  0.79097  1.0000
  C   C1151     1.0  0.68568  0.61401  0.79355  1.0000
  H   H2042     1.0  0.93524  0.52717  0.89872  1.0000
  C   C1152     1.0  0.67923  0.57688  0.76712  1.0000
  H   H2043     1.0  0.74090  0.61825  0.77559  1.0000
  H   H2044     1.0  0.72410  0.64228  0.80038  1.0000
  H   H2045     1.0  0.87670  0.53373  0.81541  1.0000
  H   H2046     1.0  0.68291  0.71810  0.71231  1.0000
  H   H2047     1.0  0.94460  0.74084  0.54653  1.0000
  H   H2048     1.0  0.89944  0.77423  0.61491  1.0000
  C   C1153     1.0  0.91141  0.60860  0.78472  1.0000
  C   C1154     1.0  0.90361  0.61223  0.75807  1.0000
  C   C1155     1.0  0.87816  0.60214  0.75125  1.0000
  C   C1156     1.0  0.86000  0.58808  0.77099  1.0000
  C   C1157     1.0  0.86781  0.58451  0.79766  1.0000
  C   C1158     1.0  0.89326  0.59497  0.80462  1.0000
  H   H2049     1.0  0.91740  0.62299  0.74255  1.0000
  H   H2050     1.0  0.87259  0.60511  0.73066  1.0000
  H   H2051     1.0  0.85403  0.57391  0.81325  1.0000
  H   H2052     1.0  0.89883  0.59292  0.82558  1.0000
  H   H2053     1.0  0.90736  0.54178  0.86943  1.0000
  C   C1159     1.0  0.66630  0.83942  0.57999  1.0000
  C   C1160     1.0  0.71201  0.64884  0.71587  1.0000
  C   C1161     1.0  0.82054  0.66778  0.56669  1.0000
  C   C1162     1.0  0.81352  0.64297  0.57477  1.0000
  C   C1163     1.0  0.80965  0.63578  0.60324  1.0000
  C   C1164     1.0  0.81281  0.65338  0.62407  1.0000
  C   C1165     1.0  0.81960  0.67814  0.61597  1.0000
  C   C1166     1.0  0.82327  0.68527  0.58747  1.0000
  H   H2054     1.0  0.81115  0.62921  0.55891  1.0000
  H   H2055     1.0  0.80448  0.61670  0.60909  1.0000
  H   H2056     1.0  0.82203  0.69190  0.63187  1.0000
  H   H2057     1.0  0.82805  0.70422  0.58158  1.0000
  H   H2058     1.0  0.87445  0.67595  0.50486  1.0000
  C   C1167     1.0  0.77959  0.66195  0.71172  1.0000
  H   H2059     1.0  0.68400  0.74755  0.71555  1.0000
  H   H2060     1.0  0.84916  0.53433  0.73658  1.0000
  H   H2061     1.0  0.74837  0.95567  0.52257  1.0000
  S   S269      1.0  0.96837  0.53559  0.84580  1.0000
  Fe  Fe135     1.0  0.84383  0.71310  0.50661  1.0000
  H   H2062     1.0  0.67108  0.74162  0.66154  1.0000
  H   H2063     1.0  0.88122  0.54727  0.77320  1.0000
  H   H2064     1.0  0.96416  0.76786  0.58695  1.0000
  H   H2065     1.0  0.91775  0.75653  0.56394  1.0000
  H   H2066     1.0  0.91760  0.69418  0.52419  1.0000
  H   H2067     1.0  0.96207  0.59022  0.71836  1.0000
  H   H2068     1.0  0.96748  0.60087  0.75437  1.0000
  C   C1168     1.0  0.79238  0.82422  0.50265  1.0000
  H   H2069     1.0  0.71286  0.58617  0.65105  1.0000
  H   H2070     1.0  0.96430  0.51434  0.94167  1.0000
  H   H2071     1.0  0.71951  0.74331  0.67977  1.0000
  C   C1169     1.0  0.68091  0.73338  0.67289  1.0000
  H   H2072     1.0  0.73095  0.50593  0.76327  1.0000
  C   C1170     1.0  0.69228  0.67242  0.73762  1.0000
  C   C1171     1.0  0.76031  0.67890  0.62752  1.0000
  H   H2073     1.0  0.68302  0.65724  0.75339  1.0000
  H   H2074     1.0  0.87812  0.66742  0.59022  1.0000
  Fe  Fe136     1.0  0.98618  0.61655  0.88629  1.0000
  H   H2075     1.0  0.67839  0.88854  0.68521  1.0000
  C   C1172     1.0  0.66962  0.59030  0.78148  1.0000
  H   H2076     1.0  0.92250  0.56698  0.78034  1.0000
  H   H2077     1.0  0.76684  0.50750  0.78734  1.0000
  H   H2078     1.0  0.95755  0.74176  0.60970  1.0000
  H   H2079     1.0  0.67072  0.97951  0.91885  1.0000
  H   H2080     1.0  0.73666  0.64050  0.63978  1.0000
  H   H2081     1.0  0.98295  0.77455  0.51761  1.0000
  H   H2082     1.0  0.90038  0.72013  0.53411  1.0000
  C   C1173     1.0  0.72672  0.62248  0.69480  1.0000
  H   H2083     1.0  0.78996  0.83729  0.51566  1.0000
  H   H2084     1.0  0.72605  0.61264  0.71463  1.0000
  H   H2085     1.0  0.89310  0.66462  0.63870  1.0000
  C   C1174     1.0  0.79903  0.67123  0.73547  1.0000
  H   H2086     1.0  0.97611  0.56124  0.94131  1.0000
  H   H2087     1.0  0.92213  0.62546  0.94505  1.0000
  C   C1175     1.0  0.75079  0.65847  0.64995  1.0000
  C   C1176     1.0  0.88661  0.73871  0.59203  1.0000
  C   C1177     1.0  0.98646  0.79046  0.50472  1.0000
  H   H2088     1.0  0.87220  0.72779  0.57584  1.0000
  N   N67       1.0  0.91481  0.72108  0.57602  1.0000
  C   C1178     1.0  0.88661  0.76341  0.59723  1.0000
  H   H2089     1.0  0.82265  0.82677  0.52800  1.0000
  H   H2090     1.0  0.66711  0.92826  0.67624  1.0000
  C   C1179     1.0  0.98793  0.61633  0.96447  1.0000
  H   H2091     1.0  0.71320  0.75341  0.64667  1.0000
  C   C1180     1.0  0.66420  0.83932  0.60942  1.0000
  H   H2092     1.0  0.92536  0.75536  0.59992  1.0000
  C   C1181     1.0  0.67398  0.90797  0.58763  1.0000
  C   C1182     1.0  0.94118  0.73067  0.56685  1.0000
  C   C1183     1.0  0.67404  0.72891  0.70442  1.0000
  H   H2093     1.0  0.67597  0.71513  0.66243  1.0000
  H   H2094     1.0  0.73702  0.94234  0.55648  1.0000
  H   H2095     1.0  0.90576  0.67544  0.55512  1.0000
  H   H2096     1.0  0.90735  0.56063  0.82279  1.0000
  C   C1184     1.0  0.92711  0.51353  0.77913  1.0000
  C   C1185     1.0  0.87886  0.66640  0.52186  1.0000
  C   C1186     1.0  0.97578  0.52710  0.92462  1.0000
  C   C1187     1.0  0.68699  0.51636  0.68949  1.0000
  C   C1188     1.0  0.91239  0.74392  0.58259  1.0000
  H   H2097     1.0  0.75022  0.65086  0.74167  1.0000
  H   H2098     1.0  0.89837  0.62214  0.96875  1.0000
  H   H2099     1.0  0.91565  0.71681  0.62113  1.0000
  H   H2100     1.0  0.88254  0.65207  0.51225  1.0000
  S   S270      1.0  0.83787  0.79361  0.50377  1.0000
  C   C1189     1.0  0.90164  0.68567  0.53867  1.0000
  C   C1190     1.0  0.74000  0.95786  0.54211  1.0000
  C   C1191     1.0  0.75558  0.66105  0.72136  1.0000
  H   H2101     1.0  0.86908  0.68887  0.60322  1.0000
  C   C1192     1.0  0.91845  0.63356  0.96409  1.0000
  H   H2102     1.0  0.77564  0.69699  0.63621  1.0000
  S   S271      1.0  0.67461  0.63207  0.81142  1.0000
  C   C1193     1.0  0.73924  0.66528  0.67490  1.0000
  C   C1194     1.0  0.75728  0.98344  0.55619  1.0000
  H   H2103     1.0  0.94676  0.56330  0.79388  1.0000
  H   H2104     1.0  0.93862  0.55476  0.91658  1.0000
  C   C1195     1.0  0.71657  0.67429  0.72840  1.0000
  C   C1196     1.0  0.69870  0.58188  0.66730  1.0000
  C   C1197     1.0  0.98014  0.51579  0.83575  1.0000
  C   C1198     1.0  0.88114  0.53501  0.75609  1.0000
  H   H2105     1.0  0.70085  0.57065  0.68425  1.0000
  C   C1199     1.0  0.97406  0.60283  0.98785  1.0000
  H   H2106     1.0  0.70574  0.63499  0.73337  1.0000
  C   C1200     1.0  0.90991  0.70481  0.60176  1.0000
  H   H2107     1.0  0.92328  0.65329  0.95948  1.0000
  C   C1201     1.0  0.85478  0.52062  0.74382  1.0000
  H   H2108     1.0  0.92992  0.54752  0.73230  1.0000
  C   C1202     1.0  0.87966  0.67125  0.63498  1.0000
  H   H2109     1.0  0.74511  0.68182  0.61950  1.0000
  H   H2110     1.0  0.74112  0.62141  0.68244  1.0000
  H   H2111     1.0  0.68603  0.60072  0.69457  1.0000
  C   C1203     1.0  0.94217  0.53872  0.91830  1.0000
  C   C1204     1.0  0.88290  0.68276  0.60582  1.0000
  C   C1205     1.0  0.81822  0.89490  0.53363  1.0000
  H   H2112     1.0  0.67584  0.51554  0.67071  1.0000
  H   H2113     1.0  0.86258  0.65657  0.53572  1.0000
  C   C1206     1.0  0.96193  0.74867  0.58785  1.0000
  H   H2114     1.0  0.72219  0.62273  0.50952  1.0000
  H   H2115     1.0  0.87468  0.50048  0.77668  1.0000
  H   H2116     1.0  0.67765  0.87313  0.73325  1.0000
  H   H2117     1.0  0.81608  0.67178  0.72785  1.0000
  H   H2118     1.0  0.69622  0.69057  0.74746  1.0000
  H   H2119     1.0  0.88210  0.54787  0.86488  1.0000
  C   C1207     1.0  0.89783  0.70686  0.55146  1.0000
  H   H2120     1.0  0.72536  0.68969  0.71288  1.0000
  C   C1208     1.0  0.97000  0.54898  0.92227  1.0000
  H   H2121     1.0  0.69576  0.64198  0.70126  1.0000
  H   H2122     1.0  0.87804  0.69855  0.55701  1.0000
  H   H2123     1.0  0.82060  0.87869  0.53965  1.0000
  C   C1209     1.0  0.88993  0.53613  0.85740  1.0000
  H   H2124     1.0  0.72203  0.66416  0.66617  1.0000
  H   H2125     1.0  0.76765  0.67301  0.60966  1.0000
  H   H2126     1.0  0.89236  0.77532  0.57817  1.0000
  H   H2127     1.0  0.68066  0.85049  0.62226  1.0000
  H   H2128     1.0  0.79203  0.65819  0.75358  1.0000
  C   C1210     1.0  0.70876  0.75112  0.66937  1.0000
  H   H2129     1.0  0.95917  0.55663  0.74923  1.0000
  H   H2130     1.0  0.88221  0.68527  0.65148  1.0000
  H   H2131     1.0  0.77607  0.64306  0.70513  1.0000
  H   H2132     1.0  0.66705  0.71197  0.80748  1.0000
  H   H2133     1.0  0.78789  0.67542  0.69421  1.0000
  H   H2134     1.0  0.69876  0.61687  0.66215  1.0000
  H   H2135     1.0  0.68263  0.52545  0.70702  1.0000
  H   H2136     1.0  0.80396  0.69055  0.74250  1.0000
  H   H2137     1.0  0.86060  0.65478  0.63672  1.0000
  H   H2138     1.0  0.75171  0.68564  0.68023  1.0000
  H   H2139     1.0  0.72170  0.95594  0.53687  1.0000
  C   C1211     1.0  0.95330  0.58742  0.73917  1.0000
  C   C1212     1.0  0.70133  0.60624  0.67945  1.0000
  C   C1213     1.0  0.89027  0.51669  0.76591  1.0000
  H   H2140     1.0  0.73486  0.51300  0.56071  1.0000
  H   H2141     1.0  0.77485  0.98380  0.56152  1.0000
  H   H2142     1.0  0.66656  0.55855  0.75797  1.0000
  H   H2143     1.0  0.68001  0.57033  0.65745  1.0000
  H   H2144     1.0  0.94576  0.52339  0.78971  1.0000
  H   H2145     1.0  0.71453  0.77007  0.67847  1.0000
  H   H2146     1.0  0.93799  0.59172  0.73730  1.0000
  H   H2147     1.0  0.72879  0.67946  0.74739  1.0000
  H   H2148     1.0  0.87641  0.51599  0.86165  1.0000
  H   H2149     1.0  0.76120  0.68101  0.72631  1.0000
  S   S272      1.0  0.97229  0.61246  0.93161  1.0000
  H   H2150     1.0  0.89335  0.54770  0.73953  1.0000
  H   H2151     1.0  0.76646  0.65593  0.65658  1.0000
  H   H2152     1.0  0.92166  0.69581  0.60187  1.0000
  H   H2153     1.0  0.80265  0.89389  0.54578  1.0000
  H   H2154     1.0  0.66741  0.90258  0.71034  1.0000
  H   H2155     1.0  0.97929  0.56094  0.90395  1.0000
  C   C1214     1.0  0.90696  0.52516  0.81497  1.0000
  N   N68       1.0  0.91350  0.52785  0.78426  1.0000
  C   C1215     1.0  0.93134  0.55526  0.77800  1.0000
  C   C1216     1.0  0.94335  0.56022  0.74856  1.0000
  C   C1217     1.0  0.89489  0.54017  0.82593  1.0000
  H   H2156     1.0  0.67950  0.66832  0.71935  1.0000
  H   H2157     1.0  0.67929  0.72839  0.75941  1.0000
  H   H2158     1.0  0.93185  0.52709  0.93652  1.0000
  H   H2159     1.0  0.95380  0.64375  0.98211  1.0000
  C   C1218     1.0  0.93418  0.63300  0.98868  1.0000
  H   H2160     1.0  0.89280  0.50833  0.74629  1.0000
  H   H2161     1.0  0.67563  0.90440  0.64462  1.0000
  C   C1219     1.0  0.98699  0.75133  0.58070  1.0000
  H   H2162     1.0  0.75915  0.50635  0.56994  1.0000
  H   H2163     1.0  0.69872  0.50432  0.73815  1.0000
  H   H2164     1.0  0.98120  0.54058  0.97961  1.0000
  H   H2165     1.0  0.84152  0.50854  0.76004  1.0000
  H   H2166     1.0  0.89373  0.50510  0.82004  1.0000
  H   H2167     1.0  0.66341  0.95402  0.71464  1.0000
  C   C1220     1.0  0.66018  0.86553  0.72066  1.0000
  H   H2168     1.0  0.66246  0.92859  0.61397  1.0000
  H   H2169     1.0  0.92900  0.61298  0.99176  1.0000
  C   C1221     1.0  0.81241  0.89394  0.50221  1.0000
  C   C1222     1.0  0.73883  0.49895  0.57058  1.0000
  H   H2170     1.0  0.66364  0.68735  0.78376  1.0000
  C   C1223     1.0  0.66266  0.88489  0.69883  1.0000
  H   H2171     1.0  0.67428  0.91869  0.56871  1.0000
  H   H2172     1.0  0.73310  0.49684  0.59283  1.0000
  H   H2173     1.0  0.98626  0.73287  0.58265  1.0000
  H   H2174     1.0  0.66773  0.88821  0.58098  1.0000
  H   H2175     1.0  0.76602  0.49901  0.75100  1.0000
  H   H2176     1.0  0.71655  0.49893  0.71337  1.0000
  C   C1224     1.0  0.65926  0.71722  0.76416  1.0000
