data_image0
_chemical_formula_structural       FeS2FeS2FeSFeS2FeSFeS2FeSFeS4HCSH2SCHSC2H2SCHCH2CH2CHSC4H2C6H4CH10C3HCH3CH10CH3CHCH2NCH2C4H2C2H8CH4CH4CHCH6C3H2CH5C4HCH2CNC3H2CH2CHCHC2HCNHFeH4CH2C2H8CH3C2HCHSFeHSCH2FeS2FeS2FeSFeS3FeS2FeS2FeSFeS5CH5C2HC6H4CHCHC6H5C6H4C6H6C6H5NC8HCH2CH2CH6CH2CH3NH6C3H3CHNC6HC2HC2H4C2H7CH2CHCH2CH4CHNC8HC2H17CH6C3H3CHCH3FeH3CH3CH3CHCHCHFeH4CH2CH4CH3CH2CHC3H5NSCH2N2HCHFeH4CHCHCH12CH3CH6CNH4CHC2H4SC3HCH4CH3CH2C2H4C4HFeH2C3H4CH3FeH3CH5C3HCH6CH6SCSC2HCHSCH4SH3CFeH7SH3SCSH2CHC2HFeCSFeS2FeSFeS3CSFeS2FeSFeS3H3SH2CFeHC3H5CH3CH3C2H2C6H3C2H7C2HCH7CH6C3HNH2CHCH2C4H2FeHCNH4CH9CHSCH3C5H2C2H3CHNCH9NCHC2HCH3C2HCH2CH2FeC2SH2CH3C2H5FeC3HC3H2CH2CHCSH6CH5C2HSC2FeNSFeS2HFeS3FeHSFeS2CFeHS2HSFeS2FeSFeHSHFeS2HSFeSFeSCSNH5CHCH3CHFeCH2C6H5C5HCHC6H4C6H4C6H8C2H2CH4C5FeH4CHCHCH2SH2CH8C2H5CFeSC3HSH2C2HSC4H9C3NH3NHCHCH4C2HSHCH4C2HNH2C4HCHCH2C2HCH5CH6FeC3HNC12H17CH10NH2CH3C2HC2HCH5CHCH5CH7CH3CH2C2HCHCSHCH2CH3C2H2C2HCHCH3FeH5CSH2CSCH2SH6FeCH5CHCH2S2FeSHC2HC2H3CH3C2H2CHSHCFeHC2H9CFeH4CHCSC2H5C2H3CH3SFeS2FeS2FeSFeS3NH2SH3SFeS2FeS2FeSFeS4CSHSCH3C7H4C6H4C4H3C6H4C6H5CHC5H2C6H4C6H4C6H10C2H6CH4C4H2C3H9CH3C2H10FeC3HCH4CH5FeCH3CH3CHNC2HCHCH10FeH5CNC10HCH16NH5CH3NCHC5HC3SCH13CNCH7FeH2CH6CH7SCH2NC10NCH24CHCH2SCH2CH2CH7C2NC2H2C2H3CH4C2H5CH2CHC3H5CHCHCH3CH6SNH3C2HCSCH5CH3CH4CH2CH2SH2C2HCH5CHCHC2H3FeCHCH3FeH2C2H6FeS2FeS2FeSFeS3FeS2FeS2FeSFeS3HSH3SCHCH2C6H4C6H4C3H2C6H4C6H4C6H4C3H2NHC2HCHCHC2HCH7SH3C2HCNH4NC5HCH2CH16CHCHCH5SH2C4FeH2C2HCH2C2HCH2CHCH3CH5FeCH3CH3CH3CHFeCH2SH4CH6C2H2C2HCHCH3C2HCH3CH7CH2C2H3CSCHCSHCH4C4NCH5C3HCH6C4H2NH7CHCSHCHNCNHSHCH2CHCH4NCHCHCH4CH2CH3CHCH2C2HCH8CH6CHSHC3H5CFeH4CH5SHCH4CHC2HCH6CH2CH4CHCH2C2H3CH3C2SHC3HFeS2FeS2FeSFeS3FeS2FeS2FeSFeS5HSC7H4CHC6H4C6H4CH3NCH2C6H6C6H4CNC4HC2H3C2H9FeH4CFeCH3FeHCH8CH6CH3CHCH6SC3NC2H2FeH2CNH2C2NC4HC6H7CH13NHC2SH2CH3C2HCH4CH4CH2C2HCH8NC7H2C2H3CH2CH2CHCH2C2HCHCHC2HCHC2HCH3C3H4CH6C2H3C2H7NC4HC6H6CH3CHCH6CH9SFeH5CHCHCH11C2H3CH2CH5NH4FeCH4C2SH6C2H5C2H5SH2C2HSHCH2SH6CHSH4SC2HSFeSH4SCSFeS2FeS2FeSFeS3HSH2CHFeS2FeS2FeSFeS3CS2CSC6H4C6H4C6H4C6H4C6H4C6H4C6H4C7H4C6H4NC2HC3HCSHNCH6SH9FeH3C2H5CNC9HCH18CH3CH3CSH2C3HCH3CH5CH2SH6CH2CH5C2HSH4CH3CHCHCH7NHC6HCH14C3H5SHNH4CH2CSH3CH3C3HC2FeH3C2H3C2HCH2CHCNC9H2CH21CH3FeH3CH2C2HC2H5NH8CH3CHFeC3HCH4SH3CHCH3CH2CHCH3CH2NH3CH2C2H3CHCH5CFeH3SH2CH3CH2CH3CHCH2CH4C2H4CH16SH2CH2CH4SCH4CH3CFeSH2SFeSFeHC2FeCSFeS2FeSCS2FeCSFeHSFeSHS2FeS2CSFeSFeSHSC6H4C6H4C6H4C6H4SCHCHNCH2C2SC2H2C4H5CHC5H4C8H2FeCHCH2CSH2C4HCHSHFeCH9FeH2CH3CH4CH2C2HSH2CH2C4HCNC6HC2H8FeH4NH8NCHSH2CH4C2H2CH2CSH2CH3CH6CH2CH15C2HC2H2NHSH2C2H5CHCH4NC3SHSH9C2H5CSCHCHCH4CH3SH8CH4CHCNHSHSH3FeSFeS2FeSFeS3FeSFeS2FeSFeS3HC3NCH2C6H5C2H5CHC5H4CH2C4HSH4CHC2HCH3CH2CH2C2H3CH5CH4C2NCHC2FeH2C3H2NCH3C2H6C2H4CHCSH2C2HCH2C2HC2H11CH4C4H7CH5CFeH4CHC2H2NHCH3C3HCHS2H4CH2FeS2FeS2FeSFeS3FeS2FeS2FeSFeS4HS2HC2H4CH2C6H4C6H5CH2C6H4C6H4C2HC6H5NC9FeHC2H4CH3C2H8NH4CH3SHCHSHCH2C3H4CHCH2C2H4CH2FeC2H4C2HCHCH2C2H5C2SCH5CH2C2HCH2C2HCHCH11CH5CH3C3H12CH6CHSCH2CH4NC2H2CHNHCNHC4HC3SCHCH4CH2CH8CH2SCH5C4SH11C2FeCH2C2H3CHCH2C2H2CFeH4NH2CH3NC2HNHCHCHC2HCH2CH2C2HCH4NH8CH2C2H4CH3CHCH7CH5CFeCH2C2H6CH3CHC2HFe2CH7FeS4FeSFeS2CFeS2CSFeSFeSHSCHNC3HC6H7CHC2H2C3H3CHNHCHSH2C3HC2SC2H3CH3CHCHC2HCHCSH3CH3CHCHCH3CH3C2HCHCHC2HCH7FeHSHCH4CH7C2H5C2H2CH3C2H3NH2SHFeH2CHFeCH2C2H3SCH6CH2CH4C
_chemical_formula_sum              "Fe160 S320 H2560 C1440 N80"
_cell_length_a       84.0624
_cell_length_b       84.0148
_cell_length_c       37.2028
_cell_angle_alpha    90.8187
_cell_angle_beta     90.8869
_cell_angle_gamma    115.412

_space_group_name_H-M_alt    "P 1"
_space_group_IT_number       1

loop_
  _space_group_symop_operation_xyz
  'x, y, z'

loop_
  _atom_site_type_symbol
  _atom_site_label
  _atom_site_symmetry_multiplicity
  _atom_site_fract_x
  _atom_site_fract_y
  _atom_site_fract_z
  _atom_site_occupancy
  Fe  Fe1       1.0  0.03792  0.43586  0.53601  1.0000
  S   S1        1.0  0.03232  0.44215  0.59196  1.0000
  S   S2        1.0  0.01677  0.42048  0.49241  1.0000
  Fe  Fe2       1.0  0.07850  0.46089  0.54459  1.0000
  S   S3        1.0  0.07484  0.46961  0.60053  1.0000
  S   S4        1.0  0.10636  0.47551  0.52080  1.0000
  Fe  Fe3       1.0  0.05760  0.44103  0.60960  1.0000
  S   S5        1.0  0.06159  0.42676  0.65841  1.0000
  Fe  Fe4       1.0  0.05005  0.47012  0.57872  1.0000
  S   S6        1.0  0.06201  0.43206  0.55427  1.0000
  S   S7        1.0  0.05490  0.46412  0.52223  1.0000
  Fe  Fe5       1.0  0.06217  0.47845  0.90434  1.0000
  S   S8        1.0  0.06240  0.47197  0.96240  1.0000
  Fe  Fe6       1.0  0.06224  0.44460  0.87833  1.0000
  S   S9        1.0  0.06228  0.43511  0.93516  1.0000
  S   S10       1.0  0.06248  0.42734  0.83056  1.0000
  Fe  Fe7       1.0  0.04159  0.44492  0.94635  1.0000
  S   S11       1.0  0.01903  0.43298  0.98661  1.0000
  Fe  Fe8       1.0  0.08311  0.46273  0.94774  1.0000
  S   S12       1.0  0.10631  0.47083  0.98910  1.0000
  S   S13       1.0  0.04013  0.45226  0.88885  1.0000
  S   S14       1.0  0.08427  0.47132  0.89036  1.0000
  S   S15       1.0  0.21848  0.47358  0.41359  1.0000
  H   H1        1.0  0.03299  0.47868  0.78085  1.0000
  C   C1        1.0  0.03129  0.46748  0.79834  1.0000
  S   S16       1.0  0.17429  0.46440  0.47011  1.0000
  H   H2        1.0  0.15703  0.45713  0.57883  1.0000
  H   H3        1.0  0.00410  0.38559  0.74198  1.0000
  S   S17       1.0  0.22337  0.47685  0.06230  1.0000
  C   C2        1.0  0.01461  0.39680  0.69158  1.0000
  H   H4        1.0  0.14212  0.44375  0.00796  1.0000
  S   S18       1.0  0.18779  0.48468  0.00003  1.0000
  C   C3        1.0  0.13801  0.47305  0.96108  1.0000
  C   C4        1.0  0.12918  0.47533  0.99088  1.0000
  H   H5        1.0  0.08793  0.43494  0.04528  1.0000
  H   H6        1.0  0.16248  0.47404  0.94127  1.0000
  S   S19       1.0  0.22948  0.48387  0.16678  1.0000
  C   C5        1.0  0.02038  0.43421  0.80004  1.0000
  H   H7        1.0  0.01536  0.43620  0.82641  1.0000
  C   C6        1.0  0.99572  0.41941  0.98672  1.0000
  H   H8        1.0  0.98758  0.42193  0.80428  1.0000
  H   H9        1.0  0.09324  0.42270  0.88226  1.0000
  C   C7        1.0  0.13277  0.43224  0.58297  1.0000
  H   H10       1.0  0.15849  0.43608  0.53271  1.0000
  H   H11       1.0  0.16189  0.44942  0.05948  1.0000
  C   C8        1.0  0.15554  0.46792  0.48376  1.0000
  H   H12       1.0  0.02322  0.46770  0.82156  1.0000
  S   S20       1.0  0.03916  0.49006  0.58784  1.0000
  C   C9        1.0  0.12500  0.47200  0.50654  1.0000
  C   C10       1.0  0.12428  0.45519  0.50080  1.0000
  C   C11       1.0  0.13938  0.45320  0.48951  1.0000
  C   C12       1.0  0.98849  0.46192  0.95189  1.0000
  H   H13       1.0  0.11201  0.44369  0.50445  1.0000
  H   H14       1.0  0.13849  0.44011  0.48472  1.0000
  C   C13       1.0  0.06294  0.42908  0.70626  1.0000
  C   C14       1.0  0.06366  0.41516  0.72535  1.0000
  C   C15       1.0  0.06391  0.41530  0.76302  1.0000
  C   C16       1.0  0.06373  0.42949  0.78286  1.0000
  C   C17       1.0  0.06364  0.44392  0.76409  1.0000
  C   C18       1.0  0.06306  0.44363  0.72577  1.0000
  H   H15       1.0  0.06367  0.40391  0.71081  1.0000
  H   H16       1.0  0.06403  0.40412  0.77692  1.0000
  H   H17       1.0  0.06370  0.45509  0.77898  1.0000
  H   H18       1.0  0.06264  0.45456  0.71143  1.0000
  C   C19       1.0  0.11710  0.42853  0.03469  1.0000
  H   H19       1.0  0.02029  0.41586  0.86098  1.0000
  H   H20       1.0  0.15989  0.42211  0.56809  1.0000
  H   H21       1.0  0.08310  0.43427  0.99781  1.0000
  H   H22       1.0  0.13024  0.49057  0.58884  1.0000
  H   H23       1.0  0.13357  0.49001  0.63699  1.0000
  H   H24       1.0  0.13839  0.44061  0.65458  1.0000
  H   H25       1.0  0.23234  0.42569  0.14385  1.0000
  H   H26       1.0  0.99448  0.42157  0.04434  1.0000
  H   H27       1.0  0.00926  0.44881  0.76698  1.0000
  H   H28       1.0  0.02939  0.41721  0.74943  1.0000
  C   C20       1.0  0.00150  0.46027  0.50294  1.0000
  C   C21       1.0  0.06105  0.41905  0.02975  1.0000
  C   C22       1.0  0.21422  0.43660  0.15731  1.0000
  H   H29       1.0  0.15800  0.44309  0.61406  1.0000
  C   C23       1.0  0.08071  0.42624  0.02210  1.0000
  H   H30       1.0  0.10674  0.36637  0.00625  1.0000
  H   H31       1.0  0.99382  0.47488  0.96637  1.0000
  H   H32       1.0  0.14452  0.43449  0.08690  1.0000
  C   C24       1.0  0.01113  0.40279  0.80836  1.0000
  H   H33       1.0  0.12814  0.43237  0.71995  1.0000
  H   H34       1.0  0.99374  0.37683  0.85981  1.0000
  H   H35       1.0  0.09974  0.44133  0.91284  1.0000
  H   H36       1.0  0.12311  0.42986  0.96301  1.0000
  H   H37       1.0  0.10028  0.40573  0.92872  1.0000
  H   H38       1.0  0.00171  0.44740  0.50838  1.0000
  H   H39       1.0  0.08676  0.38407  0.96532  1.0000
  H   H40       1.0  0.14422  0.45482  0.07254  1.0000
  H   H41       1.0  0.05788  0.41122  0.05461  1.0000
  H   H42       1.0  0.17707  0.44410  0.56348  1.0000
  C   C25       1.0  0.11460  0.46513  0.61274  1.0000
  H   H43       1.0  0.10961  0.37270  0.95957  1.0000
  H   H44       1.0  0.12028  0.40307  0.98423  1.0000
  H   H45       1.0  0.13207  0.48294  0.04710  1.0000
  C   C26       1.0  0.10019  0.36863  0.98197  1.0000
  H   H46       1.0  0.08886  0.35602  0.97396  1.0000
  C   C27       1.0  0.13720  0.43441  0.03034  1.0000
  H   H47       1.0  0.11340  0.39754  0.02903  1.0000
  H   H48       1.0  0.01469  0.42492  0.72967  1.0000
  N   N1        1.0  0.12176  0.43776  0.60763  1.0000
  C   C28       1.0  0.10279  0.42809  0.59472  1.0000
  H   H49       1.0  0.14044  0.42316  0.02471  1.0000
  H   H50       1.0  0.16368  0.48886  0.05243  1.0000
  C   C29       1.0  0.12446  0.43295  0.64546  1.0000
  C   C30       1.0  0.11318  0.43604  0.67488  1.0000
  C   C31       1.0  0.09474  0.40767  0.59612  1.0000
  C   C32       1.0  0.10194  0.42954  0.90577  1.0000
  H   H51       1.0  0.07688  0.40181  0.99647  1.0000
  H   H52       1.0  0.11336  0.42222  0.06135  1.0000
  C   C33       1.0  0.11427  0.42725  0.70993  1.0000
  C   C34       1.0  0.07555  0.39931  0.58278  1.0000
  H   H53       1.0  0.10879  0.43925  0.97466  1.0000
  H   H54       1.0  0.10145  0.43175  0.56650  1.0000
  H   H55       1.0  0.09395  0.43217  0.61026  1.0000
  H   H56       1.0  0.00237  0.38910  0.79960  1.0000
  H   H57       1.0  0.12896  0.43278  0.55434  1.0000
  H   H58       1.0  0.08379  0.37767  0.01138  1.0000
  H   H59       1.0  0.13024  0.41830  0.58740  1.0000
  H   H60       1.0  0.12231  0.41894  0.64620  1.0000
  C   C35       1.0  0.15309  0.44322  0.58631  1.0000
  H   H61       1.0  0.09907  0.43065  0.66688  1.0000
  H   H62       1.0  0.11822  0.45036  0.68105  1.0000
  H   H63       1.0  0.10196  0.40228  0.57882  1.0000
  H   H64       1.0  0.09494  0.40334  0.62409  1.0000
  C   C36       1.0  0.00842  0.40481  0.84910  1.0000
  H   H65       1.0  0.08347  0.41243  0.94274  1.0000
  H   H66       1.0  0.10451  0.46110  0.59074  1.0000
  H   H67       1.0  0.13214  0.46162  0.57669  1.0000
  H   H68       1.0  0.22537  0.47584  0.29838  1.0000
  C   C37       1.0  0.12801  0.45747  0.60468  1.0000
  H   H69       1.0  0.11587  0.43392  0.89794  1.0000
  C   C38       1.0  0.09767  0.41705  0.93741  1.0000
  H   H70       1.0  0.10641  0.43011  0.73068  1.0000
  H   H71       1.0  0.10876  0.41272  0.70587  1.0000
  H   H72       1.0  0.06744  0.40381  0.59976  1.0000
  H   H73       1.0  0.07457  0.40275  0.55437  1.0000
  H   H74       1.0  0.07013  0.38475  0.58429  1.0000
  H   H75       1.0  0.02472  0.40372  0.80583  1.0000
  C   C39       1.0  0.98697  0.41596  0.01977  1.0000
  C   C40       1.0  0.99312  0.41034  0.49131  1.0000
  C   C41       1.0  0.10903  0.40040  0.00239  1.0000
  H   H76       1.0  0.10761  0.46045  0.63809  1.0000
  H   H77       1.0  0.13103  0.46867  0.93554  1.0000
  C   C42       1.0  0.00521  0.39712  0.72629  1.0000
  H   H78       1.0  0.08395  0.40373  0.04201  1.0000
  H   H79       1.0  0.11551  0.44100  0.03656  1.0000
  H   H80       1.0  0.05739  0.43019  0.03348  1.0000
  H   H81       1.0  0.02127  0.48660  0.01038  1.0000
  H   H82       1.0  0.20890  0.44556  0.14601  1.0000
  C   C43       1.0  0.15623  0.48474  0.48948  1.0000
  C   C44       1.0  0.10931  0.42640  0.97076  1.0000
  C   C45       1.0  0.16263  0.43584  0.56113  1.0000
  C   C46       1.0  0.22778  0.48519  0.27713  1.0000
  H   H83       1.0  0.09996  0.48930  0.40092  1.0000
  C   C47       1.0  0.14752  0.44384  0.06445  1.0000
  H   H84       1.0  0.05301  0.41068  0.00684  1.0000
  H   H85       1.0  0.03068  0.45113  0.75339  1.0000
  C   C48       1.0  0.98996  0.41397  0.78258  1.0000
  N   N2        1.0  0.10519  0.41642  0.00536  1.0000
  C   C49       1.0  0.08638  0.41109  0.01644  1.0000
  C   C50       1.0  0.09364  0.38269  0.98983  1.0000
  C   C51       1.0  0.01529  0.41469  0.74753  1.0000
  H   H86       1.0  0.20313  0.42337  0.16014  1.0000
  H   H87       1.0  0.99495  0.45386  0.96282  1.0000
  C   C52       1.0  0.02230  0.45012  0.77684  1.0000
  H   H88       1.0  0.03388  0.43544  0.80590  1.0000
  H   H89       1.0  0.01744  0.38528  0.86608  1.0000
  C   C53       1.0  0.12366  0.48529  0.61456  1.0000
  H   H90       1.0  0.04452  0.46939  0.80846  1.0000
  C   C54       1.0  0.14111  0.48673  0.50065  1.0000
  H   H91       1.0  0.01434  0.46902  0.49139  1.0000
  C   C55       1.0  0.00589  0.38828  0.86951  1.0000
  C   C56       1.0  0.15591  0.47613  0.96442  1.0000
  H   H92       1.0  0.98760  0.41951  0.75707  1.0000
  C   C57       1.0  0.22733  0.47976  0.24072  1.0000
  N   N3        1.0  0.00876  0.41607  0.78453  1.0000
  H   H93       1.0  0.22117  0.43013  0.10611  1.0000
  Fe  Fe9       1.0  0.20298  0.48220  0.45308  1.0000
  H   H94       1.0  0.02767  0.39703  0.69776  1.0000
  H   H95       1.0  0.13997  0.46463  0.62205  1.0000
  H   H96       1.0  0.00665  0.38456  0.67571  1.0000
  H   H97       1.0  0.99148  0.40840  0.43340  1.0000
  C   C58       1.0  0.13868  0.48114  0.02374  1.0000
  H   H98       1.0  0.01650  0.40829  0.67478  1.0000
  H   H99       1.0  0.98989  0.40993  0.54855  1.0000
  C   C59       1.0  0.16539  0.48178  0.99737  1.0000
  C   C60       1.0  0.15666  0.48451  0.02691  1.0000
  H   H100      1.0  0.00460  0.39048  0.89865  1.0000
  H   H101      1.0  0.09823  0.48119  0.44585  1.0000
  H   H102      1.0  0.99187  0.39568  0.71837  1.0000
  H   H103      1.0  0.99213  0.41446  0.92962  1.0000
  H   H104      1.0  0.00008  0.46629  0.52876  1.0000
  H   H105      1.0  0.98943  0.45315  0.45056  1.0000
  H   H106      1.0  0.99692  0.40771  0.85380  1.0000
  H   H107      1.0  0.22455  0.46620  0.23450  1.0000
  C   C61       1.0  0.98572  0.41198  0.95526  1.0000
  H   H108      1.0  0.98663  0.47103  0.47279  1.0000
  H   H109      1.0  0.22008  0.44166  0.18445  1.0000
  H   H110      1.0  0.99174  0.46421  0.92304  1.0000
  C   C62       1.0  0.22796  0.43532  0.13244  1.0000
  C   C63       1.0  0.98648  0.45790  0.47649  1.0000
  H   H111      1.0  0.11374  0.49049  0.61921  1.0000
  C   C64       1.0  0.99947  0.54617  0.61581  1.0000
  H   H112      1.0  0.02402  0.54590  0.59808  1.0000
  S   S21       1.0  0.19700  0.69864  0.01006  1.0000
  Fe  Fe10      1.0  0.21508  0.72203  0.46382  1.0000
  H   H113      1.0  0.06088  0.58281  0.83351  1.0000
  S   S22       1.0  0.19103  0.70826  0.50024  1.0000
  C   C65       1.0  0.00528  0.56595  0.60810  1.0000
  H   H114      1.0  0.16194  0.69916  0.93451  1.0000
  H   H115      1.0  0.22274  0.65386  0.40098  1.0000
  Fe  Fe11      1.0  0.08411  0.61648  0.89350  1.0000
  S   S23       1.0  0.07258  0.63082  0.92863  1.0000
  S   S24       1.0  0.09556  0.62305  0.83703  1.0000
  Fe  Fe12      1.0  0.08578  0.59408  0.95677  1.0000
  S   S25       1.0  0.07519  0.60732  0.99618  1.0000
  S   S26       1.0  0.09190  0.57215  0.97704  1.0000
  Fe  Fe13      1.0  0.05522  0.60416  0.95222  1.0000
  S   S27       1.0  0.02501  0.58776  0.95545  1.0000
  Fe  Fe14      1.0  0.09363  0.63260  0.96990  1.0000
  S   S28       1.0  0.11227  0.65840  0.99974  1.0000
  S   S29       1.0  0.06558  0.59001  0.91359  1.0000
  S   S30       1.0  0.10542  0.61920  0.93411  1.0000
  Fe  Fe15      1.0  0.09531  0.62346  0.55774  1.0000
  S   S31       1.0  0.09995  0.61669  0.61443  1.0000
  S   S32       1.0  0.11718  0.63974  0.51830  1.0000
  Fe  Fe16      1.0  0.05602  0.59456  0.55468  1.0000
  S   S33       1.0  0.05876  0.58612  0.61060  1.0000
  S   S34       1.0  0.03092  0.57584  0.52252  1.0000
  Fe  Fe17      1.0  0.07293  0.61472  0.62608  1.0000
  S   S35       1.0  0.06250  0.61993  0.67938  1.0000
  Fe  Fe18      1.0  0.08526  0.58856  0.59554  1.0000
  S   S36       1.0  0.09516  0.56865  0.61206  1.0000
  S   S37       1.0  0.06883  0.62355  0.57040  1.0000
  S   S38       1.0  0.08199  0.59493  0.53865  1.0000
  S   S39       1.0  0.21113  0.50847  0.42699  1.0000
  S   S40       1.0  0.21979  0.51291  0.08735  1.0000
  C   C66       1.0  0.09107  0.50310  0.43981  1.0000
  H   H116      1.0  0.12159  0.67325  0.07904  1.0000
  H   H117      1.0  0.16211  0.62417  0.57052  1.0000
  H   H118      1.0  0.07536  0.56720  0.09430  1.0000
  H   H119      1.0  0.02913  0.51980  0.49669  1.0000
  H   H120      1.0  0.02616  0.58723  0.43787  1.0000
  C   C67       1.0  0.00923  0.57368  0.51182  1.0000
  C   C68       1.0  0.13462  0.67825  0.13190  1.0000
  H   H121      1.0  0.99949  0.54602  0.49815  1.0000
  C   C69       1.0  0.08581  0.62186  0.79365  1.0000
  C   C70       1.0  0.06827  0.61905  0.78857  1.0000
  C   C71       1.0  0.06135  0.61851  0.75347  1.0000
  C   C72       1.0  0.07168  0.62028  0.72303  1.0000
  C   C73       1.0  0.08914  0.62283  0.72814  1.0000
  C   C74       1.0  0.09620  0.62387  0.76324  1.0000
  H   H122      1.0  0.06013  0.61762  0.81166  1.0000
  H   H123      1.0  0.04795  0.61689  0.74995  1.0000
  H   H124      1.0  0.09731  0.62449  0.70504  1.0000
  H   H125      1.0  0.10982  0.62620  0.76687  1.0000
  C   C75       1.0  0.00729  0.58142  0.98647  1.0000
  H   H126      1.0  0.15872  0.67890  0.19171  1.0000
  C   C76       1.0  0.13923  0.68088  0.80685  1.0000
  H   H127      1.0  0.10692  0.66773  0.11621  1.0000
  C   C77       1.0  0.06878  0.52162  0.90825  1.0000
  C   C78       1.0  0.07259  0.52110  0.94478  1.0000
  C   C79       1.0  0.07964  0.53672  0.96574  1.0000
  C   C80       1.0  0.08270  0.55283  0.95035  1.0000
  C   C81       1.0  0.07864  0.55334  0.91394  1.0000
  C   C82       1.0  0.07166  0.53773  0.89293  1.0000
  H   H128      1.0  0.07025  0.50871  0.95683  1.0000
  H   H129      1.0  0.08270  0.53633  0.99397  1.0000
  H   H130      1.0  0.08131  0.56580  0.90178  1.0000
  H   H131      1.0  0.06877  0.53816  0.86464  1.0000
  H   H132      1.0  0.11727  0.65360  0.10411  1.0000
  C   C83       1.0  0.05430  0.51171  0.59845  1.0000
  C   C84       1.0  0.04963  0.52548  0.59123  1.0000
  C   C85       1.0  0.06206  0.54303  0.59592  1.0000
  C   C86       1.0  0.07902  0.54685  0.60892  1.0000
  C   C87       1.0  0.08341  0.53309  0.61798  1.0000
  C   C88       1.0  0.07108  0.51549  0.61255  1.0000
  H   H133      1.0  0.03666  0.52256  0.58023  1.0000
  H   H134      1.0  0.05866  0.55354  0.58821  1.0000
  H   H135      1.0  0.09656  0.53604  0.62796  1.0000
  H   H136      1.0  0.07466  0.50488  0.61854  1.0000
  C   C89       1.0  0.13780  0.65886  0.51431  1.0000
  C   C90       1.0  0.14750  0.66086  0.48272  1.0000
  C   C91       1.0  0.16374  0.67574  0.47789  1.0000
  C   C92       1.0  0.17053  0.68906  0.50451  1.0000
  C   C93       1.0  0.16089  0.68704  0.53620  1.0000
  C   C94       1.0  0.14475  0.67205  0.54120  1.0000
  H   H137      1.0  0.14233  0.65084  0.46163  1.0000
  H   H138      1.0  0.17088  0.67699  0.45336  1.0000
  H   H139      1.0  0.16591  0.69720  0.55704  1.0000
  H   H140      1.0  0.13753  0.67085  0.56561  1.0000
  H   H141      1.0  0.02493  0.55249  0.69093  1.0000
  H   H142      1.0  0.14939  0.63480  0.55185  1.0000
  C   C95       1.0  0.13587  0.66921  0.00297  1.0000
  C   C96       1.0  0.14422  0.68637  0.01825  1.0000
  C   C97       1.0  0.16280  0.69540  0.02156  1.0000
  C   C98       1.0  0.17341  0.68745  0.00941  1.0000
  C   C99       1.0  0.16507  0.67036  0.99382  1.0000
  C   C100      1.0  0.14649  0.66126  0.99084  1.0000
  H   H143      1.0  0.13624  0.69282  0.02732  1.0000
  H   H144      1.0  0.16890  0.70870  0.03257  1.0000
  H   H145      1.0  0.17306  0.66410  0.98390  1.0000
  H   H146      1.0  0.14039  0.64809  0.97915  1.0000
  H   H147      1.0  0.15765  0.63992  0.59745  1.0000
  N   N4        1.0  0.12908  0.52861  0.96857  1.0000
  C   C101      1.0  0.14422  0.52617  0.98598  1.0000
  C   C102      1.0  0.11195  0.51682  0.98582  1.0000
  C   C103      1.0  0.12794  0.52295  0.92945  1.0000
  C   C104      1.0  0.13190  0.54762  0.96983  1.0000
  C   C105      1.0  0.13427  0.55645  0.00749  1.0000
  C   C106      1.0  0.16272  0.53709  0.97062  1.0000
  C   C107      1.0  0.11128  0.52124  0.90777  1.0000
  C   C108      1.0  0.11240  0.51366  0.02680  1.0000
  H   H148      1.0  0.07710  0.49377  0.43447  1.0000
  C   C109      1.0  0.13996  0.57628  0.00463  1.0000
  H   H149      1.0  0.08688  0.52050  0.68760  1.0000
  H   H150      1.0  0.09925  0.51036  0.91799  1.0000
  C   C110      1.0  0.03473  0.49681  0.01725  1.0000
  H   H151      1.0  0.14538  0.52932  0.01521  1.0000
  H   H152      1.0  0.10193  0.52184  0.98061  1.0000
  C   C111      1.0  0.22761  0.65323  0.59993  1.0000
  H   H153      1.0  0.12843  0.50990  0.92718  1.0000
  H   H154      1.0  0.13946  0.53239  0.91471  1.0000
  H   H155      1.0  0.14333  0.55583  0.95330  1.0000
  H   H156      1.0  0.12048  0.54897  0.95723  1.0000
  H   H157      1.0  0.14435  0.55463  0.02419  1.0000
  H   H158      1.0  0.12148  0.55099  0.02134  1.0000
  C   C112      1.0  0.99946  0.58889  0.69467  1.0000
  H   H159      1.0  0.16643  0.55142  0.97347  1.0000
  H   H160      1.0  0.10943  0.53351  0.90918  1.0000
  C   C113      1.0  0.22497  0.70417  0.58327  1.0000
  H   H161      1.0  0.20954  0.67871  0.44730  1.0000
  H   H162      1.0  0.11932  0.52602  0.04269  1.0000
  H   H163      1.0  0.02527  0.59733  0.39596  1.0000
  N   N5        1.0  0.99698  0.57535  0.63044  1.0000
  H   H164      1.0  0.02703  0.57655  0.39611  1.0000
  H   H165      1.0  0.14087  0.58222  0.03189  1.0000
  H   H166      1.0  0.15306  0.58274  0.99211  1.0000
  H   H167      1.0  0.13018  0.57890  0.98833  1.0000
  H   H168      1.0  0.08549  0.67304  0.93609  1.0000
  H   H169      1.0  0.22262  0.70582  0.24847  1.0000
  C   C114      1.0  0.21701  0.66947  0.53571  1.0000
  C   C115      1.0  0.99443  0.58443  0.04318  1.0000
  C   C116      1.0  0.02110  0.58453  0.40958  1.0000
  H   H170      1.0  0.06125  0.50040  0.50162  1.0000
  H   H171      1.0  0.03658  0.54912  0.89136  1.0000
  H   H172      1.0  0.13597  0.69193  0.13302  1.0000
  C   C117      1.0  0.01339  0.54241  0.04164  1.0000
  H   H173      1.0  0.10764  0.51658  0.58773  1.0000
  N   N6        1.0  0.02540  0.53880  0.01622  1.0000
  C   C118      1.0  0.04391  0.55272  0.02384  1.0000
  C   C119      1.0  0.01965  0.54030  0.97812  1.0000
  C   C120      1.0  0.99337  0.57043  0.37008  1.0000
  C   C121      1.0  0.02355  0.52038  0.02294  1.0000
  C   C122      1.0  0.03701  0.51495  0.00495  1.0000
  C   C123      1.0  0.05110  0.55364  0.06285  1.0000
  H   H174      1.0  0.17403  0.51926  0.98735  1.0000
  C   C124      1.0  0.03398  0.54605  0.94900  1.0000
  C   C125      1.0  0.02592  0.54452  0.91131  1.0000
  H   H175      1.0  0.17716  0.53668  0.01977  1.0000
  C   C126      1.0  0.07078  0.56585  0.06578  1.0000
  C   C127      1.0  0.22071  0.72011  0.58479  1.0000
  H   H176      1.0  0.04467  0.56601  0.01782  1.0000
  H   H177      1.0  0.05348  0.55112  0.00562  1.0000
  H   H178      1.0  0.00687  0.53951  0.56371  1.0000
  H   H179      1.0  0.01439  0.55042  0.97709  1.0000
  C   C128      1.0  0.09035  0.52532  0.53130  1.0000
  C   C129      1.0  0.11580  0.52165  0.56365  1.0000
  H   H180      1.0  0.02404  0.51824  0.05233  1.0000
  H   H181      1.0  0.01039  0.51041  0.01352  1.0000
  H   H182      1.0  0.05072  0.52434  0.01197  1.0000
  H   H183      1.0  0.03495  0.51392  0.97539  1.0000
  H   H184      1.0  0.04431  0.55898  0.08153  1.0000
  H   H185      1.0  0.04927  0.54048  0.07200  1.0000
  H   H186      1.0  0.08870  0.49721  0.49645  1.0000
  C   C130      1.0  0.98698  0.58506  0.50804  1.0000
  H   H187      1.0  0.04328  0.56007  0.95384  1.0000
  H   H188      1.0  0.04174  0.53828  0.94917  1.0000
  C   C131      1.0  0.15614  0.69186  0.87668  1.0000
  H   H189      1.0  0.01680  0.53061  0.90457  1.0000
  C   C132      1.0  0.99074  0.56779  0.97633  1.0000
  H   H190      1.0  0.09450  0.50193  0.07036  1.0000
  H   H191      1.0  0.04126  0.55403  0.65854  1.0000
  C   C133      1.0  0.11017  0.53415  0.54328  1.0000
  H   H192      1.0  0.18814  0.71454  0.25681  1.0000
  H   H193      1.0  0.07840  0.56033  0.04987  1.0000
  H   H194      1.0  0.07347  0.57916  0.05583  1.0000
  H   H195      1.0  0.13956  0.64934  0.83648  1.0000
  C   C134      1.0  0.22586  0.71962  0.25312  1.0000
  H   H196      1.0  0.10859  0.51524  0.48500  1.0000
  N   N7        1.0  0.08312  0.56536  0.73235  1.0000
  C   C135      1.0  0.07662  0.56189  0.77038  1.0000
  C   C136      1.0  0.08710  0.55037  0.71930  1.0000
  C   C137      1.0  0.10035  0.58183  0.73366  1.0000
  C   C138      1.0  0.07033  0.56811  0.70697  1.0000
  C   C139      1.0  0.05040  0.55755  0.71439  1.0000
  C   C140      1.0  0.07455  0.57741  0.78965  1.0000
  C   C141      1.0  0.10964  0.58791  0.69730  1.0000
  C   C142      1.0  0.07138  0.53190  0.71563  1.0000
  H   H197      1.0  0.18992  0.54145  0.97955  1.0000
  C   C143      1.0  0.03903  0.55962  0.68420  1.0000
  C   C144      1.0  0.12591  0.60553  0.70171  1.0000
  H   H198      1.0  0.08578  0.55862  0.78744  1.0000
  H   H199      1.0  0.06384  0.55010  0.77148  1.0000
  H   H200      1.0  0.09269  0.55294  0.69198  1.0000
  H   H201      1.0  0.09739  0.54935  0.73714  1.0000
  H   H202      1.0  0.10989  0.58026  0.75281  1.0000
  H   H203      1.0  0.09829  0.59322  0.74410  1.0000
  H   H204      1.0  0.07277  0.58226  0.70712  1.0000
  H   H205      1.0  0.07262  0.56515  0.67871  1.0000
  H   H206      1.0  0.04689  0.56244  0.73949  1.0000
  H   H207      1.0  0.04658  0.54332  0.71726  1.0000
  H   H208      1.0  0.13082  0.62500  0.87746  1.0000
  H   H209      1.0  0.06967  0.58453  0.77085  1.0000
  H   H210      1.0  0.10065  0.58971  0.67732  1.0000
  H   H211      1.0  0.11423  0.57832  0.68629  1.0000
  H   H212      1.0  0.99593  0.59113  0.06893  1.0000
  H   H213      1.0  0.06315  0.53144  0.69160  1.0000
  H   H214      1.0  0.14946  0.63728  0.90752  1.0000
  C   C145      1.0  0.21509  0.67320  0.46838  1.0000
  H   H215      1.0  0.00198  0.54424  0.64435  1.0000
  H   H216      1.0  0.04220  0.57378  0.68097  1.0000
  H   H217      1.0  0.00850  0.52776  0.96887  1.0000
  H   H218      1.0  0.13225  0.60945  0.67527  1.0000
  H   H219      1.0  0.12221  0.61601  0.71139  1.0000
  H   H220      1.0  0.13558  0.60439  0.72097  1.0000
  C   C146      1.0  0.15184  0.67722  0.12022  1.0000
  C   C147      1.0  0.18433  0.67378  0.10224  1.0000
  C   C148      1.0  0.11922  0.66753  0.10622  1.0000
  H   H221      1.0  0.19260  0.70293  0.88621  1.0000
  H   H222      1.0  0.15313  0.67934  0.09071  1.0000
  H   H223      1.0  0.14908  0.66311  0.12371  1.0000
  C   C149      1.0  0.18096  0.68010  0.13967  1.0000
  H   H224      1.0  0.17194  0.66513  0.08766  1.0000
  C   C150      1.0  0.16070  0.63672  0.57007  1.0000
  H   H225      1.0  0.02159  0.60006  0.02871  1.0000
  H   H226      1.0  0.13100  0.67264  0.15907  1.0000
  H   H227      1.0  0.17574  0.66843  0.15732  1.0000
  Fe  Fe19      1.0  0.22023  0.71933  0.04401  1.0000
  H   H228      1.0  0.17914  0.64815  0.52850  1.0000
  H   H229      1.0  0.17513  0.66372  0.55665  1.0000
  H   H230      1.0  0.14835  0.69514  0.80606  1.0000
  C   C151      1.0  0.17743  0.65172  0.55654  1.0000
  H   H231      1.0  0.11244  0.54548  0.56182  1.0000
  H   H232      1.0  0.02889  0.60076  0.59721  1.0000
  H   H233      1.0  0.16347  0.68886  0.85515  1.0000
  C   C152      1.0  0.12759  0.67621  0.77276  1.0000
  H   H234      1.0  0.01983  0.62350  0.57498  1.0000
  H   H235      1.0  0.19165  0.68518  0.08512  1.0000
  H   H236      1.0  0.18810  0.65113  0.12098  1.0000
  C   C153      1.0  0.02496  0.62421  0.60294  1.0000
  H   H237      1.0  0.98883  0.53521  0.00988  1.0000
  C   C154      1.0  0.17675  0.53337  0.99065  1.0000
  H   H238      1.0  0.19604  0.67345  0.50554  1.0000
  C   C155      1.0  0.10796  0.67287  0.90843  1.0000
  H   H239      1.0  0.99965  0.56296  0.35578  1.0000
  Fe  Fe20      1.0  0.23216  0.49593  0.11039  1.0000
  H   H240      1.0  0.19899  0.68820  0.56055  1.0000
  H   H241      1.0  0.01850  0.63019  0.62099  1.0000
  H   H242      1.0  0.01986  0.57254  0.61154  1.0000
  H   H243      1.0  0.19013  0.65421  0.60885  1.0000
  C   C156      1.0  0.19370  0.65417  0.58010  1.0000
  H   H244      1.0  0.03933  0.63289  0.60353  1.0000
  H   H245      1.0  0.20114  0.68538  0.60682  1.0000
  C   C157      1.0  0.02179  0.60589  0.61558  1.0000
  H   H246      1.0  0.13965  0.66050  0.91598  1.0000
  H   H247      1.0  0.19533  0.64185  0.57555  1.0000
  H   H248      1.0  0.08627  0.51211  0.03708  1.0000
  H   H249      1.0  0.10582  0.66026  0.92102  1.0000
  C   C158      1.0  0.20797  0.68659  0.58085  1.0000
  H   H250      1.0  0.23298  0.73238  0.58916  1.0000
  H   H251      1.0  0.99468  0.60007  0.62897  1.0000
  H   H252      1.0  0.16941  0.69333  0.25378  1.0000
  C   C159      1.0  0.00616  0.58827  0.73282  1.0000
  H   H253      1.0  0.98914  0.53730  0.38579  1.0000
  H   H254      1.0  0.18395  0.73478  0.07658  1.0000
  C   C160      1.0  0.21042  0.67781  0.50540  1.0000
  H   H255      1.0  0.15285  0.63065  0.86304  1.0000
  C   C161      1.0  0.12797  0.67720  0.84110  1.0000
  C   C162      1.0  0.17800  0.70641  0.12083  1.0000
  C   C163      1.0  0.11255  0.51719  0.86802  1.0000
  H   H256      1.0  0.13368  0.68461  0.93247  1.0000
  H   H257      1.0  0.11852  0.66193  0.77175  1.0000
  H   H258      1.0  0.21169  0.71899  0.60712  1.0000
  H   H259      1.0  0.12214  0.68688  0.84034  1.0000
  H   H260      1.0  0.02778  0.60749  0.64287  1.0000
  N   N8        1.0  0.21067  0.67020  0.57328  1.0000
  S   S41       1.0  0.23010  0.70718  0.08710  1.0000
  C   C164      1.0  0.09378  0.50414  0.04114  1.0000
  H   H261      1.0  0.08349  0.51279  0.54598  1.0000
  H   H262      1.0  0.18699  0.72061  0.90036  1.0000
  N   N9        1.0  0.13717  0.67828  0.87710  1.0000
  N   N10       1.0  0.16884  0.68919  0.13984  1.0000
  H   H263      1.0  0.99814  0.58329  0.35634  1.0000
  C   C165      1.0  0.10073  0.57060  0.46095  1.0000
  H   H264      1.0  0.19421  0.68901  0.15105  1.0000
  Fe  Fe21      1.0  0.23469  0.73088  0.12213  1.0000
  H   H265      1.0  0.20808  0.67147  0.12025  1.0000
  H   H266      1.0  0.11336  0.57306  0.44795  1.0000
  H   H267      1.0  0.11968  0.68393  0.77180  1.0000
  H   H268      1.0  0.18035  0.70401  0.09239  1.0000
  C   C166      1.0  0.23026  0.49163  0.21237  1.0000
  H   H269      1.0  0.08367  0.55433  0.50093  1.0000
  C   C167      1.0  0.16534  0.69192  0.17866  1.0000
  H   H270      1.0  0.06345  0.50815  0.45693  1.0000
  C   C168      1.0  0.06191  0.57124  0.82087  1.0000
  H   H271      1.0  0.11454  0.50501  0.86472  1.0000
  H   H272      1.0  0.23165  0.67623  0.53499  1.0000
  H   H273      1.0  0.08757  0.58699  0.80077  1.0000
  H   H274      1.0  0.08704  0.53652  0.44385  1.0000
  H   H275      1.0  0.05900  0.53370  0.47298  1.0000
  H   H276      1.0  0.03278  0.50151  0.51280  1.0000
  H   H277      1.0  0.04855  0.56179  0.81128  1.0000
  H   H278      1.0  0.18880  0.71678  0.19118  1.0000
  H   H279      1.0  0.10084  0.66981  0.88207  1.0000
  H   H280      1.0  0.05931  0.52971  0.52037  1.0000
  H   H281      1.0  0.20939  0.65869  0.46396  1.0000
  H   H282      1.0  0.06686  0.56495  0.84146  1.0000
  C   C169      1.0  0.00373  0.57672  0.66870  1.0000
  H   H283      1.0  0.01444  0.60062  0.52338  1.0000
  H   H284      1.0  0.13013  0.69817  0.89994  1.0000
  H   H285      1.0  0.08452  0.53392  0.54201  1.0000
  C   C170      1.0  0.00907  0.58953  0.02038  1.0000
  H   H286      1.0  0.09462  0.51442  0.42165  1.0000
  H   H287      1.0  0.10225  0.58296  0.47501  1.0000
  H   H288      1.0  0.00372  0.59767  0.75067  1.0000
  H   H289      1.0  0.22961  0.67893  0.46563  1.0000
  H   H290      1.0  0.10012  0.51515  0.85361  1.0000
  H   H291      1.0  0.16844  0.49624  0.48518  1.0000
  C   C171      1.0  0.16816  0.71830  0.11937  1.0000
  N   N11       1.0  0.08655  0.52191  0.49150  1.0000
  H   H292      1.0  0.22453  0.71735  0.31111  1.0000
  H   H293      1.0  0.11450  0.51037  0.54618  1.0000
  H   H294      1.0  0.14195  0.49984  0.50477  1.0000
  H   H295      1.0  0.21353  0.65555  0.52748  1.0000
  C   C172      1.0  0.14562  0.65253  0.86388  1.0000
  H   H296      1.0  0.01829  0.58138  0.66951  1.0000
  C   C173      1.0  0.06681  0.51258  0.48541  1.0000
  C   C174      1.0  0.23380  0.50911  0.22118  1.0000
  H   H297      1.0  0.10032  0.69418  0.91936  1.0000
  H   H298      1.0  0.19377  0.70903  0.93308  1.0000
  H   H299      1.0  0.01870  0.55290  0.90943  1.0000
  H   H300      1.0  0.15976  0.66168  0.86227  1.0000
  S   S42       1.0  0.22280  0.71310  0.41188  1.0000
  C   C175      1.0  0.99609  0.55702  0.50083  1.0000
  C   C176      1.0  0.17620  0.70618  0.24041  1.0000
  C   C177      1.0  0.18627  0.70752  0.90740  1.0000
  H   H301      1.0  0.11909  0.53971  0.52051  1.0000
  C   C178      1.0  0.14460  0.63533  0.87910  1.0000
  H   H302      1.0  0.23257  0.70476  0.60834  1.0000
  H   H303      1.0  0.01582  0.55656  0.04055  1.0000
  H   H304      1.0  0.01629  0.54021  0.06994  1.0000
  H   H305      1.0  0.23354  0.70544  0.56005  1.0000
  C   C179      1.0  0.03638  0.51163  0.49172  1.0000
  H   H306      1.0  0.12363  0.52833  0.85564  1.0000
  H   H307      1.0  0.16322  0.53371  0.94187  1.0000
  H   H308      1.0  0.10650  0.56046  0.50928  1.0000
  C   C180      1.0  0.13556  0.66036  0.88737  1.0000
  H   H309      1.0  0.00279  0.56701  0.57918  1.0000
  H   H310      1.0  0.14160  0.51201  0.98397  1.0000
  C   C181      1.0  0.99327  0.53125  0.03506  1.0000
  C   C182      1.0  0.09411  0.50928  0.47992  1.0000
  H   H311      1.0  0.21670  0.69236  0.50852  1.0000
  H   H312      1.0  0.06630  0.50466  0.70448  1.0000
  H   H313      1.0  0.99586  0.58283  0.42396  1.0000
  H   H314      1.0  0.14722  0.67332  0.80590  1.0000
  C   C183      1.0  0.23431  0.51455  0.25758  1.0000
  C   C184      1.0  0.09599  0.55585  0.48805  1.0000
  C   C185      1.0  0.00454  0.58771  0.51520  1.0000
  C   C186      1.0  0.00183  0.59333  0.61515  1.0000
  H   H315      1.0  0.08463  0.51624  0.73517  1.0000
  Fe  Fe22      1.0  0.22794  0.50067  0.39002  1.0000
  H   H316      1.0  0.16740  0.71295  0.23944  1.0000
  H   H317      1.0  0.03717  0.49699  0.04672  1.0000
  C   C187      1.0  0.22694  0.72613  0.28877  1.0000
  C   C188      1.0  0.18162  0.70352  0.20257  1.0000
  C   C189      1.0  0.12803  0.68437  0.90513  1.0000
  H   H318      1.0  0.99741  0.59211  0.58655  1.0000
  H   H319      1.0  0.13593  0.67926  0.74866  1.0000
  H   H320      1.0  0.09013  0.56715  0.44003  1.0000
  H   H321      1.0  0.12153  0.65055  0.88601  1.0000
  C   C190      1.0  0.00103  0.57456  0.40916  1.0000
  H   H322      1.0  0.15601  0.69800  0.18078  1.0000
  H   H323      1.0  0.04435  0.49313  0.00348  1.0000
  H   H324      1.0  0.06305  0.52840  0.73962  1.0000
  Fe  Fe23      1.0  0.21247  0.49480  0.03810  1.0000
  H   H325      1.0  0.19073  0.69720  0.20557  1.0000
  H   H326      1.0  0.22093  0.67225  0.62793  1.0000
  H   H327      1.0  0.10817  0.54112  0.46188  1.0000
  C   C191      1.0  0.09957  0.68203  0.93218  1.0000
  H   H328      1.0  0.00553  0.52453  0.59900  1.0000
  H   H329      1.0  0.16415  0.72070  0.14636  1.0000
  H   H330      1.0  0.12980  0.52878  0.57263  1.0000
  H   H331      1.0  0.98695  0.54807  0.07209  1.0000
  H   H332      1.0  0.15668  0.70498  0.87004  1.0000
  C   C192      1.0  0.16715  0.69419  0.91194  1.0000
  C   C193      1.0  0.09453  0.53847  0.46977  1.0000
  C   C194      1.0  0.19536  0.66339  0.10597  1.0000
  H   H333      1.0  0.10629  0.68553  0.95902  1.0000
  C   C195      1.0  0.05620  0.52337  0.49338  1.0000
  H   H334      1.0  0.16731  0.68156  0.91970  1.0000
  H   H335      1.0  0.11655  0.66403  0.83721  1.0000
  H   H336      1.0  0.19822  0.65976  0.07880  1.0000
  H   H337      1.0  0.10640  0.50339  0.97316  1.0000
  H   H338      1.0  0.21448  0.72129  0.55914  1.0000
  H   H339      1.0  0.02055  0.59206  0.73306  1.0000
  C   C196      1.0  0.17978  0.73628  0.10412  1.0000
  H   H340      1.0  0.15639  0.71214  0.10126  1.0000
  H   H341      1.0  0.11932  0.50521  0.03201  1.0000
  H   H342      1.0  0.22603  0.65727  0.05811  1.0000
  H   H343      1.0  0.99837  0.56347  0.68085  1.0000
  H   H344      1.0  0.21646  0.64222  0.61247  1.0000
  H   H345      1.0  0.19144  0.71421  0.13266  1.0000
  S   S43       1.0  0.06094  0.50248  0.88086  1.0000
  C   C197      1.0  0.07775  0.51751  0.71039  1.0000
  S   S44       1.0  0.22573  0.72126  0.17912  1.0000
  C   C198      1.0  0.22439  0.67010  0.60000  1.0000
  C   C199      1.0  0.22878  0.73072  0.22349  1.0000
  H   H346      1.0  0.98909  0.56142  0.95018  1.0000
  C   C200      1.0  0.00961  0.53860  0.59273  1.0000
  H   H347      1.0  0.23325  0.63060  0.40222  1.0000
  S   S45       1.0  0.23211  0.51055  0.33145  1.0000
  C   C201      1.0  0.23124  0.50267  0.28592  1.0000
  H   H348      1.0  0.98973  0.51697  0.03285  1.0000
  H   H349      1.0  0.03226  0.50500  0.46490  1.0000
  H   H350      1.0  0.00593  0.60282  0.68626  1.0000
  H   H351      1.0  0.22911  0.64913  0.57220  1.0000
  S   S46       1.0  0.22559  0.49194  0.49385  1.0000
  H   H352      1.0  0.99922  0.57483  0.74372  1.0000
  H   H353      1.0  0.99771  0.56230  0.42421  1.0000
  H   H354      1.0  0.11639  0.50179  0.43465  1.0000
  C   C202      1.0  0.10213  0.49329  0.42982  1.0000
  Fe  Fe24      1.0  0.23425  0.51781  0.46581  1.0000
  H   H355      1.0  0.08668  0.49110  0.02731  1.0000
  H   H356      1.0  0.23544  0.64112  0.44570  1.0000
  H   H357      1.0  0.22633  0.58819  0.09077  1.0000
  H   H358      1.0  0.98777  0.57794  0.29801  1.0000
  H   H359      1.0  0.23523  0.61804  0.06092  1.0000
  H   H360      1.0  0.19164  0.74335  0.12172  1.0000
  H   H361      1.0  0.22982  0.79846  0.27371  1.0000
  S   S47       1.0  0.22343  0.74995  0.44497  1.0000
  H   H362      1.0  0.22988  0.79626  0.33940  1.0000
  H   H363      1.0  0.21976  0.78512  0.45669  1.0000
  H   H364      1.0  0.23338  0.79206  0.49698  1.0000
  S   S48       1.0  0.22355  0.74269  0.07979  1.0000
  C   C203      1.0  0.23280  0.74850  0.23006  1.0000
  S   S49       1.0  0.23069  0.75245  0.33959  1.0000
  H   H365      1.0  0.22868  0.80791  0.47224  1.0000
  H   H366      1.0  0.17229  0.74441  0.10266  1.0000
  C   C204      1.0  0.23136  0.79611  0.46961  1.0000
  H   H367      1.0  0.23443  0.79283  0.39670  1.0000
  C   C205      1.0  0.23351  0.75493  0.26568  1.0000
  C   C206      1.0  0.23059  0.74382  0.29532  1.0000
  H   H368      1.0  0.23489  0.75719  0.20766  1.0000
  Fe  Fe25      1.0  0.23290  0.74136  0.39468  1.0000
  C   C207      1.0  0.40469  0.99800  0.49593  1.0000
  S   S50       1.0  0.44822  0.06566  0.50655  1.0000
  Fe  Fe26      1.0  0.45298  0.06719  0.40197  1.0000
  S   S51       1.0  0.42886  0.06549  0.42994  1.0000
  S   S52       1.0  0.45963  0.06958  0.34218  1.0000
  Fe  Fe27      1.0  0.44764  0.08641  0.46893  1.0000
  S   S53       1.0  0.44213  0.11061  0.48219  1.0000
  Fe  Fe28      1.0  0.43170  0.04492  0.46526  1.0000
  S   S54       1.0  0.40779  0.01827  0.47507  1.0000
  S   S55       1.0  0.47159  0.08891  0.43904  1.0000
  S   S56       1.0  0.45475  0.04554  0.43449  1.0000
  C   C208      1.0  0.47079  0.23333  0.74977  1.0000
  S   S57       1.0  0.46030  0.06098  0.04196  1.0000
  Fe  Fe29      1.0  0.43851  0.06215  0.13137  1.0000
  S   S58       1.0  0.42661  0.06386  0.07696  1.0000
  S   S59       1.0  0.42514  0.06233  0.18454  1.0000
  Fe  Fe30      1.0  0.43338  0.04160  0.05881  1.0000
  S   S60       1.0  0.42048  0.01959  0.01523  1.0000
  Fe  Fe31      1.0  0.45431  0.08315  0.06327  1.0000
  S   S61       1.0  0.46271  0.10704  0.02509  1.0000
  S   S62       1.0  0.44290  0.03860  0.11389  1.0000
  S   S63       1.0  0.46574  0.08252  0.11856  1.0000
  H   H369      1.0  0.46369  0.00461  0.50744  1.0000
  H   H370      1.0  0.40981  0.10050  0.95624  1.0000
  H   H371      1.0  0.39407  0.06833  0.92805  1.0000
  S   S64       1.0  0.46667  0.22058  0.92074  1.0000
  H   H372      1.0  0.43066  0.10481  0.97821  1.0000
  H   H373      1.0  0.38099  0.01350  0.97009  1.0000
  C   C209      1.0  0.46250  0.12814  0.01841  1.0000
  Fe  Fe32      1.0  0.48280  0.23769  0.61876  1.0000
  H   H374      1.0  0.41674  0.00864  0.65684  1.0000
  C   C210      1.0  0.46241  0.16162  0.00460  1.0000
  C   C211      1.0  0.45512  0.15231  0.03604  1.0000
  C   C212      1.0  0.45528  0.13583  0.04306  1.0000
  H   H375      1.0  0.38112  0.01862  0.36824  1.0000
  H   H376      1.0  0.38092  0.04684  0.00510  1.0000
  H   H377      1.0  0.44927  0.15791  0.05518  1.0000
  H   H378      1.0  0.44964  0.12901  0.06742  1.0000
  H   H379      1.0  0.47297  0.06993  0.27184  1.0000
  C   C213      1.0  0.40645  0.99639  0.01469  1.0000
  H   H380      1.0  0.41140  0.17706  0.59571  1.0000
  H   H381      1.0  0.43336  0.14976  0.65156  1.0000
  H   H382      1.0  0.42180  0.18161  0.55265  1.0000
  C   C214      1.0  0.45510  0.13285  0.49806  1.0000
  H   H383      1.0  0.44049  0.08687  0.95728  1.0000
  H   H384      1.0  0.45323  0.00441  0.32649  1.0000
  H   H385      1.0  0.45444  0.19386  0.75892  1.0000
  C   C215      1.0  0.45682  0.16232  0.51243  1.0000
  C   C216      1.0  0.44713  0.14457  0.50064  1.0000
  H   H386      1.0  0.43761  0.09911  0.27699  1.0000
  H   H387      1.0  0.43105  0.16281  0.59039  1.0000
  C   C217      1.0  0.44921  0.06640  0.29886  1.0000
  C   C218      1.0  0.43160  0.06341  0.29382  1.0000
  C   C219      1.0  0.42438  0.06196  0.25871  1.0000
  C   C220      1.0  0.43460  0.06338  0.22821  1.0000
  C   C221      1.0  0.45209  0.06603  0.23331  1.0000
  C   C222      1.0  0.45933  0.06760  0.26838  1.0000
  H   H388      1.0  0.42360  0.06259  0.31674  1.0000
  H   H389      1.0  0.41084  0.05991  0.25507  1.0000
  H   H390      1.0  0.46013  0.06715  0.21018  1.0000
  C   C223      1.0  0.47627  0.01977  0.02474  1.0000
  C   C224      1.0  0.46087  0.11378  0.24802  1.0000
  H   H391      1.0  0.41160  0.99298  0.95917  1.0000
  H   H392      1.0  0.43696  0.13571  0.39932  1.0000
  H   H393      1.0  0.43124  0.00665  0.51625  1.0000
  H   H394      1.0  0.43334  0.13989  0.49326  1.0000
  H   H395      1.0  0.39874  0.08607  0.87349  1.0000
  H   H396      1.0  0.37828  0.04158  0.95748  1.0000
  H   H397      1.0  0.46033  0.10586  0.38477  1.0000
  C   C225      1.0  0.47473  0.16871  0.52187  1.0000
  C   C226      1.0  0.47262  0.18493  0.63396  1.0000
  H   H398      1.0  0.47934  0.13044  0.50629  1.0000
  C   C227      1.0  0.37772  0.02087  0.99153  1.0000
  H   H399      1.0  0.46186  0.01742  0.36673  1.0000
  H   H400      1.0  0.43320  0.05573  0.92259  1.0000
  H   H401      1.0  0.45359  0.12062  0.40601  1.0000
  H   H402      1.0  0.46450  0.19650  0.69291  1.0000
  H   H403      1.0  0.41080  0.04843  0.00648  1.0000
  H   H404      1.0  0.38344  0.01918  0.01754  1.0000
  H   H405      1.0  0.47450  0.04459  0.33217  1.0000
  C   C228      1.0  0.41925  0.08149  0.90185  1.0000
  H   H406      1.0  0.42085  0.04048  0.35795  1.0000
  H   H407      1.0  0.41507  0.11188  0.37834  1.0000
  H   H408      1.0  0.43768  0.07448  0.99627  1.0000
  H   H409      1.0  0.39902  0.00310  0.38404  1.0000
  H   H410      1.0  0.44327  0.12232  0.27468  1.0000
  H   H411      1.0  0.41783  0.12331  0.00432  1.0000
  C   C229      1.0  0.47614  0.23075  0.78462  1.0000
  C   C230      1.0  0.47296  0.13920  0.50787  1.0000
  C   C231      1.0  0.40889  0.02777  0.35588  1.0000
  H   H412      1.0  0.43401  0.08966  0.35142  1.0000
  N   N12       1.0  0.42300  0.00558  0.35851  1.0000
  H   H413      1.0  0.47163  0.18104  0.60517  1.0000
  H   H414      1.0  0.46483  0.06160  0.93004  1.0000
  C   C232      1.0  0.43150  0.10164  0.34976  1.0000
  H   H415      1.0  0.42346  0.10000  0.32483  1.0000
  C   C233      1.0  0.40514  0.04886  0.97945  1.0000
  H   H416      1.0  0.46715  0.17739  0.70477  1.0000
  H   H417      1.0  0.47137  0.00604  0.01410  1.0000
  C   C234      1.0  0.44128  0.17566  0.71410  1.0000
  C   C235      1.0  0.46978  0.15401  0.98012  1.0000
  C   C236      1.0  0.41620  0.09876  0.98125  1.0000
  C   C237      1.0  0.44864  0.11250  0.27893  1.0000
  H   H418      1.0  0.41855  0.01998  0.40301  1.0000
  H   H419      1.0  0.40385  0.06913  0.85311  1.0000
  Fe  Fe33      1.0  0.47109  0.06710  0.47367  1.0000
  H   H420      1.0  0.43677  0.00546  0.40783  1.0000
  C   C238      1.0  0.40681  0.06724  0.92740  1.0000
  N   N13       1.0  0.41361  0.06737  0.96530  1.0000
  H   H421      1.0  0.40546  0.07234  0.38015  1.0000
  H   H422      1.0  0.36317  0.01510  0.99378  1.0000
  H   H423      1.0  0.46682  0.14974  0.61849  1.0000
  H   H424      1.0  0.39216  0.04152  0.35692  1.0000
  C   C239      1.0  0.42415  0.18404  0.58211  1.0000
  H   H425      1.0  0.44677  0.16774  0.35070  1.0000
  H   H426      1.0  0.46926  0.23211  0.80794  1.0000
  H   H427      1.0  0.42940  0.17581  0.64924  1.0000
  H   H428      1.0  0.45773  0.01089  0.46503  1.0000
  H   H429      1.0  0.42569  0.10199  0.40738  1.0000
  H   H430      1.0  0.43588  0.02441  0.31689  1.0000
  H   H431      1.0  0.39411  0.08344  0.40256  1.0000
  H   H432      1.0  0.44297  0.12109  0.63704  1.0000
  H   H433      1.0  0.42507  0.09484  0.91436  1.0000
  C   C240      1.0  0.40235  0.08388  0.37918  1.0000
  H   H434      1.0  0.45253  0.15084  0.67354  1.0000
  S   S65       1.0  0.46471  0.22403  0.57110  1.0000
  C   C241      1.0  0.46977  0.13743  0.98692  1.0000
  H   H435      1.0  0.42742  0.12508  0.60846  1.0000
  H   H436      1.0  0.41292  0.07794  0.01822  1.0000
  H   H437      1.0  0.41845  0.10798  0.03703  1.0000
  C   C242      1.0  0.40877  0.07894  0.99007  1.0000
  C   C243      1.0  0.43329  0.07339  0.96759  1.0000
  C   C244      1.0  0.39364  0.03076  0.37144  1.0000
  C   C245      1.0  0.44584  0.13427  0.34356  1.0000
  C   C246      1.0  0.44028  0.06118  0.94850  1.0000
  H   H438      1.0  0.41880  0.09208  0.84918  1.0000
  H   H439      1.0  0.44350  0.03237  0.36106  1.0000
  C   C247      1.0  0.41922  0.10107  0.38075  1.0000
  C   C248      1.0  0.41213  0.01356  0.37698  1.0000
  H   H440      1.0  0.45360  0.17212  0.76366  1.0000
  H   H441      1.0  0.42911  0.19841  0.58769  1.0000
  H   H442      1.0  0.39785  0.10425  0.01446  1.0000
  C   C249      1.0  0.41227  0.10913  0.01116  1.0000
  H   H443      1.0  0.45113  0.99346  0.07807  1.0000
  N   N14       1.0  0.44880  0.11786  0.34811  1.0000
  C   C250      1.0  0.45290  0.14771  0.61624  1.0000
  H   H444      1.0  0.39643  0.01126  0.65395  1.0000
  H   H445      1.0  0.43034  0.07845  0.89401  1.0000
  H   H446      1.0  0.40361  0.05433  0.91354  1.0000
  H   H447      1.0  0.44565  0.12248  0.58898  1.0000
  H   H448      1.0  0.40817  0.03970  0.96193  1.0000
  H   H449      1.0  0.43837  0.04990  0.96592  1.0000
  H   H450      1.0  0.47539  0.13173  0.96750  1.0000
  H   H451      1.0  0.46465  0.03249  0.29083  1.0000
  H   H452      1.0  0.39427  0.07438  0.99032  1.0000
  N   N15       1.0  0.45514  0.17575  0.65193  1.0000
  C   C251      1.0  0.40949  0.08217  0.86732  1.0000
  H   H453      1.0  0.39613  0.03448  0.40047  1.0000
  C   C252      1.0  0.40465  0.00570  0.64029  1.0000
  C   C253      1.0  0.46828  0.01460  0.48610  1.0000
  H   H454      1.0  0.39462  0.08297  0.35410  1.0000
  C   C254      1.0  0.44798  0.15585  0.64980  1.0000
  H   H455      1.0  0.40779  0.00080  0.30872  1.0000
  H   H456      1.0  0.46183  0.10415  0.31989  1.0000
  H   H457      1.0  0.43336  0.18290  0.70680  1.0000
  C   C255      1.0  0.43914  0.02038  0.34341  1.0000
  C   C256      1.0  0.38481  0.04043  0.98280  1.0000
  H   H458      1.0  0.44927  0.18326  0.57825  1.0000
  C   C257      1.0  0.44220  0.18180  0.63544  1.0000
  H   H459      1.0  0.45873  0.15156  0.39056  1.0000
  H   H460      1.0  0.40585  0.02427  0.32699  1.0000
  C   C258      1.0  0.44150  0.12787  0.61266  1.0000
  H   H461      1.0  0.45638  0.14408  0.32713  1.0000
  H   H462      1.0  0.47658  0.19941  0.63374  1.0000
  Fe  Fe34      1.0  0.46929  0.05898  0.09775  1.0000
  C   C259      1.0  0.45997  0.07094  0.94141  1.0000
  C   C260      1.0  0.44530  0.14446  0.37849  1.0000
  S   S66       1.0  0.46129  0.18223  0.99682  1.0000
  H   H463      1.0  0.43408  0.17558  0.76998  1.0000
  H   H464      1.0  0.45045  0.17108  0.51385  1.0000
  C   C261      1.0  0.44620  0.17954  0.75406  1.0000
  H   H465      1.0  0.43297  0.16130  0.71037  1.0000
  H   H466      1.0  0.45150  0.15364  0.59076  1.0000
  H   H467      1.0  0.44717  0.19638  0.63934  1.0000
  C   C262      1.0  0.43745  0.17728  0.59505  1.0000
  C   C263      1.0  0.48267  0.15697  0.51953  1.0000
  H   H468      1.0  0.40865  0.01221  0.61400  1.0000
  H   H469      1.0  0.42459  0.15172  0.36015  1.0000
  H   H470      1.0  0.43343  0.13100  0.32772  1.0000
  H   H471      1.0  0.47511  0.16072  0.95551  1.0000
  H   H472      1.0  0.46747  0.07682  0.96682  1.0000
  Fe  Fe35      1.0  0.47638  0.20719  0.96318  1.0000
  C   C264      1.0  0.45844  0.11549  0.31593  1.0000
  C   C265      1.0  0.45597  0.01722  0.33964  1.0000
  C   C266      1.0  0.45980  0.11876  0.38119  1.0000
  H   H473      1.0  0.46246  0.08162  0.92195  1.0000
  C   C267      1.0  0.43841  0.15821  0.37063  1.0000
  C   C268      1.0  0.46995  0.03163  0.31793  1.0000
  C   C269      1.0  0.47918  0.13304  0.38084  1.0000
  H   H474      1.0  0.43869  0.16560  0.39583  1.0000
  H   H475      1.0  0.46768  0.02565  0.01369  1.0000
  C   C270      1.0  0.45798  0.18183  0.69095  1.0000
  H   H476      1.0  0.47051  0.02765  0.49783  1.0000
  H   H477      1.0  0.48150  0.02866  0.31458  1.0000
  C   C271      1.0  0.41829  0.99576  0.51411  1.0000
  H   H478      1.0  0.45976  0.23665  0.74675  1.0000
  C   C272      1.0  0.47950  0.23162  0.71890  1.0000
  S   S67       1.0  0.47126  0.23378  0.67539  1.0000
  H   H479      1.0  0.46689  0.10443  0.25168  1.0000
  H   H480      1.0  0.39821  0.99505  0.06944  1.0000
  H   H481      1.0  0.47125  0.12721  0.31308  1.0000
  H   H482      1.0  0.45321  0.11031  0.22217  1.0000
  H   H483      1.0  0.47148  0.12738  0.24641  1.0000
  H   H484      1.0  0.43036  0.99221  0.29003  1.0000
  C   C273      1.0  0.42836  0.99589  0.38662  1.0000
  H   H485      1.0  0.48103  0.20753  0.06891  1.0000
  H   H486      1.0  0.47531  0.01971  0.05450  1.0000
  H   H487      1.0  0.48214  0.00224  0.45792  1.0000
  H   H488      1.0  0.48037  0.14491  0.36625  1.0000
  H   H489      1.0  0.47978  0.14563  0.43275  1.0000
  C   C274      1.0  0.41161  0.99335  0.32886  1.0000
  C   C275      1.0  0.48515  0.01541  0.46961  1.0000
  H   H490      1.0  0.48363  0.16905  0.66367  1.0000
  S   S68       1.0  0.36237  0.48337  0.89598  1.0000
  C   C276      1.0  0.47059  0.47677  0.63650  1.0000
  C   C277      1.0  0.47724  0.31527  0.51944  1.0000
  Fe  Fe36      1.0  0.45946  0.35115  0.05719  1.0000
  N   N16       1.0  0.25976  0.45360  0.10996  1.0000
  S   S69       1.0  0.45898  0.32336  0.05929  1.0000
  Fe  Fe37      1.0  0.44213  0.37765  0.05055  1.0000
  S   S70       1.0  0.46499  0.39941  0.07898  1.0000
  S   S71       1.0  0.41745  0.38214  0.03672  1.0000
  H   H491      1.0  0.28901  0.43550  0.17931  1.0000
  Fe  Fe38      1.0  0.46471  0.37894  0.11771  1.0000
  S   S72       1.0  0.47300  0.38667  0.17662  1.0000
  S   S73       1.0  0.45883  0.36958  0.01369  1.0000
  S   S74       1.0  0.44071  0.35737  0.09179  1.0000
  Fe  Fe39      1.0  0.38534  0.45733  0.94688  1.0000
  H   H492      1.0  0.43226  0.48587  0.41391  1.0000
  S   S75       1.0  0.40432  0.44563  0.96747  1.0000
  Fe  Fe40      1.0  0.36257  0.45745  0.88062  1.0000
  S   S76       1.0  0.47698  0.27116  0.95591  1.0000
  S   S77       1.0  0.35038  0.44192  0.82849  1.0000
  C   C278      1.0  0.46045  0.30696  0.18729  1.0000
  Fe  Fe41      1.0  0.35764  0.47320  0.95251  1.0000
  H   H493      1.0  0.45108  0.33961  0.54685  1.0000
  S   S78       1.0  0.39147  0.46692  0.89029  1.0000
  S   S79       1.0  0.35583  0.44621  0.93644  1.0000
  H   H494      1.0  0.48321  0.42311  0.14515  1.0000
  S   S80       1.0  0.47400  0.38652  0.46227  1.0000
  Fe  Fe42      1.0  0.44785  0.36548  0.37547  1.0000
  S   S81       1.0  0.43745  0.35523  0.43058  1.0000
  S   S82       1.0  0.43358  0.35467  0.32171  1.0000
  Fe  Fe43      1.0  0.44690  0.38399  0.44688  1.0000
  S   S83       1.0  0.43519  0.39559  0.49031  1.0000
  Fe  Fe44      1.0  0.46506  0.35823  0.44318  1.0000
  H   H495      1.0  0.40462  0.32094  0.58481  1.0000
  S   S84       1.0  0.45514  0.39375  0.39101  1.0000
  H   H496      1.0  0.40838  0.45432  0.40281  1.0000
  Fe  Fe45      1.0  0.37544  0.46388  0.61592  1.0000
  S   S85       1.0  0.35196  0.44333  0.58542  1.0000
  S   S86       1.0  0.38416  0.46894  0.67542  1.0000
  H   H497      1.0  0.37629  0.44586  0.39743  1.0000
  S   S87       1.0  0.36840  0.46504  0.51228  1.0000
  Fe  Fe46      1.0  0.35045  0.46620  0.55580  1.0000
  S   S88       1.0  0.32759  0.47487  0.55427  1.0000
  Fe  Fe47      1.0  0.37191  0.44386  0.54384  1.0000
  S   S89       1.0  0.37405  0.42182  0.50918  1.0000
  C   C279      1.0  0.46317  0.30642  0.46088  1.0000
  S   S90       1.0  0.39509  0.46271  0.57662  1.0000
  N   N17       1.0  0.42325  0.33320  0.54310  1.0000
  H   H498      1.0  0.28071  0.46920  0.94990  1.0000
  H   H499      1.0  0.30339  0.44574  0.73235  1.0000
  H   H500      1.0  0.41702  0.36445  0.55225  1.0000
  H   H501      1.0  0.31545  0.46684  0.42542  1.0000
  H   H502      1.0  0.48325  0.43378  0.33291  1.0000
  C   C280      1.0  0.33690  0.48785  0.66571  1.0000
  H   H503      1.0  0.44479  0.32864  0.12758  1.0000
  C   C281      1.0  0.30907  0.47392  0.52778  1.0000
  H   H504      1.0  0.47359  0.47097  0.61195  1.0000
  H   H505      1.0  0.47359  0.36612  0.57930  1.0000
  H   H506      1.0  0.46652  0.32056  0.30614  1.0000
  C   C282      1.0  0.41701  0.31606  0.13608  1.0000
  H   H507      1.0  0.41597  0.32824  0.14496  1.0000
  Fe  Fe48      1.0  0.24181  0.48565  0.45300  1.0000
  C   C283      1.0  0.47548  0.29797  0.52516  1.0000
  H   H508      1.0  0.46090  0.29040  0.07152  1.0000
  H   H509      1.0  0.27971  0.45533  0.04726  1.0000
  C   C284      1.0  0.41831  0.40313  0.49432  1.0000
  C   C285      1.0  0.40670  0.40200  0.46594  1.0000
  C   C286      1.0  0.39329  0.40772  0.47100  1.0000
  C   C287      1.0  0.39145  0.41503  0.50419  1.0000
  C   C288      1.0  0.40304  0.41612  0.53256  1.0000
  C   C289      1.0  0.41629  0.41017  0.52766  1.0000
  H   H510      1.0  0.40784  0.39642  0.44027  1.0000
  H   H511      1.0  0.38420  0.40638  0.44902  1.0000
  H   H512      1.0  0.40168  0.42137  0.55845  1.0000
  H   H513      1.0  0.42504  0.41101  0.54997  1.0000
  H   H514      1.0  0.45542  0.33485  0.30548  1.0000
  C   C290      1.0  0.28714  0.48366  0.00047  1.0000
  C   C291      1.0  0.39418  0.35801  0.51813  1.0000
  C   C292      1.0  0.30115  0.46149  0.49988  1.0000
  C   C293      1.0  0.29078  0.47533  0.97062  1.0000
  C   C294      1.0  0.30721  0.47457  0.96744  1.0000
  H   H515      1.0  0.29214  0.45040  0.10334  1.0000
  C   C295      1.0  0.47661  0.28768  0.19352  1.0000
  H   H516      1.0  0.30963  0.46795  0.94447  1.0000
  C   C296      1.0  0.35956  0.44972  0.78590  1.0000
  C   C297      1.0  0.37473  0.46550  0.78279  1.0000
  C   C298      1.0  0.38191  0.47115  0.74875  1.0000
  C   C299      1.0  0.37393  0.46129  0.71727  1.0000
  C   C300      1.0  0.35865  0.44557  0.72028  1.0000
  C   C301      1.0  0.35153  0.43982  0.75442  1.0000
  H   H517      1.0  0.38106  0.47330  0.80668  1.0000
  H   H518      1.0  0.45663  0.47473  0.63521  1.0000
  H   H519      1.0  0.35260  0.43762  0.69647  1.0000
  H   H520      1.0  0.33983  0.42755  0.75651  1.0000
  C   C302      1.0  0.46166  0.37725  0.21625  1.0000
  C   C303      1.0  0.44381  0.36550  0.21572  1.0000
  C   C304      1.0  0.43530  0.35864  0.24815  1.0000
  C   C305      1.0  0.44454  0.36359  0.28136  1.0000
  C   C306      1.0  0.46241  0.37529  0.28175  1.0000
  C   C307      1.0  0.47089  0.38204  0.24938  1.0000
  H   H521      1.0  0.43663  0.36161  0.19036  1.0000
  H   H522      1.0  0.42149  0.34950  0.24758  1.0000
  H   H523      1.0  0.46972  0.37904  0.30706  1.0000
  H   H524      1.0  0.31703  0.43407  0.69805  1.0000
  C   C308      1.0  0.41424  0.40015  0.01798  1.0000
  C   C309      1.0  0.39703  0.39903  0.01515  1.0000
  C   C310      1.0  0.39372  0.41276  0.00013  1.0000
  C   C311      1.0  0.40762  0.42794  0.98763  1.0000
  C   C312      1.0  0.42485  0.42910  0.99060  1.0000
  C   C313      1.0  0.42816  0.41537  0.00565  1.0000
  H   H525      1.0  0.38612  0.38737  0.02449  1.0000
  H   H526      1.0  0.38040  0.41156  0.99819  1.0000
  H   H527      1.0  0.43574  0.44070  0.98103  1.0000
  H   H528      1.0  0.44147  0.41653  0.00744  1.0000
  H   H529      1.0  0.44570  0.41938  0.23705  1.0000
  H   H530      1.0  0.25631  0.44425  0.99874  1.0000
  H   H531      1.0  0.42199  0.38627  0.19745  1.0000
  H   H532      1.0  0.43012  0.31108  0.53896  1.0000
  C   C314      1.0  0.42905  0.42918  0.26289  1.0000
  C   C315      1.0  0.40272  0.35898  0.15007  1.0000
  H   H533      1.0  0.43047  0.30940  0.19815  1.0000
  H   H534      1.0  0.26691  0.47866  0.08447  1.0000
  C   C316      1.0  0.41766  0.39081  0.17281  1.0000
  H   H535      1.0  0.24735  0.45968  0.15548  1.0000
  H   H536      1.0  0.39736  0.34619  0.56642  1.0000
  H   H537      1.0  0.43247  0.42617  0.29015  1.0000
  H   H538      1.0  0.40551  0.35429  0.17614  1.0000
  C   C317      1.0  0.47250  0.28569  0.98574  1.0000
  C   C318      1.0  0.46839  0.28199  0.02193  1.0000
  C   C319      1.0  0.46447  0.29371  0.04390  1.0000
  C   C320      1.0  0.46476  0.30944  0.03032  1.0000
  C   C321      1.0  0.46942  0.31340  0.99446  1.0000
  Fe  Fe49      1.0  0.39098  0.48362  0.54685  1.0000
  H   H539      1.0  0.44386  0.36423  0.58291  1.0000
  H   H540      1.0  0.33208  0.48394  0.73155  1.0000
  H   H541      1.0  0.30636  0.45208  0.49337  1.0000
  H   H542      1.0  0.41087  0.31393  0.64837  1.0000
  C   C322      1.0  0.32697  0.45594  0.66080  1.0000
  H   H543      1.0  0.41272  0.41851  0.19646  1.0000
  C   C323      1.0  0.30178  0.48586  0.53581  1.0000
  H   H544      1.0  0.40394  0.38908  0.17753  1.0000
  C   C324      1.0  0.29281  0.43647  0.15067  1.0000
  H   H545      1.0  0.42702  0.33651  0.65613  1.0000
  H   H546      1.0  0.32026  0.47618  0.38145  1.0000
  S   S91       1.0  0.46519  0.26260  0.50413  1.0000
  H   H547      1.0  0.43530  0.32306  0.47737  1.0000
  H   H548      1.0  0.39838  0.32767  0.51579  1.0000
  C   C325      1.0  0.31676  0.42340  0.64549  1.0000
  H   H549      1.0  0.27936  0.47787  0.16263  1.0000
  H   H550      1.0  0.42717  0.29103  0.48737  1.0000
  H   H551      1.0  0.40262  0.34973  0.12832  1.0000
  H   H552      1.0  0.43769  0.44321  0.25745  1.0000
  H   H553      1.0  0.26659  0.48851  0.14480  1.0000
  H   H554      1.0  0.45158  0.40677  0.19017  1.0000
  H   H555      1.0  0.41405  0.31408  0.10669  1.0000
  H   H556      1.0  0.40426  0.28630  0.47937  1.0000
  C   C326      1.0  0.24376  0.45360  0.12800  1.0000
  C   C327      1.0  0.27248  0.47258  0.10455  1.0000
  H   H557      1.0  0.31397  0.42535  0.61699  1.0000
  H   H558      1.0  0.46639  0.34857  0.16729  1.0000
  H   H559      1.0  0.27234  0.43311  0.06296  1.0000
  H   H560      1.0  0.41688  0.34524  0.49730  1.0000
  H   H561      1.0  0.30185  0.46579  0.74425  1.0000
  C   C328      1.0  0.47852  0.42414  0.30998  1.0000
  Fe  Fe50      1.0  0.48267  0.24648  0.95123  1.0000
  S   S92       1.0  0.34101  0.48057  0.99317  1.0000
  C   C329      1.0  0.26740  0.44384  0.13325  1.0000
  C   C330      1.0  0.31672  0.49050  0.02406  1.0000
  C   C331      1.0  0.43168  0.41704  0.23501  1.0000
  H   H562      1.0  0.43808  0.33249  0.19322  1.0000
  S   S93       1.0  0.37333  0.48652  0.58808  1.0000
  H   H563      1.0  0.43586  0.30529  0.13386  1.0000
  H   H564      1.0  0.47363  0.38704  0.56863  1.0000
  C   C332      1.0  0.32028  0.48195  0.99441  1.0000
  C   C333      1.0  0.41805  0.29554  0.47360  1.0000
  H   H565      1.0  0.28482  0.47357  0.09249  1.0000
  S   S94       1.0  0.26084  0.47235  0.46124  1.0000
  C   C334      1.0  0.42404  0.41472  0.13032  1.0000
  C   C335      1.0  0.46260  0.43107  0.16004  1.0000
  C   C336      1.0  0.42676  0.43406  0.12564  1.0000
  C   C337      1.0  0.42410  0.43767  0.08640  1.0000
  H   H566      1.0  0.28637  0.42321  0.13745  1.0000
  H   H567      1.0  0.43443  0.43501  0.19263  1.0000
  H   H568      1.0  0.46151  0.44063  0.17952  1.0000
  H   H569      1.0  0.40630  0.46948  0.47816  1.0000
  H   H570      1.0  0.41697  0.43653  0.14171  1.0000
  H   H571      1.0  0.44006  0.44377  0.13453  1.0000
  H   H572      1.0  0.41091  0.42821  0.07590  1.0000
  H   H573      1.0  0.43442  0.43659  0.06963  1.0000
  H   H574      1.0  0.45121  0.43368  0.43032  1.0000
  C   C338      1.0  0.32700  0.47030  0.71987  1.0000
  C   C339      1.0  0.38266  0.44668  0.42419  1.0000
  C   C340      1.0  0.42037  0.31542  0.52741  1.0000
  N   N18       1.0  0.32384  0.47035  0.67961  1.0000
  H   H575      1.0  0.38110  0.43329  0.43114  1.0000
  H   H576      1.0  0.30731  0.44106  0.14966  1.0000
  H   H577      1.0  0.42321  0.45777  0.79933  1.0000
  N   N19       1.0  0.45890  0.32390  0.19520  1.0000
  H   H578      1.0  0.43316  0.31860  0.66174  1.0000
  C   C341      1.0  0.26086  0.43532  0.01281  1.0000
  H   H579      1.0  0.26486  0.44524  0.16219  1.0000
  C   C342      1.0  0.31427  0.43682  0.67012  1.0000
  H   H580      1.0  0.40122  0.36374  0.49311  1.0000
  H   H581      1.0  0.26048  0.42942  0.12710  1.0000
  H   H582      1.0  0.28033  0.45129  0.45915  1.0000
  H   H583      1.0  0.48105  0.30985  0.22800  1.0000
  C   C343      1.0  0.46150  0.32900  0.23472  1.0000
  C   C344      1.0  0.30061  0.46904  0.63114  1.0000
  H   H584      1.0  0.46781  0.26987  0.03276  1.0000
  S   S95       1.0  0.38687  0.48359  0.96673  1.0000
  H   H585      1.0  0.42954  0.37680  0.14077  1.0000
  C   C345      1.0  0.31669  0.45807  0.78176  1.0000
  H   H586      1.0  0.39120  0.36819  0.53202  1.0000
  H   H587      1.0  0.43402  0.48419  0.51204  1.0000
  H   H588      1.0  0.43424  0.44999  0.57745  1.0000
  H   H589      1.0  0.32685  0.45737  0.63109  1.0000
  C   C346      1.0  0.28162  0.46667  0.62638  1.0000
  C   C347      1.0  0.42677  0.42069  0.19651  1.0000
  H   H590      1.0  0.47633  0.30469  0.94453  1.0000
  N   N20       1.0  0.43136  0.47056  0.46095  1.0000
  H   H591      1.0  0.40710  0.30459  0.15012  1.0000
  H   H592      1.0  0.41508  0.42715  0.26267  1.0000
  C   C348      1.0  0.41141  0.46190  0.46061  1.0000
  C   C349      1.0  0.43763  0.45844  0.44138  1.0000
  C   C350      1.0  0.45603  0.45960  0.45248  1.0000
  C   C351      1.0  0.43039  0.45787  0.52406  1.0000
  H   H593      1.0  0.45834  0.30948  0.43604  1.0000
  C   C352      1.0  0.47314  0.30159  0.97240  1.0000
  H   H594      1.0  0.40712  0.30519  0.53460  1.0000
  C   C353      1.0  0.44016  0.46176  0.56036  1.0000
  H   H595      1.0  0.42844  0.31103  0.59749  1.0000
  H   H596      1.0  0.45609  0.45516  0.48036  1.0000
  C   C354      1.0  0.25384  0.44460  0.07352  1.0000
  C   C355      1.0  0.46771  0.28475  0.49860  1.0000
  H   H597      1.0  0.44367  0.31219  0.31788  1.0000
  C   C356      1.0  0.44042  0.32099  0.18440  1.0000
  H   H598      1.0  0.40646  0.44855  0.47223  1.0000
  H   H599      1.0  0.42821  0.44436  0.44491  1.0000
  H   H600      1.0  0.43763  0.46050  0.41189  1.0000
  H   H601      1.0  0.41630  0.45405  0.52927  1.0000
  H   H602      1.0  0.43141  0.44641  0.51116  1.0000
  C   C357      1.0  0.47782  0.30624  0.19917  1.0000
  H   H603      1.0  0.24763  0.45164  0.05740  1.0000
  H   H604      1.0  0.40968  0.40666  0.12469  1.0000
  H   H605      1.0  0.45532  0.27906  0.44586  1.0000
  H   H606      1.0  0.33040  0.42460  0.64824  1.0000
  H   H607      1.0  0.24357  0.43092  0.07623  1.0000
  H   H608      1.0  0.26163  0.47746  0.35962  1.0000
  Fe  Fe51      1.0  0.48156  0.39052  0.04502  1.0000
  C   C358      1.0  0.43768  0.47410  0.49967  1.0000
  C   C359      1.0  0.48107  0.43201  0.16488  1.0000
  C   C360      1.0  0.27911  0.47309  0.48827  1.0000
  H   H609      1.0  0.47237  0.46972  0.66017  1.0000
  N   N21       1.0  0.38944  0.40948  0.87287  1.0000
  C   C361      1.0  0.40528  0.40882  0.89127  1.0000
  C   C362      1.0  0.39464  0.42793  0.85965  1.0000
  C   C363      1.0  0.37559  0.40606  0.90095  1.0000
  C   C364      1.0  0.38169  0.39598  0.84259  1.0000
  C   C365      1.0  0.39465  0.39087  0.82125  1.0000
  C   C366      1.0  0.40158  0.39178  0.91227  1.0000
  C   C367      1.0  0.35867  0.40775  0.88854  1.0000
  C   C368      1.0  0.40842  0.43427  0.82971  1.0000
  C   C369      1.0  0.41377  0.45368  0.82167  1.0000
  C   C370      1.0  0.38565  0.37988  0.78753  1.0000
  C   C371      1.0  0.41851  0.38980  0.92033  1.0000
  C   C372      1.0  0.34420  0.40015  0.91619  1.0000
  H   H610      1.0  0.41140  0.42005  0.91101  1.0000
  H   H611      1.0  0.41582  0.41077  0.87197  1.0000
  H   H612      1.0  0.38303  0.42938  0.84825  1.0000
  H   H613      1.0  0.39972  0.43750  0.88278  1.0000
  H   H614      1.0  0.38125  0.41517  0.92460  1.0000
  H   H615      1.0  0.37115  0.39252  0.91143  1.0000
  H   H616      1.0  0.37155  0.38335  0.85284  1.0000
  H   H617      1.0  0.37442  0.40051  0.82300  1.0000
  H   H618      1.0  0.39933  0.38284  0.83798  1.0000
  H   H619      1.0  0.40642  0.40249  0.81276  1.0000
  H   H620      1.0  0.39563  0.39233  0.93843  1.0000
  H   H621      1.0  0.39222  0.37981  0.89735  1.0000
  H   H622      1.0  0.35340  0.40079  0.86244  1.0000
  H   H623      1.0  0.36149  0.42182  0.88559  1.0000
  H   H624      1.0  0.42058  0.43295  0.83733  1.0000
  H   H625      1.0  0.40266  0.42669  0.80439  1.0000
  H   H626      1.0  0.45917  0.30408  0.15781  1.0000
  C   C373      1.0  0.28627  0.46102  0.48055  1.0000
  H   H627      1.0  0.40206  0.45578  0.81346  1.0000
  H   H628      1.0  0.37400  0.36770  0.79478  1.0000
  H   H629      1.0  0.38140  0.38763  0.76893  1.0000
  H   H630      1.0  0.39503  0.37602  0.77329  1.0000
  H   H631      1.0  0.42419  0.38756  0.89506  1.0000
  H   H632      1.0  0.42837  0.40178  0.93451  1.0000
  H   H633      1.0  0.41560  0.37836  0.93796  1.0000
  H   H634      1.0  0.33268  0.40251  0.90765  1.0000
  H   H635      1.0  0.33986  0.38573  0.91845  1.0000
  H   H636      1.0  0.34899  0.40664  0.94297  1.0000
  N   N22       1.0  0.42949  0.40999  0.16623  1.0000
  H   H637      1.0  0.42329  0.40331  0.24284  1.0000
  H   H638      1.0  0.44713  0.30230  0.25630  1.0000
  C   C374      1.0  0.47108  0.31966  0.48732  1.0000
  H   H639      1.0  0.30753  0.40985  0.65296  1.0000
  H   H640      1.0  0.44980  0.40404  0.14334  1.0000
  H   H641      1.0  0.36104  0.48420  0.66096  1.0000
  C   C375      1.0  0.30560  0.46895  0.67148  1.0000
  C   C376      1.0  0.46149  0.28913  0.46655  1.0000
  H   H642      1.0  0.47722  0.41116  0.31946  1.0000
  C   C377      1.0  0.40215  0.45948  0.42312  1.0000
  C   C378      1.0  0.41673  0.37750  0.14254  1.0000
  H   H643      1.0  0.47371  0.28345  0.16477  1.0000
  C   C379      1.0  0.28701  0.48552  0.51624  1.0000
  H   H644      1.0  0.44503  0.37277  0.53842  1.0000
  H   H645      1.0  0.46976  0.32538  0.98341  1.0000
  H   H646      1.0  0.41941  0.34291  0.59528  1.0000
  H   H647      1.0  0.41341  0.38115  0.11592  1.0000
  H   H648      1.0  0.41997  0.29522  0.44416  1.0000
  C   C380      1.0  0.44824  0.41215  0.16552  1.0000
  H   H649      1.0  0.32485  0.45062  0.78238  1.0000
  C   C381      1.0  0.43557  0.31769  0.14367  1.0000
  H   H650      1.0  0.42023  0.46213  0.84571  1.0000
  H   H651      1.0  0.47350  0.33375  0.14643  1.0000
  H   H652      1.0  0.29645  0.48156  0.41097  1.0000
  H   H653      1.0  0.46654  0.47316  0.45119  1.0000
  H   H654      1.0  0.44428  0.33362  0.60482  1.0000
  C   C382      1.0  0.44230  0.34573  0.53794  1.0000
  H   H655      1.0  0.47484  0.33135  0.24462  1.0000
  H   H656      1.0  0.30494  0.45099  0.79830  1.0000
  H   H657      1.0  0.38945  0.35884  0.15063  1.0000
  H   H658      1.0  0.29527  0.45678  0.68245  1.0000
  H   H659      1.0  0.42507  0.45122  0.08401  1.0000
  H   H660      1.0  0.43078  0.41125  0.10793  1.0000
  H   H661      1.0  0.48293  0.42816  0.19245  1.0000
  C   C383      1.0  0.44896  0.36433  0.55568  1.0000
  H   H662      1.0  0.45425  0.46485  0.55667  1.0000
  H   H663      1.0  0.23876  0.46199  0.11312  1.0000
  H   H664      1.0  0.41235  0.31800  0.47146  1.0000
  C   C384      1.0  0.42491  0.32332  0.64545  1.0000
  H   H665      1.0  0.33755  0.46592  0.72563  1.0000
  H   H666      1.0  0.44496  0.34807  0.50888  1.0000
  C   C385      1.0  0.46102  0.44766  0.42828  1.0000
  C   C386      1.0  0.26809  0.44261  0.05047  1.0000
  H   H667      1.0  0.24970  0.42203  0.01423  1.0000
  C   C387      1.0  0.31093  0.45932  0.74314  1.0000
  H   H668      1.0  0.27848  0.46679  0.59728  1.0000
  C   C388      1.0  0.27740  0.48467  0.13880  1.0000
  S   S96       1.0  0.47377  0.34186  0.48193  1.0000
  H   H669      1.0  0.34043  0.45726  0.66732  1.0000
  C   C389      1.0  0.41102  0.33922  0.52317  1.0000
  H   H670      1.0  0.37581  0.45119  0.44434  1.0000
  H   H671      1.0  0.29501  0.46261  0.14442  1.0000
  C   C390      1.0  0.45387  0.32123  0.29986  1.0000
  H   H672      1.0  0.30171  0.45814  0.61583  1.0000
  H   H673      1.0  0.46157  0.43519  0.13221  1.0000
  H   H674      1.0  0.27142  0.43428  0.99675  1.0000
  C   C391      1.0  0.28757  0.44947  0.13126  1.0000
  C   C392      1.0  0.43012  0.32437  0.60606  1.0000
  H   H675      1.0  0.38155  0.34656  0.51083  1.0000
  H   H676      1.0  0.30029  0.43442  0.66723  1.0000
  C   C393      1.0  0.41865  0.33064  0.58232  1.0000
  C   C394      1.0  0.40549  0.35242  0.54286  1.0000
  H   H677      1.0  0.43497  0.31559  0.25679  1.0000
  C   C395      1.0  0.42185  0.31429  0.48595  1.0000
  H   H678      1.0  0.45224  0.47989  0.50189  1.0000
  C   C396      1.0  0.32098  0.47940  0.41066  1.0000
  H   H679      1.0  0.46615  0.27811  0.21030  1.0000
  H   H680      1.0  0.32442  0.47140  0.79400  1.0000
  H   H681      1.0  0.30915  0.48172  0.61883  1.0000
  Fe  Fe52      1.0  0.47831  0.25014  0.54271  1.0000
  H   H682      1.0  0.44929  0.29559  0.19904  1.0000
  H   H683      1.0  0.47410  0.44856  0.43694  1.0000
  H   H684      1.0  0.33613  0.48798  0.63580  1.0000
  H   H685      1.0  0.27229  0.45384  0.63717  1.0000
  H   H686      1.0  0.43903  0.47300  0.57433  1.0000
  C   C397      1.0  0.44820  0.31581  0.26061  1.0000
  S   S97       1.0  0.48325  0.37193  0.08554  1.0000
  H   H687      1.0  0.46081  0.34185  0.23890  1.0000
  H   H688      1.0  0.40287  0.47231  0.41404  1.0000
  C   C398      1.0  0.46906  0.37311  0.55939  1.0000
  S   S98       1.0  0.26564  0.48312  0.00384  1.0000
  C   C399      1.0  0.47177  0.33882  0.17326  1.0000
  H   H689      1.0  0.46177  0.45169  0.39983  1.0000
  H   H690      1.0  0.47516  0.37292  0.53323  1.0000
  S   S99       1.0  0.47455  0.36637  0.38696  1.0000
  H   H691      1.0  0.30396  0.47998  0.68536  1.0000
  H   H692      1.0  0.39381  0.48323  0.74684  1.0000
  H   H693      1.0  0.46530  0.42267  0.30100  1.0000
  H   H694      1.0  0.47514  0.44750  0.03592  1.0000
  H   H695      1.0  0.27983  0.47756  0.64022  1.0000
  H   H696      1.0  0.48000  0.29481  0.55027  1.0000
  Fe  Fe53      1.0  0.48137  0.39418  0.40538  1.0000
  C   C400      1.0  0.43699  0.48796  0.44241  1.0000
  H   H697      1.0  0.48329  0.32530  0.54026  1.0000
  H   H698      1.0  0.33497  0.48696  0.41945  1.0000
  H   H699      1.0  0.26431  0.48432  0.31348  1.0000
  H   H700      1.0  0.48479  0.44529  0.99396  1.0000
  H   H701      1.0  0.48474  0.39092  0.25008  1.0000
  C   C401      1.0  0.31040  0.48990  0.41892  1.0000
  H   H702      1.0  0.48532  0.43257  0.03202  1.0000
  C   C402      1.0  0.26630  0.48908  0.34194  1.0000
  H   H703      1.0  0.31899  0.50446  0.37039  1.0000
  H   H704      1.0  0.25611  0.66650  0.60930  1.0000
  S   S100      1.0  0.25172  0.51229  0.42770  1.0000
  S   S101      1.0  0.25891  0.51173  0.08724  1.0000
  Fe  Fe54      1.0  0.24606  0.52740  0.06093  1.0000
  S   S102      1.0  0.26171  0.55720  0.06127  1.0000
  H   H705      1.0  0.29284  0.73727  0.57082  1.0000
  C   C403      1.0  0.26072  0.57759  0.51163  1.0000
  C   C404      1.0  0.25889  0.56257  0.49176  1.0000
  H   H706      1.0  0.25070  0.57669  0.53046  1.0000
  C   C405      1.0  0.28864  0.50859  0.38861  1.0000
  C   C406      1.0  0.26160  0.56075  0.98751  1.0000
  H   H707      1.0  0.25053  0.54789  0.98640  1.0000
  H   H708      1.0  0.26194  0.56387  0.93002  1.0000
  H   H709      1.0  0.25816  0.49638  0.34648  1.0000
  C   C407      1.0  0.28579  0.50106  0.34964  1.0000
  H   H710      1.0  0.23610  0.51846  0.19996  1.0000
  H   H711      1.0  0.24837  0.59340  0.10799  1.0000
  H   H712      1.0  0.30560  0.49851  0.12942  1.0000
  C   C408      1.0  0.47764  0.60441  0.70440  1.0000
  C   C409      1.0  0.26086  0.51399  0.92527  1.0000
  H   H713      1.0  0.31975  0.52601  0.45582  1.0000
  H   H714      1.0  0.31146  0.54999  0.44769  1.0000
  C   C410      1.0  0.48105  0.50667  0.60742  1.0000
  H   H715      1.0  0.41135  0.51632  0.74931  1.0000
  S   S103      1.0  0.42430  0.72671  0.43494  1.0000
  H   H716      1.0  0.48433  0.60439  0.76019  1.0000
  C   C411      1.0  0.25769  0.62568  0.99614  1.0000
  Fe  Fe55      1.0  0.24963  0.72222  0.43864  1.0000
  H   H717      1.0  0.35070  0.52651  0.92732  1.0000
  C   C412      1.0  0.24906  0.61956  0.05983  1.0000
  C   C413      1.0  0.30063  0.53676  0.45216  1.0000
  H   H718      1.0  0.24441  0.51808  0.61162  1.0000
  H   H719      1.0  0.28379  0.52366  0.49671  1.0000
  H   H720      1.0  0.33847  0.53419  0.35497  1.0000
  H   H721      1.0  0.25605  0.64381  0.55506  1.0000
  H   H722      1.0  0.24346  0.61830  0.98858  1.0000
  H   H723      1.0  0.43069  0.49580  0.45548  1.0000
  H   H724      1.0  0.34026  0.56444  0.34677  1.0000
  H   H725      1.0  0.25559  0.70330  0.50618  1.0000
  H   H726      1.0  0.43785  0.70106  0.63542  1.0000
  C   C414      1.0  0.23935  0.58864  0.08409  1.0000
  Fe  Fe56      1.0  0.25704  0.72249  0.06612  1.0000
  H   H727      1.0  0.33889  0.55298  0.30464  1.0000
  H   H728      1.0  0.26545  0.51193  0.89851  1.0000
  H   H729      1.0  0.46367  0.50207  0.46755  1.0000
  H   H730      1.0  0.45433  0.69995  0.81053  1.0000
  C   C415      1.0  0.46049  0.51797  0.42640  1.0000
  H   H731      1.0  0.27191  0.62055  0.93087  1.0000
  C   C416      1.0  0.25217  0.63347  0.53352  1.0000
  S   S104      1.0  0.41422  0.50456  0.51953  1.0000
  C   C417      1.0  0.42902  0.70744  0.62905  1.0000
  C   C418      1.0  0.25182  0.64698  0.03219  1.0000
  H   H732      1.0  0.25040  0.62013  0.92323  1.0000
  H   H733      1.0  0.25995  0.60029  0.04641  1.0000
  H   H734      1.0  0.45371  0.73182  0.88181  1.0000
  H   H735      1.0  0.31134  0.49236  0.44842  1.0000
  H   H736      1.0  0.32480  0.71300  0.54265  1.0000
  C   C419      1.0  0.31672  0.53581  0.38417  1.0000
  C   C420      1.0  0.25231  0.51985  0.58710  1.0000
  H   H737      1.0  0.25438  0.50779  0.58240  1.0000
  H   H738      1.0  0.46317  0.49388  0.42204  1.0000
  H   H739      1.0  0.28914  0.53562  0.43564  1.0000
  C   C421      1.0  0.42725  0.73104  0.92453  1.0000
  H   H740      1.0  0.47356  0.60540  0.03085  1.0000
  H   H741      1.0  0.24480  0.52138  0.56359  1.0000
  H   H742      1.0  0.45850  0.68415  0.97627  1.0000
  S   S105      1.0  0.27701  0.71090  0.06681  1.0000
  Fe  Fe57      1.0  0.31263  0.66387  0.92369  1.0000
  S   S106      1.0  0.30403  0.64435  0.87728  1.0000
  S   S107      1.0  0.29617  0.67936  0.92687  1.0000
  Fe  Fe58      1.0  0.34371  0.65552  0.94271  1.0000
  S   S108      1.0  0.33730  0.63556  0.89734  1.0000
  S   S109      1.0  0.36703  0.65801  0.97790  1.0000
  Fe  Fe59      1.0  0.33254  0.65524  0.86395  1.0000
  S   S110      1.0  0.34335  0.66531  0.80899  1.0000
  Fe  Fe60      1.0  0.30931  0.62636  0.91491  1.0000
  S   S111      1.0  0.29009  0.59739  0.91570  1.0000
  S   S112      1.0  0.34107  0.67603  0.90815  1.0000
  S   S113      1.0  0.31584  0.64500  0.96242  1.0000
  N   N23       1.0  0.30655  0.54208  0.97318  1.0000
  H   H743      1.0  0.29935  0.69339  0.05644  1.0000
  H   H744      1.0  0.26316  0.61578  0.99507  1.0000
  S   S114      1.0  0.46067  0.72330  0.09194  1.0000
  H   H745      1.0  0.30129  0.56307  0.95099  1.0000
  H   H746      1.0  0.28869  0.51476  0.96260  1.0000
  H   H747      1.0  0.27748  0.73333  0.53336  1.0000
  S   S115      1.0  0.46659  0.71852  0.42199  1.0000
  Fe  Fe61      1.0  0.31478  0.63494  0.52622  1.0000
  S   S116      1.0  0.32574  0.66402  0.51553  1.0000
  S   S117      1.0  0.30796  0.61465  0.48080  1.0000
  Fe  Fe62      1.0  0.31933  0.64058  0.60822  1.0000
  S   S118      1.0  0.33059  0.66994  0.60403  1.0000
  S   S119      1.0  0.31524  0.62480  0.65919  1.0000
  Fe  Fe63      1.0  0.30918  0.66464  0.56215  1.0000
  S   S120      1.0  0.29115  0.67824  0.56743  1.0000
  Fe  Fe64      1.0  0.34620  0.66680  0.55806  1.0000
  S   S121      1.0  0.37595  0.68183  0.56026  1.0000
  S   S122      1.0  0.29673  0.63534  0.56960  1.0000
  S   S123      1.0  0.33639  0.63769  0.56525  1.0000
  S   S124      1.0  0.26682  0.70777  0.43209  1.0000
  C   C422      1.0  0.26560  0.60383  0.41523  1.0000
  S   S125      1.0  0.46930  0.57463  0.98673  1.0000
  H   H748      1.0  0.28964  0.51195  0.33034  1.0000
  S   S126      1.0  0.46251  0.57109  0.61601  1.0000
  C   C423      1.0  0.31239  0.55925  0.95367  1.0000
  H   H749      1.0  0.36465  0.62933  0.60301  1.0000
  H   H750      1.0  0.32230  0.59495  0.94182  1.0000
  H   H751      1.0  0.35904  0.49245  0.70449  1.0000
  C   C424      1.0  0.46192  0.53608  0.68124  1.0000
  C   C425      1.0  0.42740  0.52314  0.54634  1.0000
  C   C426      1.0  0.42306  0.52488  0.58184  1.0000
  C   C427      1.0  0.43374  0.53986  0.60267  1.0000
  C   C428      1.0  0.44901  0.55299  0.58839  1.0000
  C   C429      1.0  0.45344  0.55118  0.55299  1.0000
  C   C430      1.0  0.44255  0.53635  0.53191  1.0000
  H   H752      1.0  0.43026  0.54119  0.63005  1.0000
  H   H753      1.0  0.46513  0.56129  0.54173  1.0000
  H   H754      1.0  0.44579  0.53518  0.50430  1.0000
  H   H755      1.0  0.34758  0.61597  0.63284  1.0000
  C   C431      1.0  0.42807  0.53210  0.91421  1.0000
  C   C432      1.0  0.42586  0.53200  0.95138  1.0000
  C   C433      1.0  0.43873  0.54497  0.97359  1.0000
  C   C434      1.0  0.45387  0.55799  0.95872  1.0000
  C   C435      1.0  0.45622  0.55795  0.92162  1.0000
  C   C436      1.0  0.44330  0.54505  0.89948  1.0000
  H   H756      1.0  0.41412  0.52210  0.96295  1.0000
  H   H757      1.0  0.43688  0.54497  0.00230  1.0000
  H   H758      1.0  0.46791  0.56790  0.91003  1.0000
  H   H759      1.0  0.44514  0.54496  0.87094  1.0000
  C   C437      1.0  0.28878  0.59483  0.48431  1.0000
  C   C438      1.0  0.27557  0.59367  0.50781  1.0000
  C   C439      1.0  0.27172  0.56388  0.46699  1.0000
  C   C440      1.0  0.28665  0.58001  0.46328  1.0000
  H   H760      1.0  0.27687  0.60512  0.52335  1.0000
  H   H761      1.0  0.27026  0.55240  0.45123  1.0000
  H   H762      1.0  0.29671  0.58092  0.44455  1.0000
  C   C441      1.0  0.28449  0.68626  0.52945  1.0000
  C   C442      1.0  0.29211  0.68696  0.49604  1.0000
  C   C443      1.0  0.28655  0.69357  0.46632  1.0000
  C   C444      1.0  0.27334  0.69946  0.46985  1.0000
  C   C445      1.0  0.26574  0.69876  0.50326  1.0000
  C   C446      1.0  0.27135  0.69222  0.53301  1.0000
  H   H763      1.0  0.30244  0.68265  0.49324  1.0000
  H   H764      1.0  0.29259  0.69426  0.44055  1.0000
  H   H765      1.0  0.26558  0.69189  0.55893  1.0000
  H   H766      1.0  0.28185  0.51735  0.38939  1.0000
  C   C447      1.0  0.41084  0.71378  0.46926  1.0000
  C   C448      1.0  0.39244  0.70757  0.46616  1.0000
  C   C449      1.0  0.38147  0.69740  0.49343  1.0000
  C   C450      1.0  0.38889  0.69350  0.52404  1.0000
  C   C451      1.0  0.40724  0.69949  0.52674  1.0000
  C   C452      1.0  0.41818  0.70955  0.49948  1.0000
  H   H767      1.0  0.38668  0.71075  0.44274  1.0000
  H   H768      1.0  0.36735  0.69285  0.49105  1.0000
  H   H769      1.0  0.41308  0.69632  0.54996  1.0000
  H   H770      1.0  0.43231  0.71412  0.50198  1.0000
  H   H771      1.0  0.26535  0.70833  0.99201  1.0000
  C   C453      1.0  0.33343  0.59147  0.94725  1.0000
  H   H772      1.0  0.26956  0.53187  0.97059  1.0000
  C   C454      1.0  0.28219  0.58668  0.95657  1.0000
  C   C455      1.0  0.28994  0.59434  0.98976  1.0000
  C   C456      1.0  0.28346  0.58524  0.02172  1.0000
  C   C457      1.0  0.26933  0.56837  0.02070  1.0000
  C   C458      1.0  0.26802  0.56986  0.95560  1.0000
  H   H773      1.0  0.30108  0.60715  0.99074  1.0000
  H   H774      1.0  0.28955  0.59122  0.04731  1.0000
  C   C459      1.0  0.33374  0.65363  0.76850  1.0000
  C   C460      1.0  0.32599  0.63520  0.76631  1.0000
  C   C461      1.0  0.32014  0.62644  0.73272  1.0000
  C   C462      1.0  0.32170  0.63603  0.70131  1.0000
  C   C463      1.0  0.32882  0.65441  0.70383  1.0000
  C   C464      1.0  0.33513  0.66317  0.73712  1.0000
  H   H775      1.0  0.32493  0.62773  0.79033  1.0000
  H   H776      1.0  0.31452  0.61220  0.73110  1.0000
  H   H777      1.0  0.32954  0.66188  0.68009  1.0000
  H   H778      1.0  0.34095  0.67742  0.73868  1.0000
  C   C465      1.0  0.38312  0.67881  0.99277  1.0000
  C   C466      1.0  0.38077  0.69412  0.98780  1.0000
  C   C467      1.0  0.39396  0.71055  0.99940  1.0000
  C   C468      1.0  0.40971  0.71184  0.01549  1.0000
  C   C469      1.0  0.41209  0.69654  0.02052  1.0000
  C   C470      1.0  0.39877  0.68005  0.00936  1.0000
  H   H779      1.0  0.36875  0.69329  0.97516  1.0000
  H   H780      1.0  0.39205  0.72235  0.99546  1.0000
  H   H781      1.0  0.42417  0.69741  0.03293  1.0000
  H   H782      1.0  0.40063  0.66823  0.01335  1.0000
  C   C471      1.0  0.28192  0.70185  0.02783  1.0000
  C   C472      1.0  0.29372  0.69407  0.03050  1.0000
  C   C473      1.0  0.29842  0.68731  0.99972  1.0000
  C   C474      1.0  0.29102  0.68793  0.96620  1.0000
  C   C475      1.0  0.27907  0.69553  0.96362  1.0000
  C   C476      1.0  0.27454  0.70248  0.99431  1.0000
  H   H783      1.0  0.30778  0.68166  0.00183  1.0000
  H   H784      1.0  0.27331  0.69604  0.93770  1.0000
  H   H785      1.0  0.26233  0.60716  0.59990  1.0000
  H   H786      1.0  0.46646  0.67964  0.29107  1.0000
  H   H787      1.0  0.29000  0.63349  0.45432  1.0000
  H   H788      1.0  0.33233  0.54628  0.99465  1.0000
  H   H789      1.0  0.26538  0.65113  0.39117  1.0000
  H   H790      1.0  0.31774  0.73241  0.01527  1.0000
  H   H791      1.0  0.29209  0.73602  0.48534  1.0000
  H   H792      1.0  0.29803  0.49824  0.04974  1.0000
  C   C477      1.0  0.30040  0.49153  0.02691  1.0000
  C   C478      1.0  0.41610  0.52743  0.76928  1.0000
  H   H793      1.0  0.31298  0.55811  0.09792  1.0000
  H   H794      1.0  0.43171  0.62212  0.02905  1.0000
  H   H795      1.0  0.30673  0.53680  0.50949  1.0000
  H   H796      1.0  0.28093  0.49755  0.40655  1.0000
  H   H797      1.0  0.37025  0.62098  0.64356  1.0000
  H   H798      1.0  0.32018  0.64652  0.42802  1.0000
  C   C479      1.0  0.40047  0.69931  0.88456  1.0000
  H   H799      1.0  0.43068  0.68706  0.96165  1.0000
  H   H800      1.0  0.25945  0.59705  0.44016  1.0000
  H   H801      1.0  0.26401  0.62332  0.37918  1.0000
  H   H802      1.0  0.32322  0.57920  0.99685  1.0000
  C   C480      1.0  0.27849  0.64326  0.04593  1.0000
  C   C481      1.0  0.28923  0.63227  0.04749  1.0000
  C   C482      1.0  0.26643  0.63866  0.96550  1.0000
  C   C483      1.0  0.32129  0.53649  0.97821  1.0000
  H   H803      1.0  0.24871  0.51598  0.92137  1.0000
  H   H804      1.0  0.29693  0.52711  0.92310  1.0000
  C   C484      1.0  0.30841  0.64382  0.05870  1.0000
  C   C485      1.0  0.26447  0.62872  0.92979  1.0000
  C   C486      1.0  0.29891  0.54332  0.00921  1.0000
  H   H805      1.0  0.46724  0.53289  0.70622  1.0000
  H   H806      1.0  0.31590  0.55771  0.92555  1.0000
  H   H807      1.0  0.31646  0.52413  0.99378  1.0000
  H   H808      1.0  0.24328  0.61975  0.46594  1.0000
  H   H809      1.0  0.26361  0.73235  0.59132  1.0000
  H   H810      1.0  0.28559  0.65476  0.02884  1.0000
  H   H811      1.0  0.27937  0.64892  0.07349  1.0000
  H   H812      1.0  0.28924  0.62617  0.02095  1.0000
  H   H813      1.0  0.28384  0.62190  0.06784  1.0000
  C   C487      1.0  0.25782  0.62735  0.46913  1.0000
  H   H814      1.0  0.28068  0.64656  0.97122  1.0000
  H   H815      1.0  0.32670  0.49636  0.04504  1.0000
  H   H816      1.0  0.23827  0.59458  0.02855  1.0000
  C   C488      1.0  0.34545  0.52952  0.95243  1.0000
  C   C489      1.0  0.43460  0.54085  0.75977  1.0000
  H   H817      1.0  0.29391  0.63536  0.38648  1.0000
  H   H818      1.0  0.31809  0.52495  0.32993  1.0000
  H   H819      1.0  0.25969  0.65815  0.01470  1.0000
  H   H820      1.0  0.31602  0.63580  0.05811  1.0000
  H   H821      1.0  0.31456  0.65490  0.04001  1.0000
  H   H822      1.0  0.30923  0.64927  0.08641  1.0000
  H   H823      1.0  0.37724  0.67065  0.78577  1.0000
  H   H824      1.0  0.26252  0.61781  0.47987  1.0000
  H   H825      1.0  0.26388  0.57926  0.39217  1.0000
  H   H826      1.0  0.36635  0.51335  0.63461  1.0000
  Fe  Fe65      1.0  0.45384  0.73584  0.43998  1.0000
  C   C490      1.0  0.27499  0.53013  0.94473  1.0000
  C   C491      1.0  0.26191  0.64158  0.49932  1.0000
  C   C492      1.0  0.31641  0.65571  0.41275  1.0000
  H   H827      1.0  0.33153  0.51544  0.40911  1.0000
  C   C493      1.0  0.29224  0.52790  0.95055  1.0000
  H   H828      1.0  0.25573  0.62288  0.54285  1.0000
  H   H829      1.0  0.32395  0.65903  0.38754  1.0000
  H   H830      1.0  0.24340  0.66025  0.64982  1.0000
  H   H831      1.0  0.45032  0.71369  0.29737  1.0000
  C   C494      1.0  0.44326  0.69594  0.94925  1.0000
  H   H832      1.0  0.32009  0.66804  0.42898  1.0000
  H   H833      1.0  0.27619  0.64776  0.50640  1.0000
  H   H834      1.0  0.41937  0.72870  0.29083  1.0000
  H   H835      1.0  0.43180  0.71861  0.64825  1.0000
  H   H836      1.0  0.40836  0.69684  0.93894  1.0000
  Fe  Fe66      1.0  0.48517  0.73037  0.46936  1.0000
  C   C495      1.0  0.31743  0.73320  0.52323  1.0000
  H   H837      1.0  0.37865  0.67720  0.90812  1.0000
  H   H838      1.0  0.47311  0.64165  0.04289  1.0000
  H   H839      1.0  0.45919  0.51262  0.65324  1.0000
  C   C496      1.0  0.36825  0.51188  0.66379  1.0000
  H   H840      1.0  0.31979  0.52115  0.92868  1.0000
  H   H841      1.0  0.33938  0.57301  0.97691  1.0000
  H   H842      1.0  0.43707  0.66923  0.03501  1.0000
  C   C497      1.0  0.45826  0.69720  0.97457  1.0000
  H   H843      1.0  0.42362  0.57008  0.97851  1.0000
  N   N24       1.0  0.46010  0.57046  0.78174  1.0000
  C   C498      1.0  0.47285  0.56219  0.78088  1.0000
  C   C499      1.0  0.46086  0.57941  0.74650  1.0000
  H   H844      1.0  0.29754  0.50990  0.45597  1.0000
  C   C500      1.0  0.44144  0.55681  0.78666  1.0000
  H   H845      1.0  0.46632  0.64744  0.88358  1.0000
  C   C501      1.0  0.32886  0.72735  0.54697  1.0000
  H   H846      1.0  0.47982  0.50128  0.66585  1.0000
  H   H847      1.0  0.45765  0.56978  0.72362  1.0000
  H   H848      1.0  0.47584  0.61608  0.84875  1.0000
  H   H849      1.0  0.30666  0.73536  0.43618  1.0000
  H   H850      1.0  0.46255  0.57632  0.83896  1.0000
  H   H851      1.0  0.43970  0.55162  0.81434  1.0000
  H   H852      1.0  0.43208  0.56293  0.78424  1.0000
  H   H853      1.0  0.47952  0.61601  0.09443  1.0000
  H   H854      1.0  0.45923  0.53930  0.81557  1.0000
  H   H855      1.0  0.44134  0.58805  0.81510  1.0000
  Fe  Fe67      1.0  0.48448  0.72855  0.05768  1.0000
  H   H856      1.0  0.31957  0.72272  0.07856  1.0000
  H   H857      1.0  0.45769  0.65947  0.00607  1.0000
  H   H858      1.0  0.24523  0.58367  0.38138  1.0000
  H   H859      1.0  0.29257  0.50893  0.11049  1.0000
  H   H860      1.0  0.47558  0.55842  0.83884  1.0000
  C   C502      1.0  0.24072  0.64290  0.41816  1.0000
  N   N25       1.0  0.28432  0.56985  0.60327  1.0000
  C   C503      1.0  0.26769  0.55305  0.59727  1.0000
  C   C504      1.0  0.27999  0.58557  0.60453  1.0000
  C   C505      1.0  0.29602  0.57168  0.57161  1.0000
  C   C506      1.0  0.29436  0.56935  0.63690  1.0000
  C   C507      1.0  0.28492  0.56780  0.67290  1.0000
  C   C508      1.0  0.27012  0.53589  0.59155  1.0000
  C   C509      1.0  0.31198  0.58991  0.56746  1.0000
  C   C510      1.0  0.26212  0.58295  0.62074  1.0000
  C   C511      1.0  0.26117  0.60059  0.62606  1.0000
  C   C512      1.0  0.29579  0.56565  0.70419  1.0000
  H   H861      1.0  0.40034  0.66202  0.40322  1.0000
  C   C513      1.0  0.32417  0.58904  0.53819  1.0000
  H   H862      1.0  0.26035  0.55435  0.57309  1.0000
  H   H863      1.0  0.25856  0.55070  0.61984  1.0000
  H   H864      1.0  0.29076  0.59691  0.61866  1.0000
  H   H865      1.0  0.27945  0.59022  0.57709  1.0000
  H   H866      1.0  0.28817  0.56884  0.54593  1.0000
  H   H867      1.0  0.30150  0.56175  0.57285  1.0000
  H   H868      1.0  0.29867  0.55859  0.63488  1.0000
  H   H869      1.0  0.30678  0.58163  0.63992  1.0000
  H   H870      1.0  0.27184  0.55633  0.67263  1.0000
  H   H871      1.0  0.28343  0.58010  0.67862  1.0000
  H   H872      1.0  0.27749  0.53647  0.56672  1.0000
  H   H873      1.0  0.27720  0.53357  0.61479  1.0000
  H   H874      1.0  0.31996  0.59462  0.59262  1.0000
  H   H875      1.0  0.30743  0.59999  0.55959  1.0000
  H   H876      1.0  0.25111  0.57466  0.60209  1.0000
  H   H877      1.0  0.25977  0.57638  0.64693  1.0000
  N   N26       1.0  0.30739  0.51838  0.40265  1.0000
  H   H878      1.0  0.27190  0.60940  0.64473  1.0000
  H   H879      1.0  0.29757  0.55337  0.70060  1.0000
  H   H880      1.0  0.30891  0.57715  0.70628  1.0000
  H   H881      1.0  0.28888  0.56491  0.72977  1.0000
  H   H882      1.0  0.38231  0.51482  0.66892  1.0000
  C   C514      1.0  0.44362  0.71437  0.94351  1.0000
  H   H883      1.0  0.33492  0.60238  0.53429  1.0000
  H   H884      1.0  0.33016  0.58006  0.54594  1.0000
  H   H885      1.0  0.31681  0.58435  0.51221  1.0000
  N   N27       1.0  0.42731  0.70272  0.33098  1.0000
  C   C515      1.0  0.44580  0.70568  0.32176  1.0000
  H   H886      1.0  0.45492  0.52483  0.44453  1.0000
  C   C516      1.0  0.42227  0.69177  0.36447  1.0000
  C   C517      1.0  0.41401  0.69329  0.30115  1.0000
  C   C518      1.0  0.42047  0.69702  0.26183  1.0000
  C   C519      1.0  0.44869  0.68872  0.31658  1.0000
  C   C520      1.0  0.40332  0.68651  0.37825  1.0000
  H   H887      1.0  0.30168  0.56656  0.06760  1.0000
  C   C521      1.0  0.38486  0.68115  0.88159  1.0000
  C   C522      1.0  0.40504  0.68916  0.23480  1.0000
  C   C523      1.0  0.25981  0.61865  0.40682  1.0000
  S   S127      1.0  0.24102  0.54235  0.50068  1.0000
  C   C524      1.0  0.45102  0.71034  0.82240  1.0000
  H   H888      1.0  0.28839  0.53023  0.01658  1.0000
  H   H889      1.0  0.41474  0.71875  0.35149  1.0000
  H   H890      1.0  0.43170  0.69873  0.38705  1.0000
  H   H891      1.0  0.42319  0.67909  0.36005  1.0000
  H   H892      1.0  0.40882  0.67874  0.30384  1.0000
  H   H893      1.0  0.40233  0.69620  0.30380  1.0000
  H   H894      1.0  0.42960  0.69100  0.25586  1.0000
  H   H895      1.0  0.40595  0.70270  0.85736  1.0000
  H   H896      1.0  0.45066  0.68396  0.34328  1.0000
  H   H897      1.0  0.43719  0.67797  0.30298  1.0000
  H   H898      1.0  0.39324  0.67928  0.35710  1.0000
  H   H899      1.0  0.40132  0.69812  0.38715  1.0000
  H   H900      1.0  0.34174  0.51802  0.97023  1.0000
  C   C525      1.0  0.24429  0.65619  0.62165  1.0000
  N   N28       1.0  0.45507  0.62466  0.00155  1.0000
  C   C526      1.0  0.42906  0.59758  0.97036  1.0000
  H   H901      1.0  0.26602  0.59563  0.35943  1.0000
  H   H902      1.0  0.39779  0.67469  0.23808  1.0000
  H   H903      1.0  0.39584  0.69537  0.23837  1.0000
  H   H904      1.0  0.41007  0.69163  0.20701  1.0000
  H   H905      1.0  0.45266  0.65148  0.05095  1.0000
  H   H906      1.0  0.35604  0.54123  0.96593  1.0000
  H   H907      1.0  0.45751  0.72398  0.93922  1.0000
  Fe  Fe68      1.0  0.39111  0.49210  0.90939  1.0000
  H   H908      1.0  0.38640  0.67152  0.42095  1.0000
  H   H909      1.0  0.29689  0.51017  0.15826  1.0000
  C   C527      1.0  0.31775  0.50758  0.39895  1.0000
  H   H910      1.0  0.45644  0.70144  0.00203  1.0000
  H   H911      1.0  0.28010  0.60903  0.41848  1.0000
  H   H912      1.0  0.33574  0.72140  0.04890  1.0000
  H   H913      1.0  0.43385  0.54517  0.73201  1.0000
  H   H914      1.0  0.33379  0.54448  0.92557  1.0000
  H   H915      1.0  0.42682  0.65535  0.99615  1.0000
  C   C528      1.0  0.45903  0.63504  0.93539  1.0000
  H   H916      1.0  0.26012  0.64772  0.96145  1.0000
  H   H917      1.0  0.29217  0.55218  0.00752  1.0000
  H   H918      1.0  0.45530  0.71378  0.34330  1.0000
  H   H919      1.0  0.48449  0.68603  0.56340  1.0000
  H   H920      1.0  0.47491  0.52619  0.42489  1.0000
  H   H921      1.0  0.28172  0.49483  0.52285  1.0000
  H   H922      1.0  0.36516  0.52154  0.67933  1.0000
  S   S128      1.0  0.23818  0.51059  0.01073  1.0000
  C   C529      1.0  0.44730  0.65006  0.02301  1.0000
  H   H923      1.0  0.45813  0.59942  0.87309  1.0000
  H   H924      1.0  0.45442  0.61612  0.84928  1.0000
  N   N29       1.0  0.38615  0.67369  0.67441  1.0000
  C   C530      1.0  0.40512  0.68639  0.66863  1.0000
  C   C531      1.0  0.38369  0.66713  0.71269  1.0000
  C   C532      1.0  0.38178  0.65799  0.64929  1.0000
  C   C533      1.0  0.37369  0.68174  0.66548  1.0000
  C   C534      1.0  0.37643  0.69863  0.68694  1.0000
  C   C535      1.0  0.40970  0.69408  0.63048  1.0000
  C   C536      1.0  0.36304  0.64272  0.65259  1.0000
  C   C537      1.0  0.39599  0.67974  0.74255  1.0000
  C   C538      1.0  0.39069  0.67214  0.77987  1.0000
  C   C539      1.0  0.36384  0.70610  0.67313  1.0000
  N   N30       1.0  0.26604  0.63398  0.43340  1.0000
  C   C540      1.0  0.36136  0.62627  0.63166  1.0000
  H   H925      1.0  0.41385  0.67984  0.67491  1.0000
  H   H926      1.0  0.40938  0.69793  0.68736  1.0000
  H   H927      1.0  0.36980  0.66309  0.72092  1.0000
  H   H928      1.0  0.38583  0.65495  0.71459  1.0000
  H   H929      1.0  0.39162  0.65250  0.65311  1.0000
  H   H930      1.0  0.38260  0.66192  0.62071  1.0000
  H   H931      1.0  0.37382  0.68443  0.63631  1.0000
  H   H932      1.0  0.35994  0.67217  0.67023  1.0000
  H   H933      1.0  0.39002  0.70905  0.68454  1.0000
  H   H934      1.0  0.37351  0.69556  0.71566  1.0000
  H   H935      1.0  0.40773  0.68358  0.61016  1.0000
  H   H936      1.0  0.40158  0.70100  0.62258  1.0000
  H   H937      1.0  0.35307  0.64674  0.64120  1.0000
  H   H938      1.0  0.35961  0.63892  0.68084  1.0000
  H   H939      1.0  0.40977  0.68163  0.73871  1.0000
  H   H940      1.0  0.39580  0.69283  0.74238  1.0000
  H   H941      1.0  0.39096  0.65908  0.78170  1.0000
  H   H942      1.0  0.39994  0.68119  0.80056  1.0000
  H   H943      1.0  0.37481  0.68153  0.86232  1.0000
  H   H944      1.0  0.47794  0.66150  0.92137  1.0000
  H   H945      1.0  0.46863  0.61074  0.70890  1.0000
  H   H946      1.0  0.45931  0.52969  0.62481  1.0000
  H   H947      1.0  0.26744  0.66039  0.43478  1.0000
  H   H948      1.0  0.24046  0.67334  0.09059  1.0000
  C   C541      1.0  0.46565  0.52700  0.64872  1.0000
  H   H949      1.0  0.41127  0.57356  0.94192  1.0000
  C   C542      1.0  0.44077  0.72013  0.87873  1.0000
  H   H950      1.0  0.26978  0.63834  0.90795  1.0000
  H   H951      1.0  0.41840  0.59688  0.98848  1.0000
  S   S129      1.0  0.24746  0.73345  0.02025  1.0000
  C   C543      1.0  0.42751  0.72035  0.34054  1.0000
  H   H952      1.0  0.46790  0.55060  0.67802  1.0000
  H   H953      1.0  0.29112  0.54392  0.08139  1.0000
  C   C544      1.0  0.46525  0.58344  0.81312  1.0000
  H   H954      1.0  0.41965  0.73366  0.90251  1.0000
  H   H955      1.0  0.27736  0.54170  0.92793  1.0000
  C   C545      1.0  0.30661  0.52211  0.44239  1.0000
  H   H956      1.0  0.32443  0.56061  0.03664  1.0000
  H   H957      1.0  0.44437  0.68957  0.92386  1.0000
  H   H958      1.0  0.25753  0.50200  0.94143  1.0000
  H   H959      1.0  0.26443  0.66528  0.07785  1.0000
  H   H960      1.0  0.24150  0.65938  0.37272  1.0000
  H   H961      1.0  0.41620  0.52203  0.79638  1.0000
  H   H962      1.0  0.41142  0.51474  0.59319  1.0000
  C   C546      1.0  0.30386  0.55478  0.07420  1.0000
  C   C547      1.0  0.25099  0.65583  0.06866  1.0000
  N   N31       1.0  0.25950  0.63367  0.03351  1.0000
  C   C548      1.0  0.29568  0.53605  0.49169  1.0000
  C   C549      1.0  0.43217  0.65558  0.02374  1.0000
  H   H963      1.0  0.42903  0.60570  0.94729  1.0000
  H   H964      1.0  0.29262  0.54733  0.49847  1.0000
  C   C550      1.0  0.46738  0.63530  0.97283  1.0000
  C   C551      1.0  0.42432  0.57891  0.95605  1.0000
  H   H965      1.0  0.43428  0.57893  0.93673  1.0000
  H   H966      1.0  0.44317  0.53385  0.75996  1.0000
  H   H967      1.0  0.42144  0.64670  0.04094  1.0000
  C   C552      1.0  0.44477  0.70556  0.86081  1.0000
  H   H968      1.0  0.34297  0.73452  0.54017  1.0000
  H   H969      1.0  0.33828  0.58878  0.92131  1.0000
  H   H970      1.0  0.47182  0.52865  0.57337  1.0000
  H   H971      1.0  0.23770  0.62796  0.52876  1.0000
  C   C553      1.0  0.26076  0.64779  0.41912  1.0000
  C   C554      1.0  0.47259  0.64780  0.91024  1.0000
  H   H972      1.0  0.24510  0.64609  0.09000  1.0000
  H   H973      1.0  0.44806  0.63898  0.93697  1.0000
  H   H974      1.0  0.44436  0.59705  0.01607  1.0000
  H   H975      1.0  0.45428  0.62171  0.92279  1.0000
  H   H976      1.0  0.43257  0.62927  0.98445  1.0000
  C   C555      1.0  0.44089  0.63075  0.00878  1.0000
  H   H977      1.0  0.47281  0.59524  0.68075  1.0000
  H   H978      1.0  0.45676  0.62143  0.05891  1.0000
  C   C556      1.0  0.32766  0.57549  0.97145  1.0000
  H   H979      1.0  0.24518  0.61208  0.40511  1.0000
  C   C557      1.0  0.47236  0.55057  0.81330  1.0000
  C   C558      1.0  0.44697  0.60519  0.99151  1.0000
  C   C559      1.0  0.47894  0.59459  0.73776  1.0000
  H   H980      1.0  0.43314  0.72415  0.85909  1.0000
  H   H981      1.0  0.43196  0.71282  0.60158  1.0000
  H   H982      1.0  0.45648  0.60193  0.97600  1.0000
  H   H983      1.0  0.46393  0.69710  0.26769  1.0000
  H   H984      1.0  0.41676  0.68755  0.90598  1.0000
  C   C560      1.0  0.39973  0.67458  0.41072  1.0000
  H   H985      1.0  0.29366  0.65669  0.38801  1.0000
  C   C561      1.0  0.31180  0.54932  0.04235  1.0000
  H   H986      1.0  0.32730  0.54541  0.40223  1.0000
  C   C562      1.0  0.29666  0.64716  0.40375  1.0000
  H   H987      1.0  0.25460  0.62359  0.08765  1.0000
  H   H988      1.0  0.44746  0.53138  0.68367  1.0000
  H   H989      1.0  0.29029  0.65455  0.45506  1.0000
  C   C563      1.0  0.29416  0.50159  0.13380  1.0000
  H   H990      1.0  0.34421  0.60302  0.96080  1.0000
  H   H991      1.0  0.36592  0.71815  0.68901  1.0000
  H   H992      1.0  0.47770  0.63060  0.96806  1.0000
  H   H993      1.0  0.47109  0.55433  0.75563  1.0000
  H   H994      1.0  0.46300  0.72308  0.82222  1.0000
  H   H995      1.0  0.31478  0.53823  0.05086  1.0000
  S   S130      1.0  0.42642  0.73296  0.02668  1.0000
  N   N32       1.0  0.43163  0.71591  0.91429  1.0000
  H   H996      1.0  0.43305  0.69268  0.85922  1.0000
  H   H997      1.0  0.34993  0.69633  0.67595  1.0000
  H   H998      1.0  0.40951  0.68131  0.43278  1.0000
  C   C564      1.0  0.46502  0.69210  0.29467  1.0000
  C   C565      1.0  0.41454  0.69937  0.91211  1.0000
  H   H999      1.0  0.25800  0.65208  0.49125  1.0000
  C   C566      1.0  0.32625  0.53577  0.34874  1.0000
  S   S131      1.0  0.24159  0.72937  0.49123  1.0000
  C   C567      1.0  0.28581  0.64220  0.43852  1.0000
  H   H1000     1.0  0.36624  0.70961  0.64438  1.0000
  H   H1001     1.0  0.39523  0.70882  0.89314  1.0000
  H   H1002     1.0  0.30738  0.54179  0.37888  1.0000
  H   H1003     1.0  0.44021  0.71808  0.97020  1.0000
  H   H1004     1.0  0.40674  0.53357  0.76892  1.0000
  C   C568      1.0  0.32943  0.53302  0.94351  1.0000
  H   H1005     1.0  0.47703  0.70184  0.30891  1.0000
  H   H1006     1.0  0.24833  0.59838  0.63776  1.0000
  H   H1007     1.0  0.47121  0.70667  0.96457  1.0000
  C   C569      1.0  0.25979  0.58980  0.38509  1.0000
  H   H1008     1.0  0.38908  0.67105  0.87177  1.0000
  H   H1009     1.0  0.31973  0.55495  0.32092  1.0000
  H   H1010     1.0  0.47478  0.64923  0.98192  1.0000
  H   H1011     1.0  0.47973  0.59185  0.81408  1.0000
  C   C570      1.0  0.45584  0.59576  0.81469  1.0000
  H   H1012     1.0  0.45454  0.51671  0.39903  1.0000
  H   H1013     1.0  0.45918  0.60454  0.79126  1.0000
  C   C571      1.0  0.46144  0.60754  0.84859  1.0000
  H   H1014     1.0  0.45559  0.70421  0.87593  1.0000
  H   H1015     1.0  0.42757  0.71123  0.25652  1.0000
  S   S132      1.0  0.41185  0.51671  0.88521  1.0000
  H   H1016     1.0  0.30357  0.72541  0.53047  1.0000
  H   H1017     1.0  0.44049  0.71129  0.80540  1.0000
  C   C572      1.0  0.24721  0.60056  0.05222  1.0000
  C   C573      1.0  0.46572  0.62735  0.03611  1.0000
  H   H1018     1.0  0.41849  0.72751  0.94805  1.0000
  C   C574      1.0  0.33159  0.55313  0.32919  1.0000
  H   H1019     1.0  0.46678  0.50267  0.60170  1.0000
  H   H1020     1.0  0.45057  0.58441  0.74493  1.0000
  H   H1021     1.0  0.43750  0.72701  0.36245  1.0000
  H   H1022     1.0  0.23700  0.52809  0.26383  1.0000
  H   H1023     1.0  0.29316  0.49308  0.34448  1.0000
  C   C575      1.0  0.23709  0.65746  0.40098  1.0000
  H   H1024     1.0  0.31878  0.72954  0.49506  1.0000
  C   C576      1.0  0.45702  0.49984  0.44081  1.0000
  H   H1025     1.0  0.23741  0.68122  0.59497  1.0000
  C   C577      1.0  0.43093  0.73347  0.30968  1.0000
  C   C578      1.0  0.23997  0.66624  0.06486  1.0000
  H   H1026     1.0  0.23751  0.57504  0.07717  1.0000
  H   H1027     1.0  0.24521  0.67617  0.04352  1.0000
  H   H1028     1.0  0.47345  0.53204  0.50625  1.0000
  Fe  Fe69      1.0  0.45334  0.73779  0.04942  1.0000
  C   C579      1.0  0.33143  0.73060  0.06289  1.0000
  H   H1029     1.0  0.24407  0.67008  0.41629  1.0000
  C   C580      1.0  0.48294  0.49638  0.64035  1.0000
  H   H1030     1.0  0.48363  0.64405  0.90640  1.0000
  H   H1031     1.0  0.44277  0.73527  0.29464  1.0000
  H   H1032     1.0  0.30765  0.49553  0.55731  1.0000
  Fe  Fe70      1.0  0.24961  0.49399  0.03820  1.0000
  H   H1033     1.0  0.33367  0.49866  0.67570  1.0000
  H   H1034     1.0  0.32718  0.72971  0.57582  1.0000
  C   C581      1.0  0.47963  0.61979  0.03652  1.0000
  C   C582      1.0  0.35660  0.49311  0.67530  1.0000
  H   H1035     1.0  0.27180  0.73770  0.95582  1.0000
  H   H1036     1.0  0.48530  0.53485  0.83300  1.0000
  H   H1037     1.0  0.24599  0.64379  0.62209  1.0000
  H   H1038     1.0  0.23828  0.64074  0.01990  1.0000
  H   H1039     1.0  0.48312  0.53468  0.78465  1.0000
  H   H1040     1.0  0.34216  0.73921  0.08173  1.0000
  Fe  Fe71      1.0  0.37663  0.91581  0.56286  1.0000
  S   S133      1.0  0.38330  0.91007  0.61880  1.0000
  S   S134      1.0  0.39526  0.94449  0.54742  1.0000
  Fe  Fe72      1.0  0.34910  0.87626  0.55117  1.0000
  S   S135      1.0  0.35422  0.86869  0.60644  1.0000
  S   S136      1.0  0.33205  0.85581  0.50761  1.0000
  Fe  Fe73      1.0  0.35441  0.89427  0.62577  1.0000
  S   S137      1.0  0.34079  0.89637  0.67702  1.0000
  Fe  Fe74      1.0  0.38277  0.88523  0.59549  1.0000
  S   S138      1.0  0.40329  0.87636  0.61405  1.0000
  S   S139      1.0  0.34721  0.90113  0.57107  1.0000
  S   S140      1.0  0.37810  0.89152  0.53905  1.0000
  Fe  Fe75      1.0  0.38098  0.88879  0.95522  1.0000
  S   S141      1.0  0.35968  0.88729  0.99244  1.0000
  S   S142      1.0  0.40230  0.88121  0.97443  1.0000
  Fe  Fe76      1.0  0.36571  0.90089  0.89170  1.0000
  S   S143      1.0  0.34321  0.90050  0.92482  1.0000
  S   S144      1.0  0.37552  0.90993  0.83497  1.0000
  Fe  Fe77      1.0  0.36400  0.91363  0.96913  1.0000
  S   S145      1.0  0.36859  0.93660  0.00897  1.0000
  Fe  Fe78      1.0  0.34085  0.87416  0.94594  1.0000
  S   S146      1.0  0.31660  0.84682  0.94239  1.0000
  S   S147      1.0  0.38623  0.91543  0.93479  1.0000
  S   S148      1.0  0.36235  0.87430  0.91014  1.0000
  H   H1041     1.0  0.31793  0.77541  0.10718  1.0000
  S   S149      1.0  0.26869  0.78597  0.05050  1.0000
  H   H1042     1.0  0.37818  0.96301  0.06559  1.0000
  H   H1043     1.0  0.31054  0.80661  0.08466  1.0000
  H   H1044     1.0  0.42036  0.87518  0.50928  1.0000
  S   S150      1.0  0.26576  0.77965  0.50914  1.0000
  C   C583      1.0  0.33851  0.84286  0.74413  1.0000
  H   H1045     1.0  0.35259  0.80086  0.96104  1.0000
  C   C584      1.0  0.33481  0.77380  0.97387  1.0000
  H   H1046     1.0  0.44850  0.77555  0.95166  1.0000
  H   H1047     1.0  0.40836  0.85143  0.50731  1.0000
  C   C585      1.0  0.42260  0.89194  0.95330  1.0000
  C   C586      1.0  0.43738  0.89006  0.96659  1.0000
  C   C587      1.0  0.45392  0.89933  0.95126  1.0000
  C   C588      1.0  0.45573  0.91069  0.92292  1.0000
  C   C589      1.0  0.44086  0.91216  0.90895  1.0000
  C   C590      1.0  0.42430  0.90270  0.92394  1.0000
  H   H1048     1.0  0.43608  0.88161  0.98910  1.0000
  H   H1049     1.0  0.46533  0.89800  0.96190  1.0000
  H   H1050     1.0  0.44217  0.92074  0.88667  1.0000
  H   H1051     1.0  0.41288  0.90384  0.91290  1.0000
  C   C591      1.0  0.30395  0.82994  0.97327  1.0000
  C   C592      1.0  0.29249  0.81303  0.95962  1.0000
  C   C593      1.0  0.28181  0.79942  0.98256  1.0000
  C   C594      1.0  0.28213  0.80252  0.01976  1.0000
  C   C595      1.0  0.29346  0.81948  0.03334  1.0000
  C   C596      1.0  0.30442  0.83298  0.01049  1.0000
  H   H1052     1.0  0.29172  0.81049  0.93096  1.0000
  H   H1053     1.0  0.27296  0.78669  0.97130  1.0000
  H   H1054     1.0  0.29370  0.82229  0.06186  1.0000
  H   H1055     1.0  0.31291  0.84588  0.02164  1.0000
  C   C597      1.0  0.38363  0.95953  0.01034  1.0000
  C   C598      1.0  0.24007  0.80924  0.29014  1.0000
  C   C599      1.0  0.35264  0.78766  0.96193  1.0000
  H   H1056     1.0  0.28455  0.80257  0.83124  1.0000
  H   H1057     1.0  0.39185  0.96083  0.95562  1.0000
  C   C600      1.0  0.28486  0.80035  0.50848  1.0000
  C   C601      1.0  0.29006  0.81099  0.54002  1.0000
  C   C602      1.0  0.30470  0.82772  0.54063  1.0000
  C   C603      1.0  0.31426  0.83421  0.50945  1.0000
  C   C604      1.0  0.30922  0.82343  0.47804  1.0000
  C   C605      1.0  0.29483  0.80654  0.47768  1.0000
  H   H1058     1.0  0.28256  0.80637  0.56414  1.0000
  H   H1059     1.0  0.30830  0.83577  0.56502  1.0000
  H   H1060     1.0  0.31655  0.82822  0.45379  1.0000
  H   H1061     1.0  0.29137  0.79841  0.45349  1.0000
  C   C606      1.0  0.35040  0.89929  0.72088  1.0000
  C   C607      1.0  0.36809  0.90276  0.72649  1.0000
  C   C608      1.0  0.37544  0.90576  0.76164  1.0000
  C   C609      1.0  0.36520  0.90510  0.79162  1.0000
  C   C610      1.0  0.34750  0.90159  0.78601  1.0000
  C   C611      1.0  0.34015  0.89868  0.75082  1.0000
  H   H1062     1.0  0.37612  0.90324  0.70373  1.0000
  H   H1063     1.0  0.38918  0.90861  0.76571  1.0000
  H   H1064     1.0  0.33961  0.90158  0.80866  1.0000
  H   H1065     1.0  0.32650  0.89620  0.74673  1.0000
  C   C612      1.0  0.42378  0.88810  0.59446  1.0000
  C   C613      1.0  0.42623  0.90157  0.57051  1.0000
  C   C614      1.0  0.44249  0.91040  0.55396  1.0000
  C   C615      1.0  0.45644  0.90604  0.56188  1.0000
  C   C616      1.0  0.45413  0.89286  0.58656  1.0000
  C   C617      1.0  0.43777  0.88378  0.60258  1.0000
  H   H1066     1.0  0.41554  0.90508  0.56434  1.0000
  H   H1067     1.0  0.44420  0.92057  0.53484  1.0000
  H   H1068     1.0  0.46474  0.88925  0.59232  1.0000
  H   H1069     1.0  0.43586  0.87331  0.62102  1.0000
  C   C618      1.0  0.41513  0.97938  0.52965  1.0000
  C   C619      1.0  0.39836  0.96493  0.52735  1.0000
  C   C620      1.0  0.38477  0.96720  0.50923  1.0000
  H   H1070     1.0  0.42579  0.97789  0.54351  1.0000
  H   H1071     1.0  0.37183  0.95629  0.50692  1.0000
  N   N33       1.0  0.31073  0.76035  0.51134  1.0000
  H   H1072     1.0  0.38298  0.96713  0.74075  1.0000
  C   C621      1.0  0.29801  0.76074  0.53918  1.0000
  C   C622      1.0  0.32122  0.77910  0.49962  1.0000
  H   H1073     1.0  0.30023  0.77538  0.97282  1.0000
  C   C623      1.0  0.41314  0.98093  0.40595  1.0000
  H   H1074     1.0  0.42951  0.76533  0.92181  1.0000
  C   C624      1.0  0.33100  0.79291  0.52999  1.0000
  H   H1075     1.0  0.44378  0.80293  0.47164  1.0000
  C   C625      1.0  0.24527  0.80494  0.40862  1.0000
  C   C626      1.0  0.34460  0.81009  0.51477  1.0000
  H   H1076     1.0  0.42932  0.98144  0.45281  1.0000
  C   C627      1.0  0.33018  0.77866  0.01153  1.0000
  H   H1077     1.0  0.30520  0.76897  0.56298  1.0000
  H   H1078     1.0  0.28992  0.76710  0.52792  1.0000
  H   H1079     1.0  0.31245  0.78393  0.48521  1.0000
  H   H1080     1.0  0.33128  0.77974  0.47994  1.0000
  H   H1081     1.0  0.31771  0.80286  0.12822  1.0000
  H   H1082     1.0  0.32575  0.75714  0.55618  1.0000
  H   H1083     1.0  0.41056  0.89349  0.71696  1.0000
  S   S151      1.0  0.47646  0.92371  0.90545  1.0000
  H   H1084     1.0  0.36357  0.95103  0.79104  1.0000
  H   H1085     1.0  0.33791  0.78788  0.54915  1.0000
  H   H1086     1.0  0.32145  0.79624  0.54500  1.0000
  C   C628      1.0  0.45790  0.81160  0.46723  1.0000
  C   C629      1.0  0.39329  0.96817  0.98053  1.0000
  H   H1087     1.0  0.34835  0.93538  0.75914  1.0000
  C   C630      1.0  0.35077  0.94987  0.58364  1.0000
  N   N34       1.0  0.31442  0.76481  0.02969  1.0000
  H   H1088     1.0  0.27931  0.75461  0.60231  1.0000
  H   H1089     1.0  0.35529  0.80791  0.50161  1.0000
  H   H1090     1.0  0.33830  0.81548  0.49493  1.0000
  H   H1091     1.0  0.35051  0.82006  0.53687  1.0000
  N   N35       1.0  0.43785  0.94973  0.00645  1.0000
  C   C631      1.0  0.44366  0.96308  0.03723  1.0000
  C   C632      1.0  0.45156  0.94284  0.99996  1.0000
  C   C633      1.0  0.43628  0.95917  0.97319  1.0000
  C   C634      1.0  0.42001  0.93472  0.01251  1.0000
  C   C635      1.0  0.41787  0.92463  0.04790  1.0000
  H   H1092     1.0  0.46350  0.83437  0.94702  1.0000
  C   C636      1.0  0.43419  0.94910  0.93679  1.0000
  H   H1093     1.0  0.36334  0.78828  0.98064  1.0000
  H   H1094     1.0  0.31904  0.75978  0.39289  1.0000
  C   C637      1.0  0.39868  0.91158  0.05281  1.0000
  H   H1095     1.0  0.41622  0.95829  0.91127  1.0000
  H   H1096     1.0  0.25896  0.81117  0.46211  1.0000
  H   H1097     1.0  0.29360  0.85063  0.45876  1.0000
  H   H1098     1.0  0.44533  0.95719  0.06263  1.0000
  H   H1099     1.0  0.44550  0.92982  0.98540  1.0000
  H   H1100     1.0  0.31412  0.77405  0.42281  1.0000
  H   H1101     1.0  0.28915  0.77945  0.37651  1.0000
  H   H1102     1.0  0.25248  0.81454  0.27489  1.0000
  H   H1103     1.0  0.40942  0.93933  0.01079  1.0000
  H   H1104     1.0  0.41658  0.92454  0.99066  1.0000
  H   H1105     1.0  0.42181  0.93358  0.07183  1.0000
  H   H1106     1.0  0.42568  0.91684  0.04707  1.0000
  H   H1107     1.0  0.43182  0.98101  0.02300  1.0000
  H   H1108     1.0  0.41761  0.96236  0.04855  1.0000
  H   H1109     1.0  0.42386  0.93548  0.93782  1.0000
  H   H1110     1.0  0.30553  0.74623  0.98430  1.0000
  C   C638      1.0  0.25696  0.81670  0.34998  1.0000
  H   H1111     1.0  0.45350  0.93446  0.05574  1.0000
  C   C639      1.0  0.30031  0.75295  0.00342  1.0000
  H   H1112     1.0  0.36134  0.96107  0.57024  1.0000
  C   C640      1.0  0.28533  0.74288  0.55471  1.0000
  H   H1113     1.0  0.39739  0.90458  0.07845  1.0000
  H   H1114     1.0  0.39000  0.91851  0.05349  1.0000
  H   H1115     1.0  0.39422  0.90163  0.03051  1.0000
  H   H1116     1.0  0.23989  0.81496  0.40929  1.0000
  H   H1117     1.0  0.30126  0.86090  0.41607  1.0000
  S   S152      1.0  0.47124  0.74679  0.48918  1.0000
  H   H1118     1.0  0.26904  0.82327  0.33393  1.0000
  H   H1119     1.0  0.26391  0.75030  0.56484  1.0000
  C   C641      1.0  0.28444  0.78211  0.35023  1.0000
  C   C642      1.0  0.27227  0.74524  0.57984  1.0000
  C   C643      1.0  0.34868  0.84520  0.82385  1.0000
  C   C644      1.0  0.43142  0.97217  0.04518  1.0000
  Fe  Fe79      1.0  0.48458  0.74201  0.39073  1.0000
  H   H1120     1.0  0.34212  0.78284  0.02936  1.0000
  H   H1121     1.0  0.46705  0.89600  0.65833  1.0000
  C   C645      1.0  0.46429  0.82801  0.49177  1.0000
  C   C646      1.0  0.24278  0.80199  0.32601  1.0000
  H   H1122     1.0  0.47592  0.84002  0.84976  1.0000
  C   C647      1.0  0.45946  0.84744  0.56876  1.0000
  H   H1123     1.0  0.27003  0.84825  0.39262  1.0000
  H   H1124     1.0  0.33133  0.79313  0.07848  1.0000
  C   C648      1.0  0.42917  0.95816  0.90624  1.0000
  C   C649      1.0  0.46209  0.94116  0.03325  1.0000
  H   H1125     1.0  0.32482  0.77322  0.95341  1.0000
  C   C650      1.0  0.43330  0.86178  0.47907  1.0000
  H   H1126     1.0  0.42513  0.97589  0.32475  1.0000
  H   H1127     1.0  0.44670  0.94850  0.92963  1.0000
  C   C651      1.0  0.34302  0.85255  0.70856  1.0000
  H   H1128     1.0  0.35536  0.86488  0.71161  1.0000
  C   C652      1.0  0.47098  0.84371  0.59640  1.0000
  H   H1129     1.0  0.43985  0.83011  0.49509  1.0000
  H   H1130     1.0  0.48165  0.85523  0.53306  1.0000
  H   H1131     1.0  0.46060  0.90029  0.76005  1.0000
  C   C653      1.0  0.32316  0.75340  0.52709  1.0000
  H   H1132     1.0  0.45697  0.97370  0.03192  1.0000
  H   H1133     1.0  0.47489  0.88423  0.48889  1.0000
  H   H1134     1.0  0.33036  0.76198  0.07331  1.0000
  H   H1135     1.0  0.27388  0.75758  0.93430  1.0000
  H   H1136     1.0  0.47888  0.94795  0.60550  1.0000
  Fe  Fe80      1.0  0.25042  0.75662  0.46920  1.0000
  C   C654      1.0  0.46749  0.84140  0.92130  1.0000
  H   H1137     1.0  0.42803  0.95078  0.88057  1.0000
  H   H1138     1.0  0.32839  0.79094  0.00763  1.0000
  H   H1139     1.0  0.33220  0.85589  0.69927  1.0000
  C   C655      1.0  0.36668  0.94881  0.69740  1.0000
  H   H1140     1.0  0.25440  0.78346  0.37258  1.0000
  H   H1141     1.0  0.35974  0.93418  0.69446  1.0000
  H   H1142     1.0  0.40893  0.86418  0.46840  1.0000
  C   C656      1.0  0.42300  0.94847  0.65958  1.0000
  H   H1143     1.0  0.28095  0.76381  0.99846  1.0000
  H   H1144     1.0  0.46293  0.83668  0.61945  1.0000
  H   H1145     1.0  0.45020  0.87218  0.70059  1.0000
  C   C657      1.0  0.27350  0.84205  0.41574  1.0000
  H   H1146     1.0  0.47670  0.87259  0.54699  1.0000
  Fe  Fe81      1.0  0.25162  0.75604  0.05878  1.0000
  C   C658      1.0  0.47454  0.75855  0.25084  1.0000
  H   H1147     1.0  0.42745  0.96521  0.41843  1.0000
  H   H1148     1.0  0.46440  0.86985  0.45140  1.0000
  S   S153      1.0  0.46738  0.76385  0.07831  1.0000
  H   H1149     1.0  0.47369  0.75880  0.30899  1.0000
  H   H1150     1.0  0.42816  0.95189  0.68768  1.0000
  H   H1151     1.0  0.23565  0.81980  0.29454  1.0000
  H   H1152     1.0  0.43750  0.79954  0.07477  1.0000
  C   C659      1.0  0.41028  0.95656  0.65055  1.0000
  H   H1153     1.0  0.40046  0.97585  0.26275  1.0000
  H   H1154     1.0  0.32226  0.85474  0.76374  1.0000
  H   H1155     1.0  0.29604  0.78831  0.11094  1.0000
  H   H1156     1.0  0.46730  0.86682  0.65236  1.0000
  H   H1157     1.0  0.42836  0.75882  0.96826  1.0000
  H   H1158     1.0  0.46839  0.82174  0.07798  1.0000
  C   C660      1.0  0.35843  0.94920  0.76285  1.0000
  C   C661      1.0  0.38561  0.96946  0.04235  1.0000
  H   H1159     1.0  0.33527  0.76085  0.97317  1.0000
  H   H1160     1.0  0.36736  0.93385  0.63243  1.0000
  C   C662      1.0  0.45327  0.83867  0.48544  1.0000
  C   C663      1.0  0.29088  0.76210  0.98147  1.0000
  H   H1161     1.0  0.30067  0.79357  0.82982  1.0000
  C   C664      1.0  0.48196  0.83748  0.90454  1.0000
  H   H1162     1.0  0.29739  0.87511  0.85206  1.0000
  C   C665      1.0  0.43705  0.91495  0.71425  1.0000
  H   H1163     1.0  0.45887  0.81690  0.12168  1.0000
  H   H1164     1.0  0.34485  0.86769  0.77292  1.0000
  H   H1165     1.0  0.29063  0.75479  0.46977  1.0000
  C   C666      1.0  0.31763  0.78459  0.08625  1.0000
  C   C667      1.0  0.47877  0.80663  0.11144  1.0000
  H   H1166     1.0  0.45794  0.92346  0.64069  1.0000
  C   C668      1.0  0.46378  0.81166  0.09906  1.0000
  H   H1167     1.0  0.46905  0.87954  0.73084  1.0000
  H   H1168     1.0  0.48166  0.93160  0.04682  1.0000
  H   H1169     1.0  0.41795  0.97106  0.65314  1.0000
  C   C669      1.0  0.41736  0.90655  0.70438  1.0000
  H   H1170     1.0  0.45192  0.75392  0.91083  1.0000
  H   H1171     1.0  0.41129  0.91517  0.71415  1.0000
  H   H1172     1.0  0.43815  0.91637  0.74394  1.0000
  H   H1173     1.0  0.47843  0.83585  0.48704  1.0000
  H   H1174     1.0  0.44291  0.92811  0.70199  1.0000
  H   H1175     1.0  0.48415  0.83880  0.15061  1.0000
  H   H1176     1.0  0.41527  0.90482  0.67473  1.0000
  C   C670      1.0  0.31159  0.74926  0.44612  1.0000
  H   H1177     1.0  0.29341  0.80968  0.36188  1.0000
  H   H1178     1.0  0.38030  0.85630  0.86354  1.0000
  C   C671      1.0  0.43365  0.75162  0.32410  1.0000
  C   C672      1.0  0.39699  0.98769  0.04464  1.0000
  H   H1179     1.0  0.44191  0.89964  0.67221  1.0000
  H   H1180     1.0  0.41233  0.96243  0.26575  1.0000
  H   H1181     1.0  0.43920  0.89058  0.71537  1.0000
  C   C673      1.0  0.28128  0.75113  0.94815  1.0000
  S   S154      1.0  0.47606  0.74184  0.01366  1.0000
  C   C674      1.0  0.30629  0.77403  0.05325  1.0000
  H   H1182     1.0  0.43427  0.95357  0.64109  1.0000
  C   C675      1.0  0.44583  0.90317  0.70099  1.0000
  S   S155      1.0  0.47558  0.75908  0.17671  1.0000
  H   H1183     1.0  0.28741  0.86744  0.44324  1.0000
  C   C676      1.0  0.40446  0.98647  0.98263  1.0000
  H   H1184     1.0  0.32089  0.88703  0.85827  1.0000
  H   H1185     1.0  0.36910  0.86388  0.78898  1.0000
  H   H1186     1.0  0.34976  0.84002  0.75213  1.0000
  H   H1187     1.0  0.29239  0.79691  0.87223  1.0000
  C   C677      1.0  0.31700  0.82899  0.81095  1.0000
  C   C678      1.0  0.47507  0.92827  0.68929  1.0000
  C   C679      1.0  0.44315  0.74895  0.93402  1.0000
  C   C680      1.0  0.30973  0.87371  0.85774  1.0000
  N   N36       1.0  0.46016  0.85691  0.50271  1.0000
  C   C681      1.0  0.31024  0.76012  0.41456  1.0000
  H   H1188     1.0  0.33804  0.95054  0.57834  1.0000
  H   H1189     1.0  0.32680  0.83012  0.73908  1.0000
  H   H1190     1.0  0.48073  0.93934  0.82150  1.0000
  H   H1191     1.0  0.36669  0.87334  0.83083  1.0000
  H   H1192     1.0  0.38285  0.84701  0.82095  1.0000
  C   C682      1.0  0.32940  0.85970  0.83587  1.0000
  C   C683      1.0  0.47216  0.92903  0.64814  1.0000
  C   C684      1.0  0.47161  0.87081  0.47724  1.0000
  H   H1193     1.0  0.46567  0.80404  0.47325  1.0000
  C   C685      1.0  0.43692  0.76298  0.94448  1.0000
  H   H1194     1.0  0.30611  0.82902  0.86473  1.0000
  H   H1195     1.0  0.30041  0.84924  0.82846  1.0000
  H   H1196     1.0  0.26272  0.83809  0.43528  1.0000
  H   H1197     1.0  0.30536  0.82914  0.79656  1.0000
  H   H1198     1.0  0.35542  0.78414  0.93459  1.0000
  H   H1199     1.0  0.28213  0.82164  0.42616  1.0000
  C   C686      1.0  0.47278  0.93092  0.02384  1.0000
  C   C687      1.0  0.42030  0.97179  0.43264  1.0000
  C   C688      1.0  0.39426  0.98584  0.63401  1.0000
  C   C689      1.0  0.33448  0.85391  0.77329  1.0000
  H   H1200     1.0  0.34048  0.87305  0.83458  1.0000
  H   H1201     1.0  0.45574  0.83697  0.90301  1.0000
  N   N37       1.0  0.26130  0.81087  0.38550  1.0000
  H   H1202     1.0  0.45977  0.81536  0.43857  1.0000
  H   H1203     1.0  0.28793  0.83143  0.38394  1.0000
  H   H1204     1.0  0.47282  0.79502  0.12920  1.0000
  H   H1205     1.0  0.45148  0.83941  0.45588  1.0000
  H   H1206     1.0  0.39887  0.98376  0.33961  1.0000
  H   H1207     1.0  0.44954  0.87390  0.52599  1.0000
  H   H1208     1.0  0.35623  0.95351  0.69393  1.0000
  C   C690      1.0  0.47041  0.85857  0.53732  1.0000
  H   H1209     1.0  0.48188  0.85618  0.60650  1.0000
  C   C691      1.0  0.39463  0.95028  0.67647  1.0000
  S   S156      1.0  0.26246  0.74541  0.10379  1.0000
  H   H1210     1.0  0.32950  0.85589  0.86439  1.0000
  C   C692      1.0  0.44477  0.86098  0.51145  1.0000
  H   H1211     1.0  0.34501  0.84409  0.68757  1.0000
  N   N38       1.0  0.33238  0.84695  0.81092  1.0000
  C   C693      1.0  0.28997  0.85607  0.43452  1.0000
  N   N39       1.0  0.46559  0.91044  0.70596  1.0000
  H   H1212     1.0  0.42479  0.96241  0.97510  1.0000
  S   S157      1.0  0.47043  0.75835  0.40531  1.0000
  H   H1213     1.0  0.25207  0.82694  0.35445  1.0000
  C   C694      1.0  0.31111  0.82101  0.84855  1.0000
  H   H1214     1.0  0.47671  0.83527  0.58417  1.0000
  H   H1215     1.0  0.28987  0.74201  0.01795  1.0000
  C   C695      1.0  0.30996  0.79628  0.10352  1.0000
  H   H1216     1.0  0.29655  0.75436  0.40340  1.0000
  C   C696      1.0  0.26618  0.79568  0.38050  1.0000
  H   H1217     1.0  0.38021  0.94469  0.74486  1.0000
  H   H1218     1.0  0.40581  0.95288  0.62227  1.0000
  H   H1219     1.0  0.29474  0.78425  0.33010  1.0000
  H   H1220     1.0  0.32017  0.81935  0.79539  1.0000
  N   N40       1.0  0.38036  0.95626  0.66875  1.0000
  C   C697      1.0  0.46478  0.87914  0.70235  1.0000
  H   H1221     1.0  0.32218  0.82023  0.86383  1.0000
  C   C698      1.0  0.37140  0.94833  0.63315  1.0000
  H   H1222     1.0  0.39441  0.87041  0.83018  1.0000
  C   C699      1.0  0.44802  0.79563  0.08320  1.0000
  H   H1223     1.0  0.45291  0.85473  0.58270  1.0000
  H   H1224     1.0  0.44903  0.83462  0.55899  1.0000
  H   H1225     1.0  0.47151  0.93821  0.70229  1.0000
  H   H1226     1.0  0.46193  0.95173  0.98189  1.0000
  C   C700      1.0  0.40605  0.96937  0.28171  1.0000
  H   H1227     1.0  0.35555  0.96373  0.63451  1.0000
  H   H1228     1.0  0.44807  0.97204  0.97100  1.0000
  C   C701      1.0  0.36653  0.86135  0.81797  1.0000
  H   H1229     1.0  0.31279  0.86840  0.80258  1.0000
  H   H1230     1.0  0.33982  0.74979  0.02208  1.0000
  H   H1231     1.0  0.39523  0.95943  0.29719  1.0000
  C   C702      1.0  0.38777  0.97617  0.67006  1.0000
  H   H1232     1.0  0.45188  0.79020  0.05923  1.0000
  C   C703      1.0  0.28089  0.79845  0.35326  1.0000
  H   H1233     1.0  0.38059  0.95334  0.61062  1.0000
  H   H1234     1.0  0.34798  0.84267  0.85322  1.0000
  C   C704      1.0  0.43725  0.98349  0.07967  1.0000
  C   C705      1.0  0.27683  0.82612  0.40287  1.0000
  H   H1235     1.0  0.46313  0.82352  0.51990  1.0000
  C   C706      1.0  0.31226  0.86202  0.82871  1.0000
  H   H1236     1.0  0.48096  0.93647  0.99993  1.0000
  H   H1237     1.0  0.43935  0.97189  0.90349  1.0000
  H   H1238     1.0  0.47833  0.92170  0.63315  1.0000
  H   H1239     1.0  0.40080  0.95512  0.70346  1.0000
  H   H1240     1.0  0.27718  0.80101  0.32596  1.0000
  H   H1241     1.0  0.42916  0.84985  0.46140  1.0000
  H   H1242     1.0  0.32566  0.75349  0.45360  1.0000
  H   H1243     1.0  0.43566  0.85107  0.52993  1.0000
  C   C707      1.0  0.29628  0.80237  0.84506  1.0000
  H   H1244     1.0  0.30872  0.86778  0.88462  1.0000
  H   H1245     1.0  0.33635  0.75978  0.51470  1.0000
  H   H1246     1.0  0.35213  0.95825  0.75834  1.0000
  H   H1247     1.0  0.34945  0.83350  0.81111  1.0000
  H   H1248     1.0  0.44260  0.78515  0.10344  1.0000
  H   H1249     1.0  0.47153  0.95451  0.04306  1.0000
  C   C708      1.0  0.38190  0.85849  0.83417  1.0000
  H   H1250     1.0  0.44068  0.87363  0.46298  1.0000
  S   S158      1.0  0.47625  0.91653  0.53905  1.0000
  H   H1251     1.0  0.24661  0.79120  0.31981  1.0000
  C   C709      1.0  0.37354  0.95308  0.73698  1.0000
  C   C710      1.0  0.35454  0.95088  0.62413  1.0000
  C   C711      1.0  0.38792  0.98357  0.49379  1.0000
  H   H1252     1.0  0.34303  0.94032  0.63691  1.0000
  H   H1253     1.0  0.30309  0.78343  0.03730  1.0000
  H   H1254     1.0  0.40434  0.97073  0.38645  1.0000
  H   H1255     1.0  0.40521  0.98620  0.42142  1.0000
  H   H1256     1.0  0.40921  0.96164  0.44718  1.0000
  C   C712      1.0  0.41674  0.86320  0.49191  1.0000
  Fe  Fe82      1.0  0.47691  0.74984  0.11852  1.0000
  H   H1257     1.0  0.27229  0.77042  0.34133  1.0000
  H   H1258     1.0  0.46700  0.85466  0.69208  1.0000
  H   H1259     1.0  0.34998  0.93734  0.57184  1.0000
  H   H1260     1.0  0.25051  0.78846  0.44771  1.0000
  C   C713      1.0  0.31987  0.75359  0.05374  1.0000
  H   H1261     1.0  0.37779  0.98052  0.67999  1.0000
  H   H1262     1.0  0.38875  0.93561  0.67741  1.0000
  H   H1263     1.0  0.27067  0.79249  0.40649  1.0000
  H   H1264     1.0  0.47719  0.80292  0.02117  1.0000
  H   H1265     1.0  0.41632  0.93393  0.65601  1.0000
  S   S159      1.0  0.26026  0.74983  0.41824  1.0000
  H   H1266     1.0  0.45104  0.74779  0.95716  1.0000
  C   C714      1.0  0.47148  0.89794  0.68696  1.0000
  H   H1267     1.0  0.40273  0.98109  0.61912  1.0000
  H   H1268     1.0  0.47591  0.81807  0.17201  1.0000
  H   H1269     1.0  0.48025  0.83727  0.22862  1.0000
  H   H1270     1.0  0.43570  0.76065  0.30135  1.0000
  C   C715      1.0  0.47496  0.92874  0.76669  1.0000
  H   H1271     1.0  0.46482  0.91667  0.81814  1.0000
  C   C716      1.0  0.47084  0.91132  0.74538  1.0000
  C   C717      1.0  0.47189  0.86807  0.68086  1.0000
  H   H1272     1.0  0.46454  0.93333  0.76314  1.0000
  C   C718      1.0  0.47724  0.92660  0.80694  1.0000
  H   H1273     1.0  0.47469  0.95598  0.64789  1.0000
  H   H1274     1.0  0.47236  0.85575  0.92724  1.0000
  H   H1275     1.0  0.46763  0.76675  0.24786  1.0000
  H   H1276     1.0  0.43669  0.98992  0.37521  1.0000
  H   H1277     1.0  0.47460  0.83095  0.01090  1.0000
  H   H1278     1.0  0.37724  0.98504  0.47989  1.0000
  C   C719      1.0  0.30042  0.74989  0.47871  1.0000
  H   H1279     1.0  0.29348  0.76435  0.06356  1.0000
  H   H1280     1.0  0.46384  0.91685  0.01825  1.0000
  C   C720      1.0  0.47805  0.75413  0.28565  1.0000
  H   H1281     1.0  0.43590  0.97512  0.10331  1.0000
  H   H1282     1.0  0.30846  0.74498  0.07007  1.0000
  H   H1283     1.0  0.47856  0.78957  0.33868  1.0000
  H   H1284     1.0  0.42194  0.75066  0.33906  1.0000
  C   C721      1.0  0.24787  0.80029  0.44778  1.0000
  H   H1285     1.0  0.29085  0.75004  0.92918  1.0000
  C   C722      1.0  0.48077  0.94796  0.63515  1.0000
  H   H1286     1.0  0.47659  0.82296  0.90048  1.0000
  H   H1287     1.0  0.44545  0.75730  0.34230  1.0000
  C   C723      1.0  0.41978  0.98303  0.30708  1.0000
  C   C724      1.0  0.47982  0.75240  0.21986  1.0000
  H   H1288     1.0  0.39884  0.98172  0.69020  1.0000
  H   H1289     1.0  0.48315  0.90944  0.74848  1.0000
  H   H1290     1.0  0.38289  0.98379  0.61594  1.0000
  C   C725      1.0  0.32727  0.74166  0.03523  1.0000
  H   H1291     1.0  0.48280  0.80183  0.08679  1.0000
  H   H1292     1.0  0.23621  0.76859  0.27021  1.0000
  H   H1293     1.0  0.42885  0.99056  0.08361  1.0000
  C   C726      1.0  0.72813  0.22731  0.71762  1.0000
  C   C727      1.0  0.69427  0.23796  0.81567  1.0000
  S   S160      1.0  0.50048  0.21110  0.93263  1.0000
  H   H1294     1.0  0.52398  0.19073  0.92233  1.0000
  C   C728      1.0  0.50790  0.02332  0.02992  1.0000
  C   C729      1.0  0.55487  0.20428  0.54477  1.0000
  C   C730      1.0  0.53255  0.05070  0.00936  1.0000
  H   H1295     1.0  0.55244  0.03674  0.04201  1.0000
  Fe  Fe83      1.0  0.59981  0.06593  0.05429  1.0000
  S   S161      1.0  0.58841  0.07174  0.10492  1.0000
  S   S162      1.0  0.58593  0.04108  0.01736  1.0000
  Fe  Fe84      1.0  0.62671  0.10586  0.04646  1.0000
  S   S163      1.0  0.61661  0.11362  0.09578  1.0000
  S   S164      1.0  0.64361  0.12588  0.00473  1.0000
  Fe  Fe85      1.0  0.61649  0.08947  0.12174  1.0000
  S   S165      1.0  0.62668  0.09764  0.17984  1.0000
  Fe  Fe86      1.0  0.58951  0.09549  0.07633  1.0000
  S   S166      1.0  0.56887  0.10592  0.07587  1.0000
  S   S167      1.0  0.62836  0.08237  0.07270  1.0000
  S   S168      1.0  0.59924  0.08908  0.02528  1.0000
  Fe  Fe87      1.0  0.58693  0.08977  0.43101  1.0000
  S   S169      1.0  0.59899  0.08821  0.48440  1.0000
  S   S170      1.0  0.56681  0.10016  0.41871  1.0000
  Fe  Fe88      1.0  0.60719  0.07366  0.38918  1.0000
  S   S171      1.0  0.62082  0.07055  0.43973  1.0000
  S   S172      1.0  0.60907  0.06239  0.33393  1.0000
  Fe  Fe89      1.0  0.59426  0.06062  0.46572  1.0000
  S   S173      1.0  0.57957  0.03771  0.50426  1.0000
  Fe  Fe90      1.0  0.62465  0.09839  0.45477  1.0000
  S   S174      1.0  0.65216  0.11879  0.47549  1.0000
  S   S175      1.0  0.58055  0.06199  0.41423  1.0000
  S   S176      1.0  0.61268  0.10168  0.40239  1.0000
  S   S177      1.0  0.70682  0.22360  0.91296  1.0000
  S   S178      1.0  0.71208  0.20002  0.00117  1.0000
  H   H1296     1.0  0.51297  0.22520  0.44198  1.0000
  S   S179      1.0  0.69001  0.20122  0.52342  1.0000
  C   C731      1.0  0.72576  0.16121  0.99403  1.0000
  C   C732      1.0  0.66230  0.14177  0.48862  1.0000
  C   C733      1.0  0.67995  0.14938  0.50146  1.0000
  C   C734      1.0  0.68861  0.16740  0.51223  1.0000
  C   C735      1.0  0.67980  0.17824  0.51026  1.0000
  C   C736      1.0  0.66219  0.17067  0.49716  1.0000
  C   C737      1.0  0.65350  0.15263  0.48648  1.0000
  H   H1297     1.0  0.68697  0.14122  0.50336  1.0000
  H   H1298     1.0  0.70211  0.17287  0.52217  1.0000
  H   H1299     1.0  0.65512  0.17877  0.49558  1.0000
  H   H1300     1.0  0.63996  0.14710  0.47679  1.0000
  C   C738      1.0  0.57399  0.01467  0.50781  1.0000
  H   H1301     1.0  0.59429  0.01428  0.47386  1.0000
  C   C739      1.0  0.66217  0.14693  0.00564  1.0000
  C   C740      1.0  0.66521  0.15765  0.97535  1.0000
  C   C741      1.0  0.67999  0.17417  0.97410  1.0000
  C   C742      1.0  0.69240  0.17993  0.00249  1.0000
  C   C743      1.0  0.68927  0.16932  0.03296  1.0000
  C   C744      1.0  0.67418  0.15304  0.03473  1.0000
  H   H1302     1.0  0.65594  0.15317  0.95281  1.0000
  H   H1303     1.0  0.68175  0.18240  0.95116  1.0000
  H   H1304     1.0  0.69868  0.17362  0.05526  1.0000
  H   H1305     1.0  0.67210  0.14497  0.05818  1.0000
  C   C745      1.0  0.62034  0.08742  0.22206  1.0000
  C   C746      1.0  0.61220  0.06910  0.22547  1.0000
  C   C747      1.0  0.60863  0.06168  0.25989  1.0000
  C   C748      1.0  0.61263  0.07243  0.29120  1.0000
  C   C749      1.0  0.62014  0.09074  0.28767  1.0000
  C   C750      1.0  0.62428  0.09816  0.25338  1.0000
  H   H1306     1.0  0.60922  0.06067  0.20169  1.0000
  H   H1307     1.0  0.60289  0.04750  0.26229  1.0000
  H   H1308     1.0  0.62299  0.09918  0.31133  1.0000
  H   H1309     1.0  0.63055  0.11235  0.25103  1.0000
  C   C751      1.0  0.57606  0.01742  0.01593  1.0000
  H   H1310     1.0  0.56732  0.01594  0.96067  1.0000
  H   H1311     1.0  0.54611  0.05454  0.21647  1.0000
  H   H1312     1.0  0.53604  0.16499  0.59226  1.0000
  N   N41       1.0  0.52690  0.03156  0.01804  1.0000
  C   C752      1.0  0.67110  0.08570  0.46761  1.0000
  H   H1313     1.0  0.53983  0.01766  0.91748  1.0000
  H   H1314     1.0  0.72484  0.10062  0.34801  1.0000
  C   C753      1.0  0.51271  0.06667  0.09981  1.0000
  C   C754      1.0  0.52677  0.06236  0.10681  1.0000
  C   C755      1.0  0.54402  0.07426  0.09898  1.0000
  C   C756      1.0  0.54731  0.09067  0.08489  1.0000
  C   C757      1.0  0.53324  0.09508  0.07831  1.0000
  C   C758      1.0  0.51590  0.08303  0.08550  1.0000
  H   H1315     1.0  0.52427  0.04978  0.11832  1.0000
  H   H1316     1.0  0.55475  0.07078  0.10416  1.0000
  H   H1317     1.0  0.53574  0.10778  0.06742  1.0000
  H   H1318     1.0  0.50505  0.08641  0.08017  1.0000
  H   H1319     1.0  0.63970  0.20021  0.48750  1.0000
  H   H1320     1.0  0.56755  0.20973  0.56040  1.0000
  C   C759      1.0  0.51465  0.07545  0.47748  1.0000
  C   C760      1.0  0.52995  0.07551  0.49309  1.0000
  C   C761      1.0  0.54593  0.08259  0.47478  1.0000
  C   C762      1.0  0.54676  0.09017  0.44123  1.0000
  C   C763      1.0  0.53149  0.09030  0.42579  1.0000
  C   C764      1.0  0.51540  0.08273  0.44364  1.0000
  H   H1321     1.0  0.52947  0.07022  0.51955  1.0000
  H   H1322     1.0  0.55771  0.08263  0.48703  1.0000
  H   H1323     1.0  0.53208  0.09617  0.39987  1.0000
  H   H1324     1.0  0.50366  0.08267  0.43130  1.0000
  C   C765      1.0  0.49877  0.22421  0.75821  1.0000
  N   N42       1.0  0.66043  0.20656  0.02961  1.0000
  C   C766      1.0  0.66565  0.20998  0.99080  1.0000
  C   C767      1.0  0.67689  0.21214  0.05294  1.0000
  C   C768      1.0  0.65003  0.18687  0.03338  1.0000
  C   C769      1.0  0.64921  0.21560  0.04195  1.0000
  H   H1325     1.0  0.49741  0.17427  0.60354  1.0000
  C   C770      1.0  0.65041  0.20146  0.96257  1.0000
  C   C771      1.0  0.64544  0.18020  0.07225  1.0000
  H   H1326     1.0  0.58289  0.21249  0.05261  1.0000
  H   H1327     1.0  0.58475  0.22850  0.08720  1.0000
  H   H1328     1.0  0.49914  0.04439  0.02438  1.0000
  C   C772      1.0  0.65579  0.20949  0.92561  1.0000
  C   C773      1.0  0.63221  0.16079  0.07218  1.0000
  H   H1329     1.0  0.67572  0.20512  0.98448  1.0000
  H   H1330     1.0  0.49406  0.19220  0.67414  1.0000
  H   H1331     1.0  0.67354  0.21001  0.08180  1.0000
  H   H1332     1.0  0.68380  0.20376  0.04633  1.0000
  H   H1333     1.0  0.65729  0.17977  0.02151  1.0000
  H   H1334     1.0  0.63730  0.18207  0.01798  1.0000
  H   H1335     1.0  0.63494  0.20687  0.03716  1.0000
  H   H1336     1.0  0.65068  0.21793  0.07163  1.0000
  H   H1337     1.0  0.48741  0.12757  0.36685  1.0000
  Fe  Fe91      1.0  0.48648  0.21726  0.55189  1.0000
  H   H1338     1.0  0.64676  0.18711  0.95970  1.0000
  H   H1339     1.0  0.63854  0.20309  0.97075  1.0000
  H   H1340     1.0  0.63970  0.18793  0.08721  1.0000
  H   H1341     1.0  0.65744  0.18120  0.08701  1.0000
  C   C774      1.0  0.49011  0.22602  0.78915  1.0000
  Fe  Fe92      1.0  0.51376  0.23693  0.96308  1.0000
  C   C775      1.0  0.54402  0.01292  0.09799  1.0000
  H   H1342     1.0  0.73193  0.19832  0.88353  1.0000
  H   H1343     1.0  0.72514  0.18483  0.84393  1.0000
  H   H1344     1.0  0.49801  0.16029  0.03275  1.0000
  Fe  Fe93      1.0  0.49189  0.22583  0.89179  1.0000
  H   H1345     1.0  0.49199  0.18608  0.04956  1.0000
  C   C776      1.0  0.59687  0.99747  0.59630  1.0000
  H   H1346     1.0  0.70707  0.11715  0.87982  1.0000
  H   H1347     1.0  0.68109  0.23320  0.86714  1.0000
  H   H1348     1.0  0.61955  0.15887  0.05895  1.0000
  H   H1349     1.0  0.63755  0.15250  0.05785  1.0000
  H   H1350     1.0  0.62953  0.15622  0.10025  1.0000
  H   H1351     1.0  0.68314  0.09802  0.47377  1.0000
  H   H1352     1.0  0.54277  0.99958  0.10457  1.0000
  H   H1353     1.0  0.52310  0.16902  0.91690  1.0000
  C   C777      1.0  0.70164  0.17282  0.89785  1.0000
  H   H1354     1.0  0.67335  0.18187  0.88819  1.0000
  H   H1355     1.0  0.52535  0.03577  0.94146  1.0000
  H   H1356     1.0  0.52517  0.23076  0.50359  1.0000
  H   H1357     1.0  0.53065  0.21612  0.57216  1.0000
  H   H1358     1.0  0.49558  0.03106  0.98422  1.0000
  H   H1359     1.0  0.66654  0.22347  0.82857  1.0000
  C   C778      1.0  0.65699  0.10625  0.35210  1.0000
  H   H1360     1.0  0.63539  0.04938  0.30983  1.0000
  H   H1361     1.0  0.53610  0.07136  0.18291  1.0000
  H   H1362     1.0  0.53005  0.05771  0.03263  1.0000
  C   C779      1.0  0.69861  0.09753  0.36106  1.0000
  H   H1363     1.0  0.49061  0.13609  0.07599  1.0000
  C   C780      1.0  0.57635  0.00738  0.04545  1.0000
  H   H1364     1.0  0.53901  0.00506  0.04248  1.0000
  H   H1365     1.0  0.50460  0.20502  0.46645  1.0000
  H   H1366     1.0  0.58291  0.01397  0.07024  1.0000
  H   H1367     1.0  0.52963  0.10416  0.19794  1.0000
  H   H1368     1.0  0.66783  0.17371  0.84253  1.0000
  H   H1369     1.0  0.64463  0.20311  0.90604  1.0000
  S   S180      1.0  0.72747  0.22051  0.82619  1.0000
  C   C781      1.0  0.49366  0.22716  0.72343  1.0000
  C   C782      1.0  0.69708  0.12014  0.86519  1.0000
  C   C783      1.0  0.56001  0.00431  0.52998  1.0000
  N   N43       1.0  0.55018  0.21882  0.53244  1.0000
  C   C784      1.0  0.51664  0.21536  0.45489  1.0000
  C   C785      1.0  0.50110  0.20022  0.04897  1.0000
  H   H1370     1.0  0.69169  0.16186  0.91286  1.0000
  H   H1371     1.0  0.53215  0.16958  0.03978  1.0000
  Fe  Fe94      1.0  0.71474  0.22484  0.54769  1.0000
  H   H1372     1.0  0.51699  0.08575  0.16834  1.0000
  H   H1373     1.0  0.54083  0.18435  0.97044  1.0000
  C   C786      1.0  0.56752  0.00842  0.98387  1.0000
  N   N44       1.0  0.66743  0.09671  0.36612  1.0000
  H   H1374     1.0  0.50048  0.22569  0.70012  1.0000
  H   H1375     1.0  0.71121  0.20913  0.75612  1.0000
  C   C787      1.0  0.53439  0.01204  0.06237  1.0000
  C   C788      1.0  0.69273  0.17495  0.86250  1.0000
  N   N45       1.0  0.57046  0.08965  0.22238  1.0000
  C   C789      1.0  0.57042  0.07575  0.19615  1.0000
  C   C790      1.0  0.58495  0.10723  0.21259  1.0000
  C   C791      1.0  0.57498  0.08519  0.25928  1.0000
  C   C792      1.0  0.55288  0.09056  0.22404  1.0000
  H   H1376     1.0  0.65574  0.14730  0.36118  1.0000
  C   C793      1.0  0.55922  0.05641  0.20690  1.0000
  C   C794      1.0  0.57886  0.09946  0.28930  1.0000
  C   C795      1.0  0.58384  0.11391  0.17448  1.0000
  C   C796      1.0  0.60017  0.13092  0.16727  1.0000
  C   C797      1.0  0.55658  0.04363  0.17538  1.0000
  C   C798      1.0  0.57895  0.09205  0.32654  1.0000
  H   H1377     1.0  0.58412  0.07721  0.19247  1.0000
  H   H1378     1.0  0.56598  0.07752  0.16892  1.0000
  H   H1379     1.0  0.58542  0.11783  0.23138  1.0000
  H   H1380     1.0  0.59799  0.10678  0.21549  1.0000
  H   H1381     1.0  0.58665  0.08224  0.25802  1.0000
  H   H1382     1.0  0.56409  0.07292  0.26892  1.0000
  H   H1383     1.0  0.55484  0.10398  0.23313  1.0000
  C   C799      1.0  0.54123  0.08568  0.18917  1.0000
  H   H1384     1.0  0.72576  0.14927  0.88159  1.0000
  H   H1385     1.0  0.56606  0.05277  0.22889  1.0000
  H   H1386     1.0  0.56888  0.10482  0.28890  1.0000
  H   H1387     1.0  0.59210  0.11045  0.28569  1.0000
  H   H1388     1.0  0.58300  0.10419  0.15320  1.0000
  H   H1389     1.0  0.57234  0.11704  0.17202  1.0000
  H   H1390     1.0  0.59912  0.13533  0.13968  1.0000
  H   H1391     1.0  0.60132  0.14151  0.18678  1.0000
  H   H1392     1.0  0.61226  0.12867  0.16921  1.0000
  H   H1393     1.0  0.54948  0.04644  0.15275  1.0000
  H   H1394     1.0  0.56951  0.04473  0.16605  1.0000
  H   H1395     1.0  0.58837  0.08600  0.32805  1.0000
  H   H1396     1.0  0.56560  0.08198  0.33310  1.0000
  N   N46       1.0  0.51678  0.01909  0.48841  1.0000
  H   H1397     1.0  0.67190  0.23093  0.58749  1.0000
  C   C800      1.0  0.50063  0.02179  0.49775  1.0000
  C   C801      1.0  0.53255  0.03316  0.50802  1.0000
  S   S181      1.0  0.71056  0.23826  0.59767  1.0000
  H   H1398     1.0  0.60303  0.00866  0.61583  1.0000
  H   H1399     1.0  0.55826  0.02194  0.09630  1.0000
  C   C802      1.0  0.53060  0.03587  0.54886  1.0000
  H   H1400     1.0  0.65801  0.10752  0.32241  1.0000
  H   H1401     1.0  0.49506  0.20523  0.10361  1.0000
  H   H1402     1.0  0.54855  0.09282  0.16567  1.0000
  C   C803      1.0  0.48689  0.13893  0.41878  1.0000
  C   C804      1.0  0.54789  0.04961  0.56549  1.0000
  H   H1403     1.0  0.71604  0.15499  0.84453  1.0000
  C   C805      1.0  0.56644  0.23354  0.51805  1.0000
  H   H1404     1.0  0.49546  0.01573  0.52403  1.0000
  H   H1405     1.0  0.50420  0.03613  0.50159  1.0000
  H   H1406     1.0  0.53640  0.04613  0.49517  1.0000
  H   H1407     1.0  0.54417  0.03025  0.50573  1.0000
  C   C806      1.0  0.51519  0.00144  0.50079  1.0000
  H   H1408     1.0  0.54080  0.23727  0.55392  1.0000
  H   H1409     1.0  0.52426  0.00704  0.99333  1.0000
  H   H1410     1.0  0.50899  0.01172  0.43233  1.0000
  H   H1411     1.0  0.52014  0.00397  0.06634  1.0000
  C   C807      1.0  0.67373  0.17206  0.86833  1.0000
  H   H1412     1.0  0.52706  0.02350  0.56363  1.0000
  H   H1413     1.0  0.52035  0.04063  0.55362  1.0000
  C   C808      1.0  0.53068  0.22448  0.48427  1.0000
  C   C809      1.0  0.72316  0.22102  0.75263  1.0000
  H   H1414     1.0  0.49942  0.16774  0.07899  1.0000
  C   C810      1.0  0.53699  0.02017  0.43537  1.0000
  H   H1415     1.0  0.64272  0.09842  0.35742  1.0000
  H   H1416     1.0  0.66474  0.06976  0.36268  1.0000
  H   H1417     1.0  0.55090  0.02163  0.38602  1.0000
  H   H1418     1.0  0.65677  0.04901  0.30994  1.0000
  H   H1419     1.0  0.50946  0.13891  0.05002  1.0000
  H   H1420     1.0  0.55215  0.06237  0.55165  1.0000
  H   H1421     1.0  0.54609  0.05179  0.59435  1.0000
  H   H1422     1.0  0.55844  0.04502  0.56341  1.0000
  N   N47       1.0  0.52793  0.19315  0.03524  1.0000
  C   C811      1.0  0.52022  0.18969  0.99740  1.0000
  C   C812      1.0  0.52052  0.20375  0.05684  1.0000
  C   C813      1.0  0.54761  0.20408  0.03246  1.0000
  C   C814      1.0  0.52505  0.17631  0.05381  1.0000
  C   C815      1.0  0.50569  0.16283  0.05828  1.0000
  C   C816      1.0  0.52631  0.17855  0.97232  1.0000
  C   C817      1.0  0.69050  0.23162  0.05099  1.0000
  H   H1423     1.0  0.53626  0.22477  0.63683  1.0000
  H   H1424     1.0  0.69994  0.12120  0.83603  1.0000
  C   C818      1.0  0.50258  0.18450  0.62537  1.0000
  C   C819      1.0  0.66710  0.09721  0.40681  1.0000
  H   H1425     1.0  0.52326  0.20250  0.98428  1.0000
  H   H1426     1.0  0.50563  0.18275  0.99715  1.0000
  H   H1427     1.0  0.52213  0.20220  0.08617  1.0000
  C   C820      1.0  0.52078  0.02203  0.95056  1.0000
  H   H1428     1.0  0.54213  0.23487  0.47130  1.0000
  H   H1429     1.0  0.69997  0.18853  0.85261  1.0000
  C   C821      1.0  0.52951  0.02127  0.98693  1.0000
  H   H1430     1.0  0.53092  0.17920  0.08142  1.0000
  H   H1431     1.0  0.50626  0.01584  0.95270  1.0000
  C   C822      1.0  0.61106  0.99772  0.57084  1.0000
  H   H1432     1.0  0.72988  0.18481  0.94289  1.0000
  C   C823      1.0  0.53866  0.02240  0.39470  1.0000
  H   H1433     1.0  0.68588  0.10828  0.32355  1.0000
  H   H1434     1.0  0.65502  0.13546  0.31987  1.0000
  C   C824      1.0  0.52015  0.02147  0.44863  1.0000
  C   C825      1.0  0.55645  0.23355  0.59599  1.0000
  H   H1435     1.0  0.54904  0.03068  0.44792  1.0000
  C   C826      1.0  0.53832  0.03080  0.04912  1.0000
  H   H1436     1.0  0.50179  0.00881  0.02462  1.0000
  C   C827      1.0  0.71584  0.10673  0.34106  1.0000
  H   H1437     1.0  0.55397  0.19606  0.02085  1.0000
  C   C828      1.0  0.66661  0.23686  0.56672  1.0000
  C   C829      1.0  0.65767  0.07538  0.31035  1.0000
  H   H1438     1.0  0.55237  0.99266  0.67578  1.0000
  C   C830      1.0  0.54358  0.22615  0.56307  1.0000
  H   H1439     1.0  0.50100  0.14834  0.41740  1.0000
  C   C831      1.0  0.65092  0.23762  0.43717  1.0000
  C   C832      1.0  0.58344  0.00658  0.49079  1.0000
  H   H1440     1.0  0.52155  0.16490  0.98219  1.0000
  C   C833      1.0  0.55211  0.06140  0.99954  1.0000
  H   H1441     1.0  0.52785  0.00045  0.49739  1.0000
  H   H1442     1.0  0.62349  0.23243  0.45045  1.0000
  H   H1443     1.0  0.58394  0.99925  0.76759  1.0000
  C   C834      1.0  0.54084  0.18983  0.56756  1.0000
  C   C835      1.0  0.55510  0.07930  0.98450  1.0000
  C   C836      1.0  0.72682  0.17168  0.93005  1.0000
  H   H1444     1.0  0.52445  0.05209  0.98692  1.0000
  H   H1445     1.0  0.49994  0.20505  0.02186  1.0000
  H   H1446     1.0  0.55729  0.19739  0.52116  1.0000
  H   H1447     1.0  0.49647  0.16163  0.52675  1.0000
  C   C837      1.0  0.53580  0.21115  0.50386  1.0000
  H   H1448     1.0  0.58658  0.00495  0.66891  1.0000
  H   H1449     1.0  0.55589  0.20234  0.08857  1.0000
  H   H1450     1.0  0.53927  0.19540  0.59376  1.0000
  H   H1451     1.0  0.54445  0.08160  0.24484  1.0000
  H   H1452     1.0  0.56073  0.06398  0.02391  1.0000
  H   H1453     1.0  0.55636  0.05442  0.97906  1.0000
  C   C838      1.0  0.66875  0.08192  0.42708  1.0000
  C   C839      1.0  0.50456  0.14515  0.07096  1.0000
  H   H1454     1.0  0.72006  0.22027  0.69454  1.0000
  H   H1455     1.0  0.55379  0.22232  0.07953  1.0000
  H   H1456     1.0  0.53925  0.20354  0.48316  1.0000
  C   C840      1.0  0.48813  0.18228  0.65190  1.0000
  C   C841      1.0  0.71509  0.15323  0.87419  1.0000
  H   H1457     1.0  0.63760  0.12620  0.35185  1.0000
  H   H1458     1.0  0.65940  0.22387  0.92676  1.0000
  H   H1459     1.0  0.70298  0.15622  0.96109  1.0000
  H   H1460     1.0  0.55143  0.08702  0.00447  1.0000
  H   H1461     1.0  0.56922  0.08691  0.97831  1.0000
  H   H1462     1.0  0.54722  0.07756  0.95931  1.0000
  H   H1463     1.0  0.55900  0.18018  0.59059  1.0000
  N   N48       1.0  0.65362  0.22604  0.46495  1.0000
  C   C842      1.0  0.66754  0.22056  0.45214  1.0000
  C   C843      1.0  0.63690  0.20957  0.47058  1.0000
  C   C844      1.0  0.64896  0.05584  0.29944  1.0000
  C   C845      1.0  0.65199  0.13400  0.34893  1.0000
  H   H1464     1.0  0.55270  0.01038  0.54371  1.0000
  C   C846      1.0  0.49530  0.03074  0.01392  1.0000
  C   C847      1.0  0.68601  0.10617  0.35302  1.0000
  C   C848      1.0  0.62719  0.19903  0.43609  1.0000
  C   C849      1.0  0.61115  0.18218  0.44558  1.0000
  C   C850      1.0  0.52531  0.08980  0.19331  1.0000
  C   C851      1.0  0.57388  0.22901  0.48348  1.0000
  H   H1465     1.0  0.66350  0.21339  0.42585  1.0000
  H   H1466     1.0  0.66896  0.21099  0.47084  1.0000
  H   H1467     1.0  0.64729  0.23098  0.99598  1.0000
  H   H1468     1.0  0.62731  0.21264  0.48614  1.0000
  H   H1469     1.0  0.64465  0.07159  0.36158  1.0000
  H   H1470     1.0  0.67235  0.07463  0.48135  1.0000
  C   C852      1.0  0.65843  0.07791  0.35188  1.0000
  H   H1471     1.0  0.67640  0.13375  0.36456  1.0000
  H   H1472     1.0  0.53740  0.03884  0.07229  1.0000
  H   H1473     1.0  0.67107  0.08114  0.29916  1.0000
  C   C853      1.0  0.66577  0.22790  0.53026  1.0000
  H   H1474     1.0  0.50320  0.22441  0.07532  1.0000
  C   C854      1.0  0.54618  0.17498  0.57556  1.0000
  H   H1475     1.0  0.52078  0.99776  0.92863  1.0000
  H   H1476     1.0  0.62244  0.20691  0.41905  1.0000
  H   H1477     1.0  0.63589  0.19506  0.41987  1.0000
  H   H1478     1.0  0.60169  0.18533  0.46126  1.0000
  H   H1479     1.0  0.70436  0.23176  0.10123  1.0000
  H   H1480     1.0  0.61525  0.17340  0.46150  1.0000
  C   C855      1.0  0.66223  0.12514  0.36785  1.0000
  H   H1481     1.0  0.70209  0.09893  0.39017  1.0000
  H   H1482     1.0  0.60434  0.17491  0.42055  1.0000
  H   H1483     1.0  0.50956  0.22054  0.76126  1.0000
  H   H1484     1.0  0.72719  0.17412  0.00506  1.0000
  H   H1485     1.0  0.54723  0.16837  0.55021  1.0000
  H   H1486     1.0  0.64984  0.08156  0.29737  1.0000
  H   H1487     1.0  0.67738  0.10996  0.41779  1.0000
  H   H1488     1.0  0.69282  0.08342  0.35278  1.0000
  H   H1489     1.0  0.65439  0.09687  0.41582  1.0000
  S   S182      1.0  0.50386  0.23002  0.60069  1.0000
  Fe  Fe95      1.0  0.72279  0.22221  0.96033  1.0000
  H   H1490     1.0  0.51231  0.14687  0.09635  1.0000
  H   H1491     1.0  0.58301  0.10286  0.34709  1.0000
  H   H1492     1.0  0.65721  0.21366  0.53295  1.0000
  H   H1493     1.0  0.67992  0.07942  0.41793  1.0000
  H   H1494     1.0  0.56198  0.22439  0.60476  1.0000
  C   C856      1.0  0.51894  0.17741  0.93407  1.0000
  H   H1495     1.0  0.65935  0.12476  0.39692  1.0000
  C   C857      1.0  0.73365  0.22979  0.78299  1.0000
  H   H1496     1.0  0.71361  0.22671  0.06137  1.0000
  C   C858      1.0  0.58858  0.00302  0.73982  1.0000
  H   H1497     1.0  0.69257  0.11963  0.36531  1.0000
  H   H1498     1.0  0.71331  0.10535  0.31151  1.0000
  H   H1499     1.0  0.65653  0.06954  0.42267  1.0000
  H   H1500     1.0  0.50725  0.02496  0.05964  1.0000
  H   H1501     1.0  0.52781  0.18387  0.55344  1.0000
  H   H1502     1.0  0.50433  0.17151  0.93383  1.0000
  H   H1503     1.0  0.56406  0.22494  0.46095  1.0000
  H   H1504     1.0  0.64809  0.05443  0.26965  1.0000
  H   H1505     1.0  0.59997  0.99381  0.67618  1.0000
  H   H1506     1.0  0.65950  0.08706  0.47847  1.0000
  H   H1507     1.0  0.64849  0.23114  0.41003  1.0000
  C   C859      1.0  0.67972  0.22646  0.84059  1.0000
  C   C860      1.0  0.65906  0.23627  0.50017  1.0000
  H   H1508     1.0  0.51884  0.01231  0.89547  1.0000
  H   H1509     1.0  0.62859  0.23406  0.04546  1.0000
  H   H1510     1.0  0.71558  0.14435  0.94781  1.0000
  C   C861      1.0  0.73064  0.18556  0.87165  1.0000
  H   H1511     1.0  0.48862  0.02483  0.44715  1.0000
  H   H1512     1.0  0.69446  0.23540  0.02304  1.0000
  C   C862      1.0  0.55792  0.21244  0.06811  1.0000
  H   H1513     1.0  0.55034  0.21513  0.01363  1.0000
  H   H1514     1.0  0.69458  0.22101  0.40861  1.0000
  H   H1515     1.0  0.57732  0.23806  0.53864  1.0000
  H   H1516     1.0  0.72248  0.12095  0.34882  1.0000
  H   H1517     1.0  0.54381  0.02542  0.98264  1.0000
  N   N49       1.0  0.71825  0.17035  0.89341  1.0000
  H   H1518     1.0  0.67237  0.22430  0.98559  1.0000
  H   H1519     1.0  0.52809  0.21808  0.05191  1.0000
  H   H1520     1.0  0.67925  0.22949  0.52441  1.0000
  H   H1521     1.0  0.68068  0.21383  0.84480  1.0000
  Fe  Fe96      1.0  0.73208  0.23356  0.88233  1.0000
  C   C863      1.0  0.54737  0.23710  0.62834  1.0000
  H   H1522     1.0  0.50769  0.19769  0.61332  1.0000
  H   H1523     1.0  0.51714  0.08246  0.21601  1.0000
  H   H1524     1.0  0.53871  0.99879  0.62154  1.0000
  H   H1525     1.0  0.51283  0.00014  0.53011  1.0000
  C   C864      1.0  0.52536  0.01180  0.92133  1.0000
  C   C865      1.0  0.71642  0.15728  0.95716  1.0000
  S   S183      1.0  0.49003  0.23271  0.99540  1.0000
  H   H1526     1.0  0.66570  0.15855  0.87798  1.0000
  H   H1527     1.0  0.53945  0.03548  0.38719  1.0000
  H   H1528     1.0  0.69354  0.13524  0.90859  1.0000
  H   H1529     1.0  0.52725  0.01183  0.38032  1.0000
  H   H1530     1.0  0.69236  0.23032  0.79015  1.0000
  H   H1531     1.0  0.69277  0.16569  0.84100  1.0000
  C   C866      1.0  0.70731  0.23489  0.07250  1.0000
  C   C867      1.0  0.69707  0.13720  0.87997  1.0000
  H   H1532     1.0  0.57782  0.21818  0.48832  1.0000
  H   H1533     1.0  0.65328  0.23503  0.57473  1.0000
  H   H1534     1.0  0.70042  0.21960  0.45505  1.0000
  H   H1535     1.0  0.53672  0.00718  0.44156  1.0000
  H   H1536     1.0  0.52109  0.03463  0.44080  1.0000
  C   C868      1.0  0.49480  0.20999  0.07602  1.0000
  C   C869      1.0  0.57772  0.22198  0.06177  1.0000
  H   H1537     1.0  0.54869  0.02991  0.18401  1.0000
  H   H1538     1.0  0.60308  0.00740  0.73983  1.0000
  H   H1539     1.0  0.66716  0.20735  0.91595  1.0000
  H   H1540     1.0  0.70458  0.18487  0.91471  1.0000
  H   H1541     1.0  0.53810  0.01756  0.11983  1.0000
  S   S184      1.0  0.49679  0.22135  0.83221  1.0000
  H   H1542     1.0  0.68393  0.10902  0.86883  1.0000
  H   H1543     1.0  0.68632  0.13904  0.86569  1.0000
  C   C870      1.0  0.68609  0.23568  0.44673  1.0000
  C   C871      1.0  0.69906  0.22845  0.43456  1.0000
  H   H1544     1.0  0.51361  0.18312  0.63961  1.0000
  S   S185      1.0  0.49479  0.06606  0.50084  1.0000
  H   H1545     1.0  0.58053  0.23226  0.04122  1.0000
  C   C872      1.0  0.65237  0.23331  0.02420  1.0000
  H   H1546     1.0  0.58554  0.01414  0.73198  1.0000
  H   H1547     1.0  0.61637  0.01024  0.55593  1.0000
  S   S186      1.0  0.49138  0.05126  0.10939  1.0000
  H   H1548     1.0  0.52171  0.20928  0.43397  1.0000
  H   H1549     1.0  0.58702  0.99970  0.57958  1.0000
  H   H1550     1.0  0.71787  0.15085  0.01304  1.0000
  H   H1551     1.0  0.52350  0.20138  0.51569  1.0000
  H   H1552     1.0  0.56710  0.99630  0.61858  1.0000
  H   H1553     1.0  0.71223  0.23951  0.43092  1.0000
  C   C873      1.0  0.58596  0.99176  0.67511  1.0000
  H   H1554     1.0  0.70707  0.24010  0.82831  1.0000
  S   S187      1.0  0.48794  0.19111  0.53637  1.0000
  H   H1555     1.0  0.64783  0.23834  0.51117  1.0000
  H   H1556     1.0  0.68505  0.24036  0.06282  1.0000
  H   H1557     1.0  0.62207  0.99675  0.58608  1.0000
  H   H1558     1.0  0.48591  0.12749  0.43469  1.0000
  S   S188      1.0  0.50742  0.25197  0.92034  1.0000
  C   C874      1.0  0.49130  0.43034  0.27889  1.0000
  C   C875      1.0  0.50393  0.46011  0.03628  1.0000
  H   H1559     1.0  0.62367  0.47168  0.11301  1.0000
  S   S189      1.0  0.49469  0.26401  0.59155  1.0000
  Fe  Fe97      1.0  0.51436  0.25502  0.56957  1.0000
  S   S190      1.0  0.54347  0.27372  0.57149  1.0000
  H   H1560     1.0  0.69384  0.26140  0.83723  1.0000
  H   H1561     1.0  0.67540  0.25116  0.56576  1.0000
  H   H1562     1.0  0.66716  0.46939  0.49206  1.0000
  H   H1563     1.0  0.66506  0.28211  0.23832  1.0000
  S   S191      1.0  0.71063  0.42413  0.95488  1.0000
  C   C876      1.0  0.51835  0.27713  0.44184  1.0000
  S   S192      1.0  0.71600  0.47028  0.93013  1.0000
  Fe  Fe98      1.0  0.63995  0.31616  0.13172  1.0000
  S   S193      1.0  0.66866  0.32639  0.12053  1.0000
  S   S194      1.0  0.62776  0.30646  0.18581  1.0000
  Fe  Fe99      1.0  0.63020  0.31716  0.05258  1.0000
  S   S195      1.0  0.65849  0.32748  0.03483  1.0000
  S   S196      1.0  0.60787  0.31476  0.01409  1.0000
  Fe  Fe100     1.0  0.66036  0.30769  0.07287  1.0000
  S   S197      1.0  0.67614  0.29160  0.06937  1.0000
  Fe  Fe101     1.0  0.66477  0.34539  0.08361  1.0000
  S   S198      1.0  0.68495  0.37399  0.08872  1.0000
  S   S199      1.0  0.63169  0.29591  0.08656  1.0000
  S   S200      1.0  0.63645  0.33666  0.09873  1.0000
  H   H1564     1.0  0.51321  0.30569  0.60939  1.0000
  S   S201      1.0  0.71678  0.46281  0.59067  1.0000
  H   H1565     1.0  0.68038  0.25311  0.79764  1.0000
  H   H1566     1.0  0.69785  0.38583  0.69116  1.0000
  C   C877      1.0  0.69649  0.41890  0.63823  1.0000
  H   H1567     1.0  0.52861  0.36405  0.42339  1.0000
  Fe  Fe102     1.0  0.62076  0.31173  0.43711  1.0000
  S   S202      1.0  0.64078  0.31604  0.48143  1.0000
  S   S203      1.0  0.59217  0.29151  0.43522  1.0000
  Fe  Fe103     1.0  0.64815  0.33727  0.38650  1.0000
  S   S204      1.0  0.67021  0.34385  0.42731  1.0000
  S   S205      1.0  0.65546  0.35032  0.33242  1.0000
  Fe  Fe104     1.0  0.65831  0.31477  0.43730  1.0000
  S   S206      1.0  0.67389  0.29856  0.43137  1.0000
  Fe  Fe105     1.0  0.65102  0.34485  0.46749  1.0000
  S   S207      1.0  0.65627  0.36699  0.50847  1.0000
  S   S208      1.0  0.63749  0.30826  0.39406  1.0000
  S   S209      1.0  0.62967  0.34048  0.42588  1.0000
  C   C878      1.0  0.56075  0.43035  0.31349  1.0000
  S   S210      1.0  0.50645  0.41008  0.02028  1.0000
  S   S211      1.0  0.55446  0.47259  0.12609  1.0000
  C   C879      1.0  0.58648  0.41172  0.49773  1.0000
  S   S212      1.0  0.56203  0.47025  0.49231  1.0000
  C   C880      1.0  0.52106  0.43125  0.41346  1.0000
  C   C881      1.0  0.53518  0.44619  0.40055  1.0000
  C   C882      1.0  0.54775  0.45835  0.42457  1.0000
  C   C883      1.0  0.54632  0.45551  0.46158  1.0000
  C   C884      1.0  0.53228  0.44053  0.47443  1.0000
  C   C885      1.0  0.51965  0.42845  0.45045  1.0000
  H   H1568     1.0  0.53637  0.44842  0.37199  1.0000
  H   H1569     1.0  0.55859  0.46986  0.41447  1.0000
  H   H1570     1.0  0.53114  0.43828  0.50303  1.0000
  H   H1571     1.0  0.50887  0.41697  0.46062  1.0000
  C   C886      1.0  0.52015  0.42701  0.05019  1.0000
  C   C887      1.0  0.53668  0.43935  0.03913  1.0000
  C   C888      1.0  0.54748  0.45328  0.06240  1.0000
  C   C889      1.0  0.54164  0.45506  0.09656  1.0000
  C   C890      1.0  0.52513  0.44275  0.10755  1.0000
  C   C891      1.0  0.51452  0.42864  0.08465  1.0000
  H   H1572     1.0  0.54112  0.43812  0.01253  1.0000
  H   H1573     1.0  0.56028  0.46262  0.05386  1.0000
  H   H1574     1.0  0.52047  0.44414  0.13376  1.0000
  H   H1575     1.0  0.50193  0.41909  0.09357  1.0000
  C   C892      1.0  0.68308  0.29383  0.47019  1.0000
  C   C893      1.0  0.69246  0.28356  0.46682  1.0000
  C   C894      1.0  0.70026  0.27982  0.49724  1.0000
  C   C895      1.0  0.69880  0.28641  0.53112  1.0000
  C   C896      1.0  0.68943  0.29669  0.53443  1.0000
  C   C897      1.0  0.68150  0.30033  0.50406  1.0000
  H   H1576     1.0  0.69387  0.27865  0.44060  1.0000
  H   H1577     1.0  0.56597  0.44256  0.33055  1.0000
  H   H1578     1.0  0.68833  0.30191  0.56057  1.0000
  H   H1579     1.0  0.67434  0.30833  0.50682  1.0000
  C   C898      1.0  0.71107  0.41231  0.52943  1.0000
  C   C899      1.0  0.69588  0.41484  0.53487  1.0000
  C   C900      1.0  0.67914  0.40097  0.52756  1.0000
  C   C901      1.0  0.67748  0.38464  0.51381  1.0000
  C   C902      1.0  0.69269  0.38231  0.50727  1.0000
  C   C903      1.0  0.70940  0.39605  0.51539  1.0000
  H   H1580     1.0  0.69701  0.42741  0.54508  1.0000
  H   H1581     1.0  0.66743  0.40286  0.53265  1.0000
  H   H1582     1.0  0.69156  0.36977  0.49689  1.0000
  H   H1583     1.0  0.72110  0.39402  0.51094  1.0000
  C   C904      1.0  0.68163  0.28462  0.02855  1.0000
  C   C905      1.0  0.67481  0.28672  0.99535  1.0000
  C   C906      1.0  0.67939  0.28054  0.96356  1.0000
  C   C907      1.0  0.69088  0.27238  0.96488  1.0000
  C   C908      1.0  0.69786  0.27059  0.99807  1.0000
  C   C909      1.0  0.69315  0.27655  0.02975  1.0000
  H   H1584     1.0  0.66588  0.29292  0.99424  1.0000
  H   H1585     1.0  0.67395  0.28201  0.93796  1.0000
  H   H1586     1.0  0.57267  0.39710  0.54438  1.0000
  H   H1587     1.0  0.69843  0.27489  0.05540  1.0000
  C   C910      1.0  0.63557  0.31902  0.22610  1.0000
  C   C911      1.0  0.64951  0.33589  0.22656  1.0000
  C   C912      1.0  0.65547  0.34537  0.25934  1.0000
  C   C913      1.0  0.64759  0.33804  0.29183  1.0000
  C   C914      1.0  0.63363  0.32119  0.29132  1.0000
  C   C915      1.0  0.62768  0.31172  0.25858  1.0000
  H   H1588     1.0  0.65565  0.34164  0.20167  1.0000
  H   H1589     1.0  0.66622  0.35844  0.25953  1.0000
  H   H1590     1.0  0.62730  0.31555  0.31610  1.0000
  H   H1591     1.0  0.61681  0.29873  0.25832  1.0000
  C   C916      1.0  0.70463  0.41018  0.99223  1.0000
  C   C917      1.0  0.69329  0.39224  0.98676  1.0000
  C   C918      1.0  0.68747  0.38088  0.01602  1.0000
  C   C919      1.0  0.69287  0.38745  0.05103  1.0000
  C   C920      1.0  0.70447  0.40532  0.05647  1.0000
  C   C921      1.0  0.71036  0.41665  0.02719  1.0000
  H   H1592     1.0  0.68884  0.38714  0.95976  1.0000
  H   H1593     1.0  0.67861  0.36713  0.01152  1.0000
  H   H1594     1.0  0.70877  0.41045  0.08350  1.0000
  H   H1595     1.0  0.71918  0.43041  0.03168  1.0000
  C   C922      1.0  0.63626  0.24368  0.44497  1.0000
  C   C923      1.0  0.55683  0.27867  0.53334  1.0000
  C   C924      1.0  0.57462  0.29075  0.53681  1.0000
  C   C925      1.0  0.58563  0.29491  0.50692  1.0000
  C   C926      1.0  0.57887  0.28697  0.47338  1.0000
  C   C927      1.0  0.56106  0.27495  0.46991  1.0000
  C   C928      1.0  0.55009  0.27083  0.49977  1.0000
  H   H1596     1.0  0.57993  0.29691  0.56274  1.0000
  H   H1597     1.0  0.59933  0.30424  0.50982  1.0000
  H   H1598     1.0  0.55575  0.26881  0.44397  1.0000
  H   H1599     1.0  0.53640  0.26166  0.49680  1.0000
  C   C929      1.0  0.55745  0.26298  0.00089  1.0000
  C   C930      1.0  0.57011  0.26483  0.02769  1.0000
  C   C931      1.0  0.58554  0.28062  0.03207  1.0000
  C   C932      1.0  0.58844  0.29479  0.00971  1.0000
  C   C933      1.0  0.57563  0.29308  0.98324  1.0000
  C   C934      1.0  0.56022  0.27719  0.97871  1.0000
  H   H1600     1.0  0.51277  0.41016  0.16365  1.0000
  H   H1601     1.0  0.59519  0.28181  0.05272  1.0000
  H   H1602     1.0  0.57784  0.30392  0.96562  1.0000
  H   H1603     1.0  0.55074  0.27576  0.95750  1.0000
  N   N50       1.0  0.52391  0.43857  0.26258  1.0000
  C   C935      1.0  0.54120  0.44182  0.28102  1.0000
  C   C936      1.0  0.52470  0.45565  0.24796  1.0000
  H   H1604     1.0  0.52872  0.29023  0.89483  1.0000
  C   C937      1.0  0.51890  0.42459  0.23317  1.0000
  C   C938      1.0  0.53216  0.42804  0.20259  1.0000
  C   C939      1.0  0.54198  0.42591  0.30031  1.0000
  H   H1605     1.0  0.65005  0.29217  0.24411  1.0000
  C   C940      1.0  0.54281  0.46942  0.23482  1.0000
  S   S213      1.0  0.53879  0.24245  0.99564  1.0000
  H   H1606     1.0  0.67977  0.43902  0.61031  1.0000
  N   N51       1.0  0.67522  0.29956  0.30707  1.0000
  C   C941      1.0  0.53884  0.48707  0.98328  1.0000
  H   H1607     1.0  0.54467  0.45264  0.30166  1.0000
  H   H1608     1.0  0.55218  0.44661  0.26189  1.0000
  H   H1609     1.0  0.59789  0.40861  0.50249  1.0000
  H   H1610     1.0  0.52104  0.46294  0.26912  1.0000
  H   H1611     1.0  0.68626  0.40523  0.75409  1.0000
  H   H1612     1.0  0.52242  0.26160  0.04054  1.0000
  S   S214      1.0  0.72955  0.24999  0.97965  1.0000
  H   H1613     1.0  0.51477  0.45282  0.22569  1.0000
  H   H1614     1.0  0.54531  0.43002  0.21304  1.0000
  H   H1615     1.0  0.53336  0.43971  0.18738  1.0000
  H   H1616     1.0  0.53352  0.42248  0.32426  1.0000
  H   H1617     1.0  0.53769  0.41417  0.28217  1.0000
  H   H1618     1.0  0.64756  0.46890  0.02556  1.0000
  H   H1619     1.0  0.55694  0.24242  0.65125  1.0000
  H   H1620     1.0  0.55177  0.47564  0.25836  1.0000
  H   H1621     1.0  0.54946  0.46359  0.21713  1.0000
  Fe  Fe106     1.0  0.72490  0.48833  0.97897  1.0000
  H   H1622     1.0  0.48936  0.28757  0.20140  1.0000
  H   H1623     1.0  0.70685  0.26459  0.99944  1.0000
  H   H1624     1.0  0.50631  0.42269  0.21972  1.0000
  C   C942      1.0  0.50317  0.36190  0.16336  1.0000
  C   C943      1.0  0.70840  0.33571  0.03333  1.0000
  H   H1625     1.0  0.64596  0.26459  0.40562  1.0000
  H   H1626     1.0  0.64235  0.27168  0.28479  1.0000
  H   H1627     1.0  0.72035  0.39492  0.65073  1.0000
  H   H1628     1.0  0.65115  0.48026  0.17447  1.0000
  H   H1629     1.0  0.71344  0.34786  0.35168  1.0000
  C   C944      1.0  0.72176  0.34464  0.47323  1.0000
  N   N52       1.0  0.53369  0.31849  0.49031  1.0000
  C   C945      1.0  0.53659  0.31557  0.52939  1.0000
  C   C946      1.0  0.54918  0.31921  0.46941  1.0000
  C   C947      1.0  0.53169  0.33549  0.48803  1.0000
  C   C948      1.0  0.51717  0.30381  0.47451  1.0000
  C   C949      1.0  0.51567  0.28478  0.47761  1.0000
  C   C950      1.0  0.52025  0.31006  0.55333  1.0000
  C   C951      1.0  0.53196  0.34273  0.44975  1.0000
  C   C952      1.0  0.56729  0.33424  0.48080  1.0000
  C   C953      1.0  0.58174  0.33478  0.45573  1.0000
  H   H1630     1.0  0.51675  0.26344  0.44571  1.0000
  C   C954      1.0  0.52816  0.35897  0.45095  1.0000
  H   H1631     1.0  0.54190  0.30557  0.53237  1.0000
  H   H1632     1.0  0.55061  0.30671  0.47243  1.0000
  H   H1633     1.0  0.54691  0.32003  0.44006  1.0000
  H   H1634     1.0  0.54204  0.34616  0.50461  1.0000
  H   H1635     1.0  0.51902  0.33386  0.49998  1.0000
  H   H1636     1.0  0.50532  0.30401  0.48696  1.0000
  H   H1637     1.0  0.51538  0.30604  0.44569  1.0000
  H   H1638     1.0  0.50218  0.27611  0.48638  1.0000
  H   H1639     1.0  0.52467  0.28366  0.49824  1.0000
  H   H1640     1.0  0.51041  0.29656  0.54567  1.0000
  H   H1641     1.0  0.52183  0.33284  0.43167  1.0000
  H   H1642     1.0  0.54504  0.34664  0.43758  1.0000
  H   H1643     1.0  0.56707  0.34732  0.48027  1.0000
  H   H1644     1.0  0.57110  0.33212  0.50842  1.0000
  H   H1645     1.0  0.59465  0.34532  0.46495  1.0000
  H   H1646     1.0  0.58278  0.32205  0.45578  1.0000
  H   H1647     1.0  0.57899  0.33755  0.42779  1.0000
  H   H1648     1.0  0.67753  0.47297  0.00807  1.0000
  C   C955      1.0  0.49031  0.35001  0.19061  1.0000
  H   H1649     1.0  0.69318  0.25603  0.73918  1.0000
  H   H1650     1.0  0.51480  0.35554  0.46151  1.0000
  H   H1651     1.0  0.53808  0.36959  0.46820  1.0000
  C   C956      1.0  0.72349  0.33031  0.03858  1.0000
  H   H1652     1.0  0.49911  0.37224  0.15487  1.0000
  H   H1653     1.0  0.58428  0.43196  0.39195  1.0000
  H   H1654     1.0  0.68745  0.33801  0.31036  1.0000
  C   C957      1.0  0.62206  0.44466  0.50518  1.0000
  S   S215      1.0  0.50551  0.41627  0.38272  1.0000
  H   H1655     1.0  0.70851  0.41650  0.77158  1.0000
  H   H1656     1.0  0.49181  0.44310  0.27005  1.0000
  C   C958      1.0  0.58382  0.44383  0.44425  1.0000
  C   C959      1.0  0.62499  0.27194  0.32595  1.0000
  C   C960      1.0  0.68385  0.27755  0.34082  1.0000
  H   H1657     1.0  0.51435  0.45707  0.02445  1.0000
  C   C961      1.0  0.55547  0.48488  0.97429  1.0000
  H   H1658     1.0  0.54707  0.32776  0.54185  1.0000
  H   H1659     1.0  0.60478  0.43513  0.44391  1.0000
  H   H1660     1.0  0.67152  0.31810  0.27170  1.0000
  C   C962      1.0  0.63879  0.46024  0.49170  1.0000
  H   H1661     1.0  0.69876  0.42182  0.60917  1.0000
  H   H1662     1.0  0.56756  0.24625  0.58913  1.0000
  H   H1663     1.0  0.68118  0.39329  0.69141  1.0000
  H   H1664     1.0  0.71209  0.34673  0.01430  1.0000
  H   H1665     1.0  0.69633  0.32439  0.02290  1.0000
  C   C963      1.0  0.64330  0.27479  0.31388  1.0000
  H   H1666     1.0  0.72498  0.27070  0.66523  1.0000
  H   H1667     1.0  0.61358  0.47412  0.49807  1.0000
  S   S216      1.0  0.73229  0.42878  0.54127  1.0000
  H   H1668     1.0  0.69336  0.28918  0.28935  1.0000
  H   H1669     1.0  0.69959  0.37071  0.61916  1.0000
  H   H1670     1.0  0.50736  0.27668  0.00715  1.0000
  H   H1671     1.0  0.58676  0.25607  0.46530  1.0000
  H   H1672     1.0  0.51531  0.33703  0.99541  1.0000
  H   H1673     1.0  0.66538  0.43606  0.64747  1.0000
  C   C964      1.0  0.68085  0.28478  0.30432  1.0000
  H   H1674     1.0  0.51396  0.31920  0.55065  1.0000
  H   H1675     1.0  0.50893  0.29041  0.91229  1.0000
  C   C965      1.0  0.69535  0.39753  0.68551  1.0000
  H   H1676     1.0  0.49624  0.34179  0.20250  1.0000
  H   H1677     1.0  0.62080  0.28130  0.31257  1.0000
  H   H1678     1.0  0.50834  0.27668  0.42151  1.0000
  H   H1679     1.0  0.68962  0.31335  0.26095  1.0000
  H   H1680     1.0  0.62792  0.24441  0.38939  1.0000
  C   C966      1.0  0.51442  0.26709  0.05522  1.0000
  C   C967      1.0  0.65547  0.45846  0.50332  1.0000
  H   H1681     1.0  0.49435  0.48004  0.03625  1.0000
  S   S217      1.0  0.69639  0.26455  0.92491  1.0000
  H   H1682     1.0  0.73089  0.43185  0.62057  1.0000
  H   H1683     1.0  0.71681  0.40108  0.60684  1.0000
  H   H1684     1.0  0.69202  0.28155  0.76731  1.0000
  H   H1685     1.0  0.67809  0.44854  0.04563  1.0000
  C   C968      1.0  0.59013  0.24494  0.47119  1.0000
  H   H1686     1.0  0.51656  0.36851  0.17589  1.0000
  H   H1687     1.0  0.72789  0.46123  0.82411  1.0000
  H   H1688     1.0  0.62383  0.44326  0.53450  1.0000
  C   C969      1.0  0.70681  0.26060  0.75064  1.0000
  H   H1689     1.0  0.63986  0.47298  0.50253  1.0000
  C   C970      1.0  0.64736  0.48290  0.14736  1.0000
  H   H1690     1.0  0.50101  0.25641  0.05875  1.0000
  C   C971      1.0  0.71679  0.40443  0.63602  1.0000
  H   H1691     1.0  0.71764  0.32086  0.80623  1.0000
  H   H1692     1.0  0.59643  0.39589  0.02597  1.0000
  H   H1693     1.0  0.66860  0.31624  0.20313  1.0000
  H   H1694     1.0  0.65966  0.35451  0.60301  1.0000
  H   H1695     1.0  0.71357  0.24944  0.68483  1.0000
  H   H1696     1.0  0.68638  0.39130  0.59500  1.0000
  H   H1697     1.0  0.59229  0.45575  0.39211  1.0000
  N   N53       1.0  0.70803  0.26904  0.78739  1.0000
  H   H1698     1.0  0.68866  0.28552  0.83013  1.0000
  C   C972      1.0  0.67818  0.43636  0.63951  1.0000
  C   C973      1.0  0.69357  0.25589  0.80969  1.0000
  C   C974      1.0  0.48618  0.44556  0.02373  1.0000
  C   C975      1.0  0.62828  0.39824  0.05605  1.0000
  C   C976      1.0  0.70431  0.28501  0.78375  1.0000
  C   C977      1.0  0.68628  0.36949  0.62554  1.0000
  H   H1699     1.0  0.50948  0.30150  0.97704  1.0000
  C   C978      1.0  0.61065  0.46633  0.55370  1.0000
  H   H1700     1.0  0.73013  0.29586  0.96858  1.0000
  H   H1701     1.0  0.62891  0.40527  0.08193  1.0000
  H   H1702     1.0  0.51347  0.35879  0.03756  1.0000
  H   H1703     1.0  0.50393  0.28593  0.04857  1.0000
  H   H1704     1.0  0.51616  0.41153  0.24461  1.0000
  H   H1705     1.0  0.66828  0.45714  0.91545  1.0000
  H   H1706     1.0  0.70199  0.26279  0.67528  1.0000
  H   H1707     1.0  0.57770  0.43172  0.51353  1.0000
  H   H1708     1.0  0.71474  0.29548  0.76862  1.0000
  H   H1709     1.0  0.49111  0.44567  0.16056  1.0000
  H   H1710     1.0  0.71524  0.31089  0.99521  1.0000
  H   H1711     1.0  0.56082  0.41937  0.32968  1.0000
  H   H1712     1.0  0.60530  0.41800  0.00933  1.0000
  H   H1713     1.0  0.72956  0.29458  0.43674  1.0000
  C   C979      1.0  0.68334  0.44038  0.03063  1.0000
  C   C980      1.0  0.62793  0.36747  0.00990  1.0000
  C   C981      1.0  0.67511  0.48432  0.01445  1.0000
  H   H1714     1.0  0.68285  0.36389  0.65269  1.0000
  H   H1715     1.0  0.72458  0.31340  0.49003  1.0000
  H   H1716     1.0  0.60573  0.41465  0.05698  1.0000
  H   H1717     1.0  0.73007  0.26297  0.79880  1.0000
  H   H1718     1.0  0.55848  0.39930  0.50956  1.0000
  S   S218      1.0  0.49862  0.24212  0.51965  1.0000
  H   H1719     1.0  0.61195  0.45821  0.44605  1.0000
  N   N54       1.0  0.69869  0.40240  0.64656  1.0000
  H   H1720     1.0  0.67119  0.27349  0.28820  1.0000
  H   H1721     1.0  0.56906  0.44181  0.39501  1.0000
  H   H1722     1.0  0.52722  0.31085  0.90076  1.0000
  H   H1723     1.0  0.71948  0.32020  0.05969  1.0000
  C   C982      1.0  0.66905  0.30323  0.20326  1.0000
  H   H1724     1.0  0.63505  0.42342  0.03001  1.0000
  H   H1725     1.0  0.69394  0.43929  0.04710  1.0000
  C   C983      1.0  0.63339  0.25348  0.41303  1.0000
  S   S219      1.0  0.72857  0.46580  0.69199  1.0000
  H   H1726     1.0  0.66949  0.24977  0.49616  1.0000
  H   H1727     1.0  0.72428  0.27284  0.83541  1.0000
  H   H1728     1.0  0.62582  0.40456  0.99925  1.0000
  C   C984      1.0  0.60495  0.46238  0.51343  1.0000
  H   H1729     1.0  0.70926  0.24865  0.75261  1.0000
  H   H1730     1.0  0.64471  0.25482  0.02972  1.0000
  H   H1731     1.0  0.70530  0.34014  0.05950  1.0000
  C   C985      1.0  0.60782  0.48202  0.56809  1.0000
  C   C986      1.0  0.67579  0.30727  0.27036  1.0000
  C   C987      1.0  0.60216  0.44567  0.45730  1.0000
  H   H1732     1.0  0.52739  0.47463  0.97512  1.0000
  C   C988      1.0  0.62812  0.46995  0.14036  1.0000
  C   C989      1.0  0.70206  0.29337  0.81975  1.0000
  Fe  Fe107     1.0  0.72690  0.45373  0.95970  1.0000
  H   H1733     1.0  0.68250  0.30502  0.19622  1.0000
  H   H1734     1.0  0.64117  0.35620  0.97482  1.0000
  H   H1735     1.0  0.63860  0.46067  0.46191  1.0000
  C   C990      1.0  0.62516  0.40950  0.02669  1.0000
  C   C991      1.0  0.71990  0.27181  0.72210  1.0000
  H   H1736     1.0  0.68919  0.44713  0.00538  1.0000
  H   H1737     1.0  0.62199  0.43262  0.49225  1.0000
  H   H1738     1.0  0.70875  0.33355  0.47814  1.0000
  C   C992      1.0  0.54087  0.48410  0.21418  1.0000
  C   C993      1.0  0.57050  0.39724  0.51487  1.0000
  H   H1739     1.0  0.65701  0.45926  0.53310  1.0000
  C   C994      1.0  0.70411  0.31218  0.81486  1.0000
  H   H1740     1.0  0.52046  0.27184  0.08233  1.0000
  H   H1741     1.0  0.65520  0.47997  0.12674  1.0000
  C   C995      1.0  0.68413  0.25958  0.33601  1.0000
  H   H1742     1.0  0.59160  0.46202  0.51080  1.0000
  C   C996      1.0  0.64414  0.38531  0.01742  1.0000
  N   N55       1.0  0.53220  0.31385  0.01296  1.0000
  C   C997      1.0  0.53159  0.29769  0.03126  1.0000
  C   C998      1.0  0.55128  0.32682  0.00994  1.0000
  C   C999      1.0  0.52203  0.32147  0.03484  1.0000
  C   C1000     1.0  0.52397  0.30939  0.97571  1.0000
  C   C1001     1.0  0.53121  0.29935  0.95044  1.0000
  C   C1002     1.0  0.51316  0.28201  0.03412  1.0000
  C   C1003     1.0  0.52251  0.33912  0.02162  1.0000
  C   C1004     1.0  0.56113  0.33552  0.04572  1.0000
  C   C1005     1.0  0.58053  0.34745  0.03923  1.0000
  H   H1743     1.0  0.50380  0.35416  0.13939  1.0000
  H   H1744     1.0  0.68889  0.44725  0.65491  1.0000
  C   C1006     1.0  0.51355  0.34653  0.04819  1.0000
  H   H1745     1.0  0.53692  0.30110  0.05924  1.0000
  H   H1746     1.0  0.54036  0.29269  0.01779  1.0000
  H   H1747     1.0  0.55896  0.32021  0.99777  1.0000
  H   H1748     1.0  0.55264  0.33749  0.99112  1.0000
  H   H1749     1.0  0.52641  0.32311  0.06359  1.0000
  H   H1750     1.0  0.50780  0.31217  0.03475  1.0000
  H   H1751     1.0  0.52473  0.40039  0.18909  1.0000
  H   H1752     1.0  0.52569  0.32162  0.96173  1.0000
  H   H1753     1.0  0.52767  0.28589  0.96030  1.0000
  H   H1754     1.0  0.54573  0.30623  0.94854  1.0000
  H   H1755     1.0  0.64669  0.26501  0.32775  1.0000
  H   H1756     1.0  0.73093  0.32056  0.93043  1.0000
  H   H1757     1.0  0.50484  0.45948  0.06596  1.0000
  H   H1758     1.0  0.53616  0.34930  0.01834  1.0000
  H   H1759     1.0  0.55528  0.34372  0.05848  1.0000
  H   H1760     1.0  0.56076  0.32547  0.06508  1.0000
  H   H1761     1.0  0.58730  0.35356  0.06512  1.0000
  H   H1762     1.0  0.58718  0.33965  0.02776  1.0000
  H   H1763     1.0  0.58179  0.35810  0.02053  1.0000
  H   H1764     1.0  0.72390  0.34576  0.44381  1.0000
  H   H1765     1.0  0.69442  0.47750  0.87291  1.0000
  C   C1007     1.0  0.72886  0.46350  0.76606  1.0000
  H   H1766     1.0  0.68700  0.25519  0.36233  1.0000
  H   H1767     1.0  0.72821  0.29924  0.04185  1.0000
  H   H1768     1.0  0.65960  0.29465  0.18224  1.0000
  Fe  Fe108     1.0  0.72079  0.26292  0.56556  1.0000
  H   H1769     1.0  0.57295  0.43164  0.45383  1.0000
  H   H1770     1.0  0.67428  0.41498  0.00454  1.0000
  H   H1771     1.0  0.58372  0.41096  0.46837  1.0000
  C   C1008     1.0  0.69986  0.40635  0.75172  1.0000
  H   H1772     1.0  0.53532  0.41546  0.15359  1.0000
  H   H1773     1.0  0.63092  0.36835  0.95158  1.0000
  C   C1009     1.0  0.52580  0.41251  0.17569  1.0000
  C   C1010     1.0  0.66114  0.41160  0.05624  1.0000
  H   H1774     1.0  0.69773  0.35591  0.36559  1.0000
  C   C1011     1.0  0.52522  0.31001  0.59301  1.0000
  C   C1012     1.0  0.58238  0.44331  0.40327  1.0000
  H   H1775     1.0  0.62664  0.35776  0.03088  1.0000
  H   H1776     1.0  0.61761  0.34682  0.96862  1.0000
  H   H1777     1.0  0.61953  0.47194  0.16063  1.0000
  H   H1778     1.0  0.68878  0.30908  0.35852  1.0000
  H   H1779     1.0  0.72048  0.28517  0.72002  1.0000
  N   N56       1.0  0.60486  0.44570  0.49750  1.0000
  H   H1780     1.0  0.69913  0.33786  0.38890  1.0000
  H   H1781     1.0  0.70179  0.31746  0.84081  1.0000
  H   H1782     1.0  0.69135  0.24335  0.47198  1.0000
  H   H1783     1.0  0.70636  0.42468  0.70905  1.0000
  H   H1784     1.0  0.52068  0.34969  0.07459  1.0000
  H   H1785     1.0  0.65845  0.29462  0.35319  1.0000
  H   H1786     1.0  0.52628  0.48458  0.08840  1.0000
  H   H1787     1.0  0.66150  0.40204  0.12358  1.0000
  C   C1013     1.0  0.66863  0.42213  0.02161  1.0000
  H   H1788     1.0  0.70772  0.27220  0.49437  1.0000
  H   H1789     1.0  0.65610  0.38281  0.01628  1.0000
  H   H1790     1.0  0.65705  0.37238  0.14356  1.0000
  C   C1014     1.0  0.67844  0.41868  0.64742  1.0000
  H   H1791     1.0  0.67209  0.40869  0.06680  1.0000
  Fe  Fe109     1.0  0.72970  0.48852  0.56171  1.0000
  C   C1015     1.0  0.70001  0.34390  0.36218  1.0000
  C   C1016     1.0  0.70659  0.41179  0.71382  1.0000
  C   C1017     1.0  0.50982  0.43207  0.29063  1.0000
  H   H1792     1.0  0.63380  0.36635  0.14890  1.0000
  C   C1018     1.0  0.59020  0.43012  0.51418  1.0000
  H   H1793     1.0  0.65854  0.42395  0.00508  1.0000
  H   H1794     1.0  0.72006  0.44978  0.76113  1.0000
  H   H1795     1.0  0.70223  0.31775  0.32054  1.0000
  H   H1796     1.0  0.65165  0.30315  0.31595  1.0000
  S   S220      1.0  0.70915  0.28266  0.56943  1.0000
  H   H1797     1.0  0.54238  0.24702  0.62186  1.0000
  H   H1798     1.0  0.53128  0.30073  0.59730  1.0000
  H   H1799     1.0  0.53172  0.28502  0.43154  1.0000
  C   C1019     1.0  0.65728  0.29381  0.32328  1.0000
  H   H1800     1.0  0.70664  0.43065  0.65243  1.0000
  C   C1020     1.0  0.68872  0.31392  0.33086  1.0000
  H   H1801     1.0  0.72039  0.41341  0.71371  1.0000
  H   H1802     1.0  0.56834  0.38420  0.50324  1.0000
  H   H1803     1.0  0.59314  0.42949  0.54321  1.0000
  C   C1021     1.0  0.62958  0.35930  0.97398  1.0000
  H   H1804     1.0  0.65391  0.37732  0.07754  1.0000
  H   H1805     1.0  0.56954  0.43231  0.29033  1.0000
  C   C1022     1.0  0.68612  0.33100  0.33596  1.0000
  H   H1806     1.0  0.67296  0.32789  0.34699  1.0000
  C   C1023     1.0  0.64416  0.38274  0.08259  1.0000
  H   H1807     1.0  0.60296  0.45497  0.57062  1.0000
  H   H1808     1.0  0.64502  0.39360  0.99396  1.0000
  H   H1809     1.0  0.65386  0.46692  0.90063  1.0000
  C   C1024     1.0  0.64713  0.37752  0.14907  1.0000
  H   H1810     1.0  0.67162  0.38480  0.63135  1.0000
  H   H1811     1.0  0.65955  0.42065  0.07655  1.0000
  N   N57       1.0  0.64434  0.39472  0.05243  1.0000
  H   H1812     1.0  0.62491  0.27378  0.35553  1.0000
  H   H1813     1.0  0.62669  0.45623  0.14216  1.0000
  H   H1814     1.0  0.63116  0.37109  0.08355  1.0000
  C   C1025     1.0  0.73235  0.42297  0.64080  1.0000
  H   H1815     1.0  0.63842  0.39622  0.12872  1.0000
  H   H1816     1.0  0.61568  0.36936  0.00846  1.0000
  C   C1026     1.0  0.64807  0.39109  0.12120  1.0000
  C   C1027     1.0  0.66490  0.46847  0.91927  1.0000
  H   H1817     1.0  0.65509  0.44579  0.49325  1.0000
  H   H1818     1.0  0.69438  0.31238  0.79453  1.0000
  H   H1819     1.0  0.71175  0.29366  0.84063  1.0000
  C   C1028     1.0  0.60703  0.40944  0.03009  1.0000
  H   H1820     1.0  0.73402  0.34156  0.52175  1.0000
  C   C1029     1.0  0.71472  0.26310  0.68469  1.0000
  H   H1821     1.0  0.50775  0.41878  0.29991  1.0000
  H   H1822     1.0  0.72873  0.33275  0.98195  1.0000
  H   H1823     1.0  0.56801  0.25397  0.04515  1.0000
  H   H1824     1.0  0.67359  0.34311  0.60163  1.0000
  H   H1825     1.0  0.62485  0.46957  0.55744  1.0000
  C   C1030     1.0  0.72562  0.27332  0.80568  1.0000
  Fe  Fe110     1.0  0.71516  0.25179  0.92990  1.0000
  H   H1826     1.0  0.67699  0.36045  0.57067  1.0000
  H   H1827     1.0  0.62400  0.25906  0.42021  1.0000
  H   H1828     1.0  0.61621  0.38560  0.05757  1.0000
  S   S221      1.0  0.72350  0.24960  0.51524  1.0000
  H   H1829     1.0  0.53461  0.32342  0.60247  1.0000
  H   H1830     1.0  0.65000  0.38378  0.17636  1.0000
  C   C1031     1.0  0.66400  0.29477  0.23998  1.0000
  H   H1831     1.0  0.66042  0.46837  0.94719  1.0000
  H   H1832     1.0  0.66758  0.40853  0.63110  1.0000
  H   H1833     1.0  0.51414  0.44090  0.31506  1.0000
  C   C1032     1.0  0.68525  0.38750  0.62375  1.0000
  H   H1834     1.0  0.58164  0.45521  0.45397  1.0000
  H   H1835     1.0  0.69677  0.28672  0.35305  1.0000
  C   C1033     1.0  0.52352  0.29765  0.91231  1.0000
  H   H1836     1.0  0.67566  0.41615  0.67634  1.0000
  H   H1837     1.0  0.61528  0.25831  0.31862  1.0000
  H   H1838     1.0  0.69451  0.26042  0.31702  1.0000
  C   C1034     1.0  0.73325  0.46998  0.80192  1.0000
  H   H1839     1.0  0.49967  0.33691  0.05204  1.0000
  C   C1035     1.0  0.67331  0.35612  0.59861  1.0000
  H   H1840     1.0  0.67348  0.27624  0.36022  1.0000
  H   H1841     1.0  0.71679  0.24896  0.07073  1.0000
  C   C1036     1.0  0.64293  0.24269  0.04412  1.0000
  H   H1842     1.0  0.70000  0.39356  0.75838  1.0000
  H   H1843     1.0  0.73525  0.32351  0.45017  1.0000
  H   H1844     1.0  0.72149  0.35700  0.48350  1.0000
  H   H1845     1.0  0.59375  0.47948  0.56518  1.0000
  C   C1037     1.0  0.65808  0.48207  0.02439  1.0000
  C   C1038     1.0  0.50577  0.47850  0.02481  1.0000
  H   H1846     1.0  0.53245  0.47858  0.18966  1.0000
  H   H1847     1.0  0.48927  0.35867  0.21246  1.0000
  H   H1848     1.0  0.50371  0.47819  0.99512  1.0000
  H   H1849     1.0  0.54010  0.48087  0.03938  1.0000
  C   C1039     1.0  0.72739  0.32294  0.00285  1.0000
  H   H1850     1.0  0.66646  0.24244  0.02365  1.0000
  H   H1851     1.0  0.67113  0.24963  0.32568  1.0000
  H   H1852     1.0  0.64012  0.25290  0.46861  1.0000
  H   H1853     1.0  0.68249  0.48260  0.79954  1.0000
  H   H1854     1.0  0.61175  0.48441  0.59701  1.0000
  H   H1855     1.0  0.66311  0.25005  0.43472  1.0000
  H   H1856     1.0  0.73292  0.42903  0.66762  1.0000
  H   H1857     1.0  0.48875  0.31512  0.18246  1.0000
  H   H1858     1.0  0.60080  0.24928  0.49213  1.0000
  H   H1859     1.0  0.55640  0.47425  0.99037  1.0000
  H   H1860     1.0  0.73327  0.27288  0.72871  1.0000
  H   H1861     1.0  0.55514  0.48131  0.94535  1.0000
  H   H1862     1.0  0.48558  0.42056  0.25656  1.0000
  H   H1863     1.0  0.68579  0.24476  0.42574  1.0000
  H   H1864     1.0  0.64858  0.24667  0.07178  1.0000
  H   H1865     1.0  0.73058  0.29404  0.90014  1.0000
  S   S222      1.0  0.73419  0.47081  0.01001  1.0000
  H   H1866     1.0  0.56408  0.24540  0.51306  1.0000
  H   H1867     1.0  0.67605  0.47996  0.85571  1.0000
  C   C1040     1.0  0.68769  0.48641  0.87397  1.0000
  H   H1868     1.0  0.69143  0.48679  0.93256  1.0000
  H   H1869     1.0  0.70625  0.48016  0.76640  1.0000
  C   C1041     1.0  0.68099  0.48581  0.91286  1.0000
  H   H1870     1.0  0.73512  0.34208  0.04882  1.0000
  H   H1871     1.0  0.59503  0.24141  0.44619  1.0000
  H   H1872     1.0  0.69334  0.48710  0.73714  1.0000
  H   H1873     1.0  0.61111  0.59437  0.33145  1.0000
  S   S223      1.0  0.60226  0.51499  0.50635  1.0000
  C   C1042     1.0  0.68208  0.51563  0.13203  1.0000
  H   H1874     1.0  0.54818  0.52079  0.41492  1.0000
  H   H1875     1.0  0.60311  0.59052  0.79782  1.0000
  H   H1876     1.0  0.58706  0.63189  0.84915  1.0000
  H   H1877     1.0  0.65018  0.51600  0.83340  1.0000
  C   C1043     1.0  0.52322  0.51037  0.01970  1.0000
  H   H1878     1.0  0.54407  0.54943  0.58531  1.0000
  H   H1879     1.0  0.61043  0.54941  0.37075  1.0000
  H   H1880     1.0  0.59537  0.61434  0.81955  1.0000
  C   C1044     1.0  0.69089  0.51666  0.85810  1.0000
  Fe  Fe111     1.0  0.61587  0.50624  0.06900  1.0000
  S   S224      1.0  0.62177  0.53487  0.07926  1.0000
  H   H1881     1.0  0.61457  0.58700  0.38641  1.0000
  H   H1882     1.0  0.55049  0.56348  0.84787  1.0000
  S   S225      1.0  0.58376  0.52159  0.11960  1.0000
  Fe  Fe112     1.0  0.59324  0.52790  0.06296  1.0000
  S   S226      1.0  0.57891  0.53797  0.02159  1.0000
  Fe  Fe113     1.0  0.61131  0.52605  0.13513  1.0000
  H   H1883     1.0  0.62230  0.61082  0.80772  1.0000
  C   C1045     1.0  0.48573  0.53367  0.64340  1.0000
  C   C1046     1.0  0.60457  0.61361  0.96511  1.0000
  Fe  Fe114     1.0  0.51762  0.63141  0.94967  1.0000
  C   C1047     1.0  0.70266  0.49113  0.76061  1.0000
  S   S227      1.0  0.51755  0.65890  0.95006  1.0000
  Fe  Fe115     1.0  0.53410  0.60499  0.96616  1.0000
  S   S228      1.0  0.51286  0.58326  0.93418  1.0000
  S   S229      1.0  0.55618  0.60120  0.99727  1.0000
  Fe  Fe116     1.0  0.51612  0.60367  0.89246  1.0000
  S   S230      1.0  0.51582  0.59357  0.83469  1.0000
  C   C1048     1.0  0.53785  0.51293  0.09321  1.0000
  S   S231      1.0  0.53859  0.62525  0.92302  1.0000
  S   S232      1.0  0.51532  0.61325  0.99527  1.0000
  Fe  Fe117     1.0  0.60221  0.51390  0.40202  1.0000
  C   C1049     1.0  0.57348  0.62757  0.85860  1.0000
  S   S233      1.0  0.59499  0.50919  0.34174  1.0000
  Fe  Fe118     1.0  0.59939  0.53443  0.46897  1.0000
  H   H1884     1.0  0.53482  0.52420  0.08680  1.0000
  S   S234      1.0  0.59669  0.55932  0.48886  1.0000
  Fe  Fe119     1.0  0.62381  0.51465  0.47120  1.0000
  S   S235      1.0  0.64494  0.51021  0.50496  1.0000
  H   H1885     1.0  0.60816  0.61664  0.86052  1.0000
  S   S236      1.0  0.62261  0.53612  0.43602  1.0000
  S   S237      1.0  0.57929  0.51337  0.43357  1.0000
  Fe  Fe120     1.0  0.50989  0.62532  0.55544  1.0000
  S   S238      1.0  0.53555  0.62503  0.57460  1.0000
  S   S239      1.0  0.50990  0.64646  0.51585  1.0000
  C   C1050     1.0  0.59311  0.72245  0.62842  1.0000
  S   S240      1.0  0.51225  0.58848  0.61654  1.0000
  Fe  Fe121     1.0  0.52251  0.61744  0.62860  1.0000
  S   S241      1.0  0.53423  0.63108  0.68261  1.0000
  Fe  Fe122     1.0  0.52320  0.59574  0.56094  1.0000
  S   S242      1.0  0.53151  0.57678  0.52880  1.0000
  H   H1886     1.0  0.55288  0.51360  0.37181  1.0000
  S   S243      1.0  0.49831  0.59645  0.53862  1.0000
  C   C1051     1.0  0.57822  0.56324  0.50200  1.0000
  C   C1052     1.0  0.56082  0.55171  0.49243  1.0000
  C   C1053     1.0  0.54680  0.55609  0.50097  1.0000
  C   C1054     1.0  0.54984  0.57187  0.51981  1.0000
  C   C1055     1.0  0.56719  0.58320  0.53009  1.0000
  C   C1056     1.0  0.58125  0.57899  0.52087  1.0000
  H   H1887     1.0  0.55819  0.53958  0.47783  1.0000
  H   H1888     1.0  0.53349  0.54719  0.49280  1.0000
  H   H1889     1.0  0.56984  0.59539  0.54448  1.0000
  H   H1890     1.0  0.59461  0.58808  0.52832  1.0000
  C   C1057     1.0  0.52075  0.60443  0.79282  1.0000
  C   C1058     1.0  0.52153  0.59486  0.76208  1.0000
  C   C1059     1.0  0.52505  0.60268  0.72806  1.0000
  C   C1060     1.0  0.52822  0.62033  0.72445  1.0000
  C   C1061     1.0  0.52760  0.62997  0.75524  1.0000
  C   C1062     1.0  0.52360  0.62201  0.78915  1.0000
  H   H1891     1.0  0.54610  0.54881  0.63381  1.0000
  H   H1892     1.0  0.52570  0.59516  0.70473  1.0000
  H   H1893     1.0  0.53017  0.64368  0.75283  1.0000
  H   H1894     1.0  0.52292  0.62953  0.81243  1.0000
  C   C1063     1.0  0.61736  0.53046  0.23054  1.0000
  C   C1064     1.0  0.60075  0.51636  0.23372  1.0000
  C   C1065     1.0  0.59426  0.51011  0.26796  1.0000
  C   C1066     1.0  0.60426  0.51773  0.29952  1.0000
  C   C1067     1.0  0.62097  0.53172  0.29638  1.0000
  C   C1068     1.0  0.62744  0.53807  0.26207  1.0000
  H   H1895     1.0  0.59282  0.51034  0.20980  1.0000
  H   H1896     1.0  0.55101  0.51576  0.08266  1.0000
  H   H1897     1.0  0.62889  0.53760  0.32031  1.0000
  H   H1898     1.0  0.56429  0.57314  0.90938  1.0000
  C   C1069     1.0  0.57194  0.55529  0.01740  1.0000
  C   C1070     1.0  0.55881  0.55342  0.99141  1.0000
  C   C1071     1.0  0.55314  0.56685  0.98627  1.0000
  C   C1072     1.0  0.56108  0.58279  0.00588  1.0000
  C   C1073     1.0  0.57424  0.58468  0.03178  1.0000
  C   C1074     1.0  0.57945  0.57098  0.03790  1.0000
  H   H1899     1.0  0.55295  0.54145  0.97512  1.0000
  H   H1900     1.0  0.54282  0.56497  0.96673  1.0000
  H   H1901     1.0  0.58055  0.59692  0.04715  1.0000
  H   H1902     1.0  0.58963  0.57278  0.05780  1.0000
  S   S244      1.0  0.71081  0.50500  0.99985  1.0000
  C   C1075     1.0  0.50829  0.51554  0.03075  1.0000
  H   H1903     1.0  0.52403  0.54402  0.03204  1.0000
  C   C1076     1.0  0.66517  0.50795  0.50934  1.0000
  H   H1904     1.0  0.49913  0.61766  0.07254  1.0000
  N   N58       1.0  0.57252  0.59767  0.88075  1.0000
  C   C1077     1.0  0.71512  0.51238  0.88769  1.0000
  H   H1905     1.0  0.67417  0.51594  0.45593  1.0000
  H   H1906     1.0  0.57508  0.58470  0.83199  1.0000
  C   C1078     1.0  0.59461  0.59226  0.28566  1.0000
  C   C1079     1.0  0.59693  0.59067  0.32609  1.0000
  S   S245      1.0  0.62584  0.53896  0.18779  1.0000
  C   C1080     1.0  0.61562  0.56362  0.36465  1.0000
  C   C1081     1.0  0.56344  0.60719  0.86081  1.0000
  H   H1907     1.0  0.49159  0.53092  0.66824  1.0000
  H   H1908     1.0  0.56268  0.62925  0.80573  1.0000
  C   C1082     1.0  0.53790  0.72896  0.55269  1.0000
  C   C1083     1.0  0.68536  0.51578  0.02090  1.0000
  C   C1084     1.0  0.66831  0.51354  0.03069  1.0000
  C   C1085     1.0  0.70719  0.50230  0.82541  1.0000
  H   H1909     1.0  0.55034  0.56927  0.61208  1.0000
  H   H1910     1.0  0.55080  0.60491  0.87379  1.0000
  H   H1911     1.0  0.50097  0.70749  0.97700  1.0000
  H   H1912     1.0  0.58066  0.58910  0.27860  1.0000
  H   H1913     1.0  0.49150  0.55344  0.51555  1.0000
  C   C1086     1.0  0.58346  0.60884  0.91214  1.0000
  H   H1914     1.0  0.53620  0.52174  0.02542  1.0000
  C   C1087     1.0  0.50253  0.68915  0.48142  1.0000
  C   C1088     1.0  0.50683  0.67460  0.48346  1.0000
  C   C1089     1.0  0.50300  0.66397  0.51406  1.0000
  C   C1090     1.0  0.72989  0.53066  0.87808  1.0000
  C   C1091     1.0  0.55839  0.58115  0.89602  1.0000
  H   H1915     1.0  0.50579  0.69721  0.45782  1.0000
  H   H1916     1.0  0.51330  0.67164  0.46117  1.0000
  H   H1917     1.0  0.71040  0.51409  0.91463  1.0000
  H   H1918     1.0  0.61606  0.59295  0.83868  1.0000
  C   C1092     1.0  0.49409  0.53153  0.54164  1.0000
  C   C1093     1.0  0.49881  0.69230  0.02421  1.0000
  C   C1094     1.0  0.50245  0.69634  0.98797  1.0000
  C   C1095     1.0  0.50827  0.68609  0.96596  1.0000
  C   C1096     1.0  0.51054  0.67160  0.97962  1.0000
  C   C1097     1.0  0.50711  0.66770  0.01594  1.0000
  C   C1098     1.0  0.50119  0.67788  0.03790  1.0000
  C   C1099     1.0  0.49243  0.73754  0.25918  1.0000
  H   H1919     1.0  0.71181  0.51400  0.10449  1.0000
  H   H1920     1.0  0.50928  0.65701  0.02724  1.0000
  Fe  Fe123     1.0  0.58366  0.49414  0.46848  1.0000
  C   C1100     1.0  0.53856  0.49138  0.02393  1.0000
  H   H1921     1.0  0.71728  0.51512  0.81624  1.0000
  C   C1101     1.0  0.66744  0.53402  0.15065  1.0000
  H   H1922     1.0  0.64710  0.50363  0.11547  1.0000
  H   H1923     1.0  0.64033  0.54895  0.25995  1.0000
  C   C1102     1.0  0.51199  0.53403  0.01823  1.0000
  S   S246      1.0  0.49123  0.70457  0.05363  1.0000
  H   H1924     1.0  0.49052  0.54869  0.58156  1.0000
  H   H1925     1.0  0.48658  0.57261  0.78018  1.0000
  C   C1103     1.0  0.55679  0.54102  0.37432  1.0000
  C   C1104     1.0  0.68893  0.50122  0.01247  1.0000
  C   C1105     1.0  0.66454  0.52235  0.83985  1.0000
  C   C1106     1.0  0.66648  0.55778  0.11054  1.0000
  H   H1926     1.0  0.67894  0.56796  0.12255  1.0000
  C   C1107     1.0  0.59276  0.59581  0.41788  1.0000
  H   H1927     1.0  0.57403  0.56954  0.42608  1.0000
  S   S247      1.0  0.60490  0.49273  0.43491  1.0000
  H   H1928     1.0  0.54884  0.52499  0.14519  1.0000
  Fe  Fe124     1.0  0.48840  0.59088  0.59483  1.0000
  C   C1108     1.0  0.53887  0.51216  0.13415  1.0000
  H   H1929     1.0  0.64158  0.58588  0.36407  1.0000
  H   H1930     1.0  0.68524  0.52572  0.20201  1.0000
  H   H1931     1.0  0.55062  0.63196  0.84346  1.0000
  H   H1932     1.0  0.66403  0.50143  0.26408  1.0000
  H   H1933     1.0  0.57142  0.64950  0.83212  1.0000
  H   H1934     1.0  0.65436  0.51568  0.27938  1.0000
  H   H1935     1.0  0.57457  0.60812  0.41703  1.0000
  H   H1936     1.0  0.52097  0.54350  0.86741  1.0000
  H   H1937     1.0  0.57487  0.61207  0.93060  1.0000
  Fe  Fe125     1.0  0.49444  0.59251  0.96038  1.0000
  H   H1938     1.0  0.60583  0.72986  0.61501  1.0000
  H   H1939     1.0  0.55122  0.58479  0.91724  1.0000
  C   C1109     1.0  0.61091  0.59985  0.81977  1.0000
  H   H1940     1.0  0.60296  0.60597  0.27749  1.0000
  H   H1941     1.0  0.52388  0.55632  0.90816  1.0000
  H   H1942     1.0  0.69584  0.52895  0.01944  1.0000
  C   C1110     1.0  0.67196  0.51511  0.19475  1.0000
  H   H1943     1.0  0.59312  0.60025  0.33987  1.0000
  H   H1944     1.0  0.49556  0.50621  0.01810  1.0000
  H   H1945     1.0  0.67928  0.54469  0.16393  1.0000
  H   H1946     1.0  0.66525  0.56127  0.08227  1.0000
  C   C1111     1.0  0.54720  0.52181  0.38530  1.0000
  H   H1947     1.0  0.66023  0.49926  0.56400  1.0000
  H   H1948     1.0  0.67147  0.53022  0.81646  1.0000
  C   C1112     1.0  0.67705  0.51149  0.48128  1.0000
  C   C1113     1.0  0.59378  0.60085  0.93487  1.0000
  H   H1949     1.0  0.55956  0.60163  0.83296  1.0000
  S   S248      1.0  0.60646  0.49802  0.12520  1.0000
  H   H1950     1.0  0.59229  0.61738  0.45004  1.0000
  H   H1951     1.0  0.65583  0.53433  0.16400  1.0000
  C   C1114     1.0  0.59962  0.60721  0.83958  1.0000
  H   H1952     1.0  0.53746  0.54481  0.90046  1.0000
  H   H1953     1.0  0.53504  0.49105  0.23135  1.0000
  C   C1115     1.0  0.51183  0.66055  0.66353  1.0000
  C   C1116     1.0  0.60631  0.57261  0.38750  1.0000
  C   C1117     1.0  0.58328  0.59220  0.85558  1.0000
  C   C1118     1.0  0.48904  0.62291  0.07322  1.0000
  H   H1954     1.0  0.67288  0.50261  0.20025  1.0000
  C   C1119     1.0  0.63545  0.57200  0.37290  1.0000
  N   N59       1.0  0.54577  0.69010  0.59357  1.0000
  C   C1120     1.0  0.54243  0.70166  0.56656  1.0000
  C   C1121     1.0  0.54828  0.67532  0.57440  1.0000
  C   C1122     1.0  0.52960  0.68202  0.61630  1.0000
  C   C1123     1.0  0.56128  0.70046  0.61840  1.0000
  C   C1124     1.0  0.57907  0.71130  0.60045  1.0000
  C   C1125     1.0  0.53784  0.71638  0.58205  1.0000
  H   H1955     1.0  0.48849  0.58909  0.73192  1.0000
  C   C1126     1.0  0.55691  0.67930  0.53688  1.0000
  C   C1127     1.0  0.56108  0.66432  0.52315  1.0000
  H   H1956     1.0  0.52790  0.69233  0.63274  1.0000
  H   H1957     1.0  0.50666  0.51539  0.06025  1.0000
  H   H1958     1.0  0.58752  0.58285  0.86900  1.0000
  H   H1959     1.0  0.53128  0.69336  0.54809  1.0000
  H   H1960     1.0  0.55378  0.70806  0.54879  1.0000
  H   H1961     1.0  0.55586  0.67020  0.59185  1.0000
  H   H1962     1.0  0.53534  0.66382  0.56934  1.0000
  H   H1963     1.0  0.52440  0.71053  0.59325  1.0000
  Fe  Fe126     1.0  0.57967  0.49403  0.10571  1.0000
  H   H1964     1.0  0.55828  0.70945  0.63641  1.0000
  H   H1965     1.0  0.56378  0.69144  0.63685  1.0000
  H   H1966     1.0  0.49101  0.65980  0.56580  1.0000
  H   H1967     1.0  0.58390  0.70232  0.58740  1.0000
  N   N60       1.0  0.52275  0.49390  0.03626  1.0000
  H   H1968     1.0  0.54740  0.72432  0.60341  1.0000
  H   H1969     1.0  0.53305  0.51657  0.37739  1.0000
  H   H1970     1.0  0.52994  0.65648  0.62880  1.0000
  H   H1971     1.0  0.54768  0.68075  0.51685  1.0000
  H   H1972     1.0  0.56925  0.69156  0.53721  1.0000
  H   H1973     1.0  0.54873  0.65211  0.51876  1.0000
  H   H1974     1.0  0.56776  0.66789  0.49699  1.0000
  H   H1975     1.0  0.56988  0.66178  0.54249  1.0000
  N   N61       1.0  0.69981  0.50444  0.86101  1.0000
  C   C1128     1.0  0.54195  0.55483  0.61132  1.0000
  H   H1976     1.0  0.51763  0.67587  0.59864  1.0000
  S   S249      1.0  0.49791  0.61953  0.61011  1.0000
  H   H1977     1.0  0.52894  0.72157  0.52993  1.0000
  H   H1978     1.0  0.69786  0.52712  0.83841  1.0000
  C   C1129     1.0  0.67092  0.50821  0.84771  1.0000
  H   H1979     1.0  0.70023  0.51028  0.16743  1.0000
  H   H1980     1.0  0.53704  0.57501  0.85513  1.0000
  H   H1981     1.0  0.50034  0.65458  0.64458  1.0000
  H   H1982     1.0  0.49577  0.63722  0.08010  1.0000
  C   C1130     1.0  0.56394  0.63496  0.83334  1.0000
  C   C1131     1.0  0.57692  0.54846  0.38254  1.0000
  H   H1983     1.0  0.57877  0.54527  0.41084  1.0000
  H   H1984     1.0  0.57140  0.56957  0.33248  1.0000
  C   C1132     1.0  0.48637  0.53426  0.57762  1.0000
  H   H1985     1.0  0.49658  0.49754  0.64274  1.0000
  H   H1986     1.0  0.66580  0.52492  0.03613  1.0000
  C   C1133     1.0  0.58521  0.57178  0.33843  1.0000
  S   S250      1.0  0.49073  0.71305  0.51126  1.0000
  H   H1987     1.0  0.52221  0.50900  0.98992  1.0000
  H   H1988     1.0  0.48993  0.51735  0.53539  1.0000
  C   C1134     1.0  0.49455  0.69355  0.51030  1.0000
  H   H1989     1.0  0.70889  0.49338  0.12376  1.0000
  H   H1990     1.0  0.61465  0.62594  0.95395  1.0000
  H   H1991     1.0  0.57424  0.63374  0.88560  1.0000
  C   C1135     1.0  0.48792  0.53923  0.51035  1.0000
  H   H1992     1.0  0.58735  0.56224  0.32030  1.0000
  H   H1993     1.0  0.50076  0.53711  0.02485  1.0000
  H   H1994     1.0  0.52126  0.55731  0.64050  1.0000
  H   H1995     1.0  0.65519  0.55781  0.12565  1.0000
  H   H1996     1.0  0.48561  0.50156  0.58393  1.0000
  H   H1997     1.0  0.57414  0.59636  0.45760  1.0000
  C   C1136     1.0  0.54435  0.56843  0.86870  1.0000
  H   H1998     1.0  0.54000  0.67324  0.66324  1.0000
  H   H1999     1.0  0.59586  0.61689  0.98294  1.0000
  C   C1137     1.0  0.57988  0.57753  0.40196  1.0000
  H   H2000     1.0  0.58480  0.58853  0.94772  1.0000
  H   H2001     1.0  0.51377  0.53498  0.98868  1.0000
  H   H2002     1.0  0.67686  0.51158  0.10401  1.0000
  H   H2003     1.0  0.67727  0.52506  0.26774  1.0000
  H   H2004     1.0  0.60307  0.59799  0.91805  1.0000
  H   H2005     1.0  0.61136  0.60736  0.98164  1.0000
  H   H2006     1.0  0.58178  0.54066  0.36520  1.0000
  H   H2007     1.0  0.49942  0.55388  0.80850  1.0000
  H   H2008     1.0  0.69316  0.52902  0.12998  1.0000
  H   H2009     1.0  0.51938  0.58128  0.76454  1.0000
  H   H2010     1.0  0.61383  0.56484  0.33541  1.0000
  H   H2011     1.0  0.59868  0.58322  0.27033  1.0000
  H   H2012     1.0  0.63813  0.57173  0.40217  1.0000
  H   H2013     1.0  0.72148  0.50328  0.89157  1.0000
  H   H2014     1.0  0.57801  0.72045  0.58042  1.0000
  C   C1138     1.0  0.64999  0.50220  0.14412  1.0000
  C   C1139     1.0  0.66927  0.50210  0.54206  1.0000
  H   H2015     1.0  0.55140  0.73636  0.54248  1.0000
  C   C1140     1.0  0.65871  0.51647  0.22201  1.0000
  C   C1141     1.0  0.66650  0.53960  0.11132  1.0000
  H   H2016     1.0  0.60725  0.56924  0.41608  1.0000
  H   H2017     1.0  0.61600  0.49411  0.55342  1.0000
  N   N62       1.0  0.66782  0.51634  0.15549  1.0000
  H   H2018     1.0  0.60092  0.60472  0.39706  1.0000
  S   S251      1.0  0.49552  0.61079  0.91628  1.0000
  H   H2019     1.0  0.65431  0.53016  0.09723  1.0000
  H   H2020     1.0  0.53875  0.49783  0.96652  1.0000
  C   C1142     1.0  0.68492  0.49982  0.54673  1.0000
  C   C1143     1.0  0.49066  0.68286  0.54084  1.0000
  H   H2021     1.0  0.51441  0.52503  0.59073  1.0000
  H   H2022     1.0  0.55075  0.54859  0.38884  1.0000
  H   H2023     1.0  0.67794  0.54040  0.09573  1.0000
  H   H2024     1.0  0.66777  0.49935  0.82382  1.0000
  H   H2025     1.0  0.60170  0.59410  0.43825  1.0000
  C   C1144     1.0  0.53089  0.55230  0.88745  1.0000
  H   H2026     1.0  0.55429  0.54143  0.34503  1.0000
  C   C1145     1.0  0.52906  0.66776  0.64301  1.0000
  H   H2027     1.0  0.49949  0.72947  0.26215  1.0000
  H   H2028     1.0  0.51154  0.65021  0.68211  1.0000
  H   H2029     1.0  0.64168  0.56460  0.35834  1.0000
  H   H2030     1.0  0.59340  0.62179  0.90334  1.0000
  N   N63       1.0  0.58735  0.56800  0.37727  1.0000
  C   C1146     1.0  0.49450  0.66802  0.54244  1.0000
  C   C1147     1.0  0.58278  0.60493  0.43674  1.0000
  C   C1148     1.0  0.69694  0.50364  0.51884  1.0000
  S   S252      1.0  0.63250  0.49281  0.04455  1.0000
  H   H2031     1.0  0.56872  0.57904  0.38838  1.0000
  S   S253      1.0  0.58815  0.49977  0.04881  1.0000
  H   H2032     1.0  0.51947  0.55824  0.59257  1.0000
  H   H2033     1.0  0.66687  0.53128  0.86367  1.0000
  H   H2034     1.0  0.68936  0.50504  0.78504  1.0000
  H   H2035     1.0  0.71470  0.50294  0.75336  1.0000
  H   H2036     1.0  0.65824  0.52945  0.22081  1.0000
  H   H2037     1.0  0.71413  0.49366  0.82862  1.0000
  H   H2038     1.0  0.49135  0.54833  0.64257  1.0000
  H   H2039     1.0  0.69206  0.52385  0.88417  1.0000
  H   H2040     1.0  0.63944  0.50388  0.15901  1.0000
  C   C1149     1.0  0.65448  0.49663  0.03264  1.0000
  C   C1150     1.0  0.69110  0.50383  0.14423  1.0000
  H   H2041     1.0  0.52594  0.50946  0.14599  1.0000
  H   H2042     1.0  0.49290  0.73691  0.20087  1.0000
  H   H2043     1.0  0.51068  0.67121  0.67968  1.0000
  H   H2044     1.0  0.51358  0.52603  0.63806  1.0000
  H   H2045     1.0  0.49441  0.53802  0.48536  1.0000
  C   C1151     1.0  0.66400  0.51453  0.26061  1.0000
  S   S254      1.0  0.71745  0.50195  0.52340  1.0000
  C   C1152     1.0  0.52263  0.55134  0.61459  1.0000
  H   H2046     1.0  0.50869  0.53822  0.54261  1.0000
  C   C1153     1.0  0.69396  0.49503  0.79323  1.0000
  H   H2047     1.0  0.66299  0.50031  0.87007  1.0000
  C   C1154     1.0  0.48590  0.54305  0.80944  1.0000
  H   H2048     1.0  0.49869  0.67472  0.06595  1.0000
  H   H2049     1.0  0.58137  0.49928  0.27001  1.0000
  H   H2050     1.0  0.69312  0.49378  0.09089  1.0000
  H   H2051     1.0  0.55087  0.50342  0.03006  1.0000
  C   C1155     1.0  0.51038  0.53133  0.61316  1.0000
  H   H2052     1.0  0.58924  0.73210  0.64196  1.0000
  H   H2053     1.0  0.51108  0.68944  0.93808  1.0000
  H   H2054     1.0  0.67754  0.49689  0.91889  1.0000
  S   S255      1.0  0.49270  0.73838  0.33349  1.0000
  H   H2055     1.0  0.68161  0.49067  0.15275  1.0000
  H   H2056     1.0  0.53325  0.73853  0.56371  1.0000
  H   H2057     1.0  0.70197  0.51256  0.46434  1.0000
  H   H2058     1.0  0.49089  0.61483  0.69830  1.0000
  H   H2059     1.0  0.54295  0.50173  0.14202  1.0000
  H   H2060     1.0  0.72433  0.53993  0.87003  1.0000
  H   H2061     1.0  0.55405  0.49381  0.20566  1.0000
  H   H2062     1.0  0.48980  0.62626  0.01631  1.0000
  C   C1156     1.0  0.52363  0.49540  0.07683  1.0000
  H   H2063     1.0  0.68781  0.49538  0.57209  1.0000
  H   H2064     1.0  0.51070  0.49350  0.08773  1.0000
  H   H2065     1.0  0.56736  0.49743  0.97975  1.0000
  H   H2066     1.0  0.64524  0.50595  0.21687  1.0000
  C   C1157     1.0  0.70189  0.50113  0.11397  1.0000
  H   H2067     1.0  0.59507  0.71393  0.64894  1.0000
  C   C1158     1.0  0.69286  0.50953  0.48616  1.0000
  N   N64       1.0  0.49091  0.52648  0.61044  1.0000
  H   H2068     1.0  0.73550  0.54018  0.93402  1.0000
  S   S256      1.0  0.50115  0.75460  0.08677  1.0000
  H   H2069     1.0  0.54005  0.79651  0.47482  1.0000
  S   S257      1.0  0.50779  0.79431  0.01990  1.0000
  H   H2070     1.0  0.53498  0.85452  0.06532  1.0000
  H   H2071     1.0  0.55544  0.80199  0.31949  1.0000
  H   H2072     1.0  0.48653  0.87423  0.68202  1.0000
  Fe  Fe127     1.0  0.49897  0.91827  0.92609  1.0000
  S   S258      1.0  0.50627  0.91565  0.98321  1.0000
  Fe  Fe128     1.0  0.52979  0.91366  0.89555  1.0000
  S   S259      1.0  0.54005  0.91108  0.95100  1.0000
  S   S260      1.0  0.54057  0.90870  0.84250  1.0000
  Fe  Fe129     1.0  0.51179  0.89292  0.96301  1.0000
  S   S261      1.0  0.49908  0.86576  0.99078  1.0000
  Fe  Fe130     1.0  0.53394  0.93405  0.96757  1.0000
  S   S262      1.0  0.55052  0.95606  0.00886  1.0000
  S   S263      1.0  0.50210  0.89446  0.90688  1.0000
  S   S264      1.0  0.52609  0.93778  0.91125  1.0000
  Fe  Fe131     1.0  0.50013  0.91479  0.56293  1.0000
  S   S265      1.0  0.51891  0.91012  0.52692  1.0000
  Fe  Fe132     1.0  0.52309  0.92023  0.63063  1.0000
  S   S266      1.0  0.54383  0.91606  0.59930  1.0000
  S   S267      1.0  0.52223  0.92974  0.68816  1.0000
  Fe  Fe133     1.0  0.53980  0.93349  0.55721  1.0000
  S   S268      1.0  0.56182  0.95611  0.52807  1.0000
  Fe  Fe134     1.0  0.52104  0.89306  0.57125  1.0000
  S   S269      1.0  0.51632  0.86382  0.56862  1.0000
  S   S270      1.0  0.52063  0.93885  0.59027  1.0000
  S   S271      1.0  0.50075  0.89660  0.60559  1.0000
  H   H2073     1.0  0.52176  0.86667  0.06954  1.0000
  C   C1159     1.0  0.52083  0.81002  0.85110  1.0000
  C   C1160     1.0  0.50429  0.79068  0.35118  1.0000
  C   C1161     1.0  0.50059  0.83638  0.19402  1.0000
  N   N65       1.0  0.53710  0.79713  0.36265  1.0000
  C   C1162     1.0  0.57932  0.98722  0.71413  1.0000
  H   H2074     1.0  0.56497  0.98297  0.71605  1.0000
  H   H2075     1.0  0.50198  0.82629  0.57742  1.0000
  C   C1163     1.0  0.53435  0.91379  0.79981  1.0000
  C   C1164     1.0  0.53763  0.90618  0.76848  1.0000
  C   C1165     1.0  0.53333  0.91029  0.73407  1.0000
  C   C1166     1.0  0.52631  0.92259  0.73063  1.0000
  C   C1167     1.0  0.52286  0.93003  0.76195  1.0000
  C   C1168     1.0  0.52662  0.92549  0.79635  1.0000
  H   H2076     1.0  0.54359  0.89709  0.77085  1.0000
  H   H2077     1.0  0.53588  0.90429  0.71029  1.0000
  H   H2078     1.0  0.51751  0.93961  0.75969  1.0000
  H   H2079     1.0  0.52407  0.93148  0.82019  1.0000
  H   H2080     1.0  0.51732  0.78591  0.15277  1.0000
  C   C1169     1.0  0.53215  0.77765  0.35814  1.0000
  C   C1170     1.0  0.55992  0.97972  0.01065  1.0000
  H   H2081     1.0  0.54361  0.77148  0.40623  1.0000
  H   H2082     1.0  0.52569  0.79079  0.41518  1.0000
  H   H2083     1.0  0.51181  0.86802  0.74800  1.0000
  H   H2084     1.0  0.49337  0.79587  0.30153  1.0000
  H   H2085     1.0  0.58777  0.83639  0.36224  1.0000
  C   C1171     1.0  0.51202  0.84605  0.53690  1.0000
  H   H2086     1.0  0.55827  0.77786  0.36848  1.0000
  C   C1172     1.0  0.55497  0.80738  0.34685  1.0000
  C   C1173     1.0  0.50526  0.81675  0.48908  1.0000
  C   C1174     1.0  0.51254  0.83420  0.47674  1.0000
  C   C1175     1.0  0.51582  0.84872  0.50034  1.0000
  C   C1176     1.0  0.56838  0.98873  0.04276  1.0000
  H   H2087     1.0  0.51899  0.76978  0.36934  1.0000
  H   H2088     1.0  0.59927  0.97696  0.62627  1.0000
  H   H2089     1.0  0.52167  0.86198  0.49037  1.0000
  H   H2090     1.0  0.55689  0.83313  0.36679  1.0000
  C   C1177     1.0  0.56757  0.95981  0.65815  1.0000
  H   H2091     1.0  0.49943  0.77651  0.34413  1.0000
  H   H2092     1.0  0.53233  0.80893  0.83900  1.0000
  C   C1178     1.0  0.50482  0.81376  0.01027  1.0000
  C   C1179     1.0  0.51937  0.82906  0.99950  1.0000
  C   C1180     1.0  0.51788  0.84495  0.99298  1.0000
  C   C1181     1.0  0.50177  0.84588  0.99724  1.0000
  H   H2093     1.0  0.50158  0.82556  0.20936  1.0000
  S   S272      1.0  0.50434  0.75299  0.43710  1.0000
  H   H2094     1.0  0.53201  0.82871  0.99672  1.0000
  H   H2095     1.0  0.52933  0.85661  0.98564  1.0000
  H   H2096     1.0  0.52638  0.97539  0.61259  1.0000
  H   H2097     1.0  0.52476  0.79824  0.31165  1.0000
  C   C1182     1.0  0.55540  0.98619  0.53473  1.0000
  H   H2098     1.0  0.58457  0.83235  0.31408  1.0000
  C   C1183     1.0  0.54442  0.77062  0.37659  1.0000
  C   C1184     1.0  0.49942  0.88533  0.44142  1.0000
  H   H2099     1.0  0.52027  0.82778  0.81095  1.0000
  C   C1185     1.0  0.52111  0.85066  0.11584  1.0000
  H   H2100     1.0  0.56190  0.81402  0.48122  1.0000
  H   H2101     1.0  0.51228  0.88519  0.43555  1.0000
  H   H2102     1.0  0.54385  0.81916  0.46871  1.0000
  C   C1186     1.0  0.52636  0.86146  0.90472  1.0000
  H   H2103     1.0  0.50100  0.98517  0.45327  1.0000
  H   H2104     1.0  0.50863  0.79872  0.84108  1.0000
  C   C1187     1.0  0.55331  0.80798  0.42522  1.0000
  H   H2105     1.0  0.51844  0.86548  0.92322  1.0000
  H   H2106     1.0  0.52196  0.80932  0.88079  1.0000
  C   C1188     1.0  0.50253  0.84904  0.81126  1.0000
  C   C1189     1.0  0.49915  0.86509  0.79986  1.0000
  H   H2107     1.0  0.48796  0.92246  0.81206  1.0000
  H   H2108     1.0  0.54785  0.74647  0.37989  1.0000
  H   H2109     1.0  0.56316  0.82114  0.41715  1.0000
  C   C1190     1.0  0.54570  0.87435  0.91099  1.0000
  H   H2110     1.0  0.60541  0.98660  0.55092  1.0000
  H   H2111     1.0  0.53639  0.80698  0.14942  1.0000
  H   H2112     1.0  0.53322  0.83824  0.85088  1.0000
  H   H2113     1.0  0.50954  0.87759  0.81090  1.0000
  H   H2114     1.0  0.53898  0.74924  0.33721  1.0000
  C   C1191     1.0  0.56058  0.82744  0.34301  1.0000
  H   H2115     1.0  0.49522  0.84074  0.09254  1.0000
  H   H2116     1.0  0.50261  0.79202  0.38037  1.0000
  H   H2117     1.0  0.59238  0.96202  0.68404  1.0000
  H   H2118     1.0  0.55869  0.95091  0.63667  1.0000
  C   C1192     1.0  0.50456  0.82932  0.85670  1.0000
  C   C1193     1.0  0.50480  0.82860  0.54921  1.0000
  N   N66       1.0  0.57578  0.97858  0.64557  1.0000
  C   C1194     1.0  0.52066  0.82749  0.84075  1.0000
  H   H2119     1.0  0.48817  0.85479  0.74643  1.0000
  C   C1195     1.0  0.53058  0.86208  0.08427  1.0000
  C   C1196     1.0  0.56534  0.97829  0.51897  1.0000
  Fe  Fe135     1.0  0.49057  0.76746  0.04526  1.0000
  H   H2120     1.0  0.52247  0.98529  0.65272  1.0000
  H   H2121     1.0  0.58177  0.93041  0.69807  1.0000
  C   C1197     1.0  0.52521  0.79655  0.13424  1.0000
  C   C1198     1.0  0.51363  0.80418  0.11619  1.0000
  C   C1199     1.0  0.48861  0.81458  0.01369  1.0000
  H   H2122     1.0  0.58129  0.96915  0.59483  1.0000
  H   H2123     1.0  0.52674  0.81513  0.34345  1.0000
  N   N67       1.0  0.50392  0.84681  0.85132  1.0000
  C   C1200     1.0  0.49905  0.86658  0.75898  1.0000
  H   H2124     1.0  0.51792  0.85916  0.13474  1.0000
  H   H2125     1.0  0.50440  0.82624  0.88561  1.0000
  H   H2126     1.0  0.54439  0.97845  0.55118  1.0000
  C   C1201     1.0  0.52039  0.86216  0.86543  1.0000
  C   C1202     1.0  0.53874  0.75117  0.36678  1.0000
  H   H2127     1.0  0.53213  0.81297  0.40389  1.0000
  H   H2128     1.0  0.52523  0.74301  0.37621  1.0000
  H   H2129     1.0  0.53042  0.84631  0.12904  1.0000
  H   H2130     1.0  0.51577  0.83653  0.44870  1.0000
  H   H2131     1.0  0.58387  0.85170  0.33416  1.0000
  H   H2132     1.0  0.56541  0.80571  0.36268  1.0000
  C   C1203     1.0  0.58821  0.97962  0.61575  1.0000
  C   C1204     1.0  0.58043  0.83752  0.33807  1.0000
  H   H2133     1.0  0.49721  0.87848  0.75181  1.0000
  H   H2134     1.0  0.56893  0.98120  0.06569  1.0000
  H   H2135     1.0  0.55389  0.82972  0.31894  1.0000
  H   H2136     1.0  0.51874  0.87454  0.86423  1.0000
  C   C1205     1.0  0.48717  0.83052  0.00764  1.0000
  H   H2137     1.0  0.53067  0.79082  0.11336  1.0000
  C   C1206     1.0  0.49246  0.79738  0.33105  1.0000
  S   S273      1.0  0.50183  0.79904  0.45784  1.0000
  H   H2138     1.0  0.54008  0.96914  0.66735  1.0000
  H   H2139     1.0  0.52188  0.81403  0.09672  1.0000
  C   C1207     1.0  0.50039  0.98486  0.48299  1.0000
  C   C1208     1.0  0.54679  0.98215  0.65469  1.0000
  H   H2140     1.0  0.54236  0.87382  0.09431  1.0000
  C   C1209     1.0  0.54951  0.80950  0.46488  1.0000
  H   H2141     1.0  0.49579  0.80082  0.53565  1.0000
  H   H2142     1.0  0.49770  0.87190  0.49067  1.0000
  C   C1210     1.0  0.52385  0.80094  0.34082  1.0000
  C   C1211     1.0  0.53623  0.80202  0.40165  1.0000
  H   H2143     1.0  0.50297  0.79317  0.10126  1.0000
  C   C1212     1.0  0.57216  0.93586  0.69178  1.0000
  C   C1213     1.0  0.49358  0.84622  0.21942  1.0000
  H   H2144     1.0  0.51454  0.96831  0.48640  1.0000
  H   H2145     1.0  0.53165  0.86444  0.84756  1.0000
  H   H2146     1.0  0.53093  0.77389  0.32898  1.0000
  H   H2147     1.0  0.58708  0.98274  0.48424  1.0000
  H   H2148     1.0  0.54925  0.87518  0.94005  1.0000
  H   H2149     1.0  0.55952  0.79879  0.42296  1.0000
  H   H2150     1.0  0.49093  0.95635  0.48231  1.0000
  H   H2151     1.0  0.49240  0.81848  0.84492  1.0000
  H   H2152     1.0  0.58560  0.94816  0.64423  1.0000
  H   H2153     1.0  0.58213  0.97630  0.72424  1.0000
  H   H2154     1.0  0.49176  0.83701  0.79882  1.0000
  C   C1214     1.0  0.58079  0.95217  0.66886  1.0000
  H   H2155     1.0  0.49309  0.84161  0.92402  1.0000
  H   H2156     1.0  0.55310  0.98315  0.95630  1.0000
  H   H2157     1.0  0.55438  0.86985  0.89590  1.0000
  H   H2158     1.0  0.51485  0.85056  0.79792  1.0000
  C   C1215     1.0  0.50607  0.81264  0.14449  1.0000
  C   C1216     1.0  0.50129  0.81407  0.52553  1.0000
  C   C1217     1.0  0.50184  0.96814  0.49484  1.0000
  C   C1218     1.0  0.56147  0.98278  0.62941  1.0000
  H   H2159     1.0  0.51404  0.84562  0.18650  1.0000
  H   H2160     1.0  0.52513  0.84831  0.91224  1.0000
  H   H2161     1.0  0.54813  0.88774  0.90205  1.0000
  H   H2162     1.0  0.56769  0.93929  0.71751  1.0000
  H   H2163     1.0  0.55877  0.95824  0.68104  1.0000
  H   H2164     1.0  0.56069  0.92558  0.67701  1.0000
  H   H2165     1.0  0.51759  0.82228  0.16007  1.0000
  C   C1219     1.0  0.48868  0.74172  0.22430  1.0000
  H   H2166     1.0  0.50697  0.82882  0.07876  1.0000
  H   H2167     1.0  0.55505  0.97359  0.60620  1.0000
  H   H2168     1.0  0.48906  0.86049  0.87160  1.0000
  H   H2169     1.0  0.50091  0.96689  0.52453  1.0000
  H   H2170     1.0  0.48735  0.98368  0.49156  1.0000
  C   C1220     1.0  0.57928  0.98862  0.49674  1.0000
  Fe  Fe136     1.0  0.48902  0.76847  0.45344  1.0000
  H   H2171     1.0  0.48615  0.90368  0.68681  1.0000
  H   H2172     1.0  0.49514  0.95399  0.64151  1.0000
  H   H2173     1.0  0.50200  0.89832  0.45392  1.0000
  H   H2174     1.0  0.48954  0.93325  0.69430  1.0000
  C   C1221     1.0  0.48718  0.74373  0.29012  1.0000
  H   H2175     1.0  0.49624  0.81144  0.33819  1.0000
  C   C1222     1.0  0.50396  0.83489  0.10287  1.0000
  C   C1223     1.0  0.53276  0.98562  0.63400  1.0000
  H   H2176     1.0  0.48750  0.93933  0.75746  1.0000
  H   H2177     1.0  0.49848  0.80219  0.16384  1.0000
  N   N68       1.0  0.49461  0.82103  0.13014  1.0000
  H   H2178     1.0  0.49197  0.88371  0.41566  1.0000
  C   C1224     1.0  0.48914  0.87035  0.46670  1.0000
  H   H2179     1.0  0.50253  0.85127  0.24336  1.0000
  H   H2180     1.0  0.48625  0.86393  0.80935  1.0000
  H   H2181     1.0  0.49293  0.85761  0.20576  1.0000
  C   C1225     1.0  0.48807  0.82854  0.16076  1.0000
  C   C1226     1.0  0.48761  0.84677  0.86811  1.0000
  C   C1227     1.0  0.55943  0.98976  0.98126  1.0000
  H   H2182     1.0  0.48659  0.85792  0.45197  1.0000
  C   C1228     1.0  0.75955  0.20076  0.83934  1.0000
  H   H2183     1.0  0.76053  0.21393  0.84761  1.0000
  S   S274      1.0  0.74309  0.23101  0.56401  1.0000
  S   S275      1.0  0.74810  0.23065  0.92932  1.0000
  H   H2184     1.0  0.77308  0.20173  0.83688  1.0000
  H   H2185     1.0  0.75721  0.19145  0.89295  1.0000
  H   H2186     1.0  0.74926  0.17424  0.85853  1.0000
  H   H2187     1.0  0.75277  0.19701  0.81257  1.0000
  C   C1229     1.0  0.74955  0.18705  0.86723  1.0000
  H   H2188     1.0  0.73960  0.17088  0.92768  1.0000
  H   H2189     1.0  0.73901  0.16138  0.99218  1.0000
  Fe  Fe137     1.0  0.88692  0.39003  0.41089  1.0000
  S   S276      1.0  0.88817  0.38090  0.46653  1.0000
  S   S277      1.0  0.88818  0.41613  0.39362  1.0000
  Fe  Fe138     1.0  0.88619  0.35728  0.37576  1.0000
  S   S278      1.0  0.88796  0.34544  0.42951  1.0000
  S   S279      1.0  0.88044  0.34347  0.32045  1.0000
  Fe  Fe139     1.0  0.86740  0.35423  0.44769  1.0000
  S   S280      1.0  0.84520  0.33989  0.48786  1.0000
  Fe  Fe140     1.0  0.90870  0.37288  0.44529  1.0000
  S   S281      1.0  0.93198  0.38037  0.48608  1.0000
  S   S282      1.0  0.86457  0.36445  0.39351  1.0000
  S   S283      1.0  0.90844  0.38359  0.39017  1.0000
  Fe  Fe141     1.0  0.89972  0.36923  0.11012  1.0000
  S   S284      1.0  0.90289  0.35119  0.06804  1.0000
  S   S285      1.0  0.91133  0.37234  0.16725  1.0000
  Fe  Fe142     1.0  0.88426  0.38516  0.05493  1.0000
  S   S286      1.0  0.88595  0.36811  0.00955  1.0000
  S   S287      1.0  0.87371  0.40503  0.04175  1.0000
  Fe  Fe143     1.0  0.87524  0.34612  0.04889  1.0000
  S   S288      1.0  0.85421  0.31758  0.03811  1.0000
  Fe  Fe144     1.0  0.91334  0.37479  0.03199  1.0000
  S   S289      1.0  0.93559  0.38315  0.99051  1.0000
  S   S290      1.0  0.87181  0.36292  0.09322  1.0000
  S   S291      1.0  0.91193  0.39299  0.07515  1.0000
  S   S292      1.0  0.75389  0.46673  0.93556  1.0000
  H   H2190     1.0  0.96574  0.45389  0.06782  1.0000
  S   S293      1.0  0.77729  0.28526  0.96067  1.0000
  S   S294      1.0  0.75694  0.46685  0.60954  1.0000
  H   H2191     1.0  0.86427  0.45455  0.42975  1.0000
  C   C1230     1.0  0.94924  0.47806  0.31553  1.0000
  C   C1231     1.0  0.95210  0.48767  0.49723  1.0000
  H   H2192     1.0  0.96720  0.43697  0.00223  1.0000
  H   H2193     1.0  0.84283  0.25271  0.54678  1.0000
  H   H2194     1.0  0.92558  0.33793  0.23880  1.0000
  H   H2195     1.0  0.81106  0.34243  0.44684  1.0000
  C   C1232     1.0  0.96539  0.39682  0.45553  1.0000
  H   H2196     1.0  0.88780  0.45142  0.23297  1.0000
  H   H2197     1.0  0.90649  0.31826  0.08937  1.0000
  C   C1233     1.0  0.88695  0.42618  0.05952  1.0000
  C   C1234     1.0  0.88634  0.44098  0.04378  1.0000
  C   C1235     1.0  0.89735  0.45801  0.05699  1.0000
  C   C1236     1.0  0.90914  0.46020  0.08561  1.0000
  C   C1237     1.0  0.90947  0.44541  0.10174  1.0000
  C   C1238     1.0  0.89830  0.42842  0.08893  1.0000
  H   H2198     1.0  0.87766  0.43924  0.02083  1.0000
  H   H2199     1.0  0.89716  0.46946  0.04443  1.0000
  H   H2200     1.0  0.91840  0.44711  0.12425  1.0000
  H   H2201     1.0  0.89846  0.41706  0.10189  1.0000
  C   C1239     1.0  0.83277  0.30892  0.01675  1.0000
  C   C1240     1.0  0.82580  0.31972  0.00121  1.0000
  C   C1241     1.0  0.80891  0.31222  0.98425  1.0000
  C   C1242     1.0  0.79860  0.29381  0.98260  1.0000
  C   C1243     1.0  0.80551  0.28301  0.99836  1.0000
  C   C1244     1.0  0.82244  0.29052  0.01522  1.0000
  H   H2202     1.0  0.83351  0.33387  0.00191  1.0000
  H   H2203     1.0  0.80390  0.32076  0.97191  1.0000
  H   H2204     1.0  0.79786  0.26887  0.99743  1.0000
  H   H2205     1.0  0.82762  0.28197  0.02702  1.0000
  H   H2206     1.0  0.76821  0.30657  0.54260  1.0000
  C   C1245     1.0  0.95873  0.39741  0.99017  1.0000
  H   H2207     1.0  0.96229  0.40246  0.04725  1.0000
  H   H2208     1.0  0.95994  0.39522  0.93258  1.0000
  C   C1246     1.0  0.82443  0.32087  0.48773  1.0000
  C   C1247     1.0  0.81528  0.31594  0.52019  1.0000
  C   C1248     1.0  0.79937  0.30043  0.52220  1.0000
  C   C1249     1.0  0.79228  0.28959  0.49165  1.0000
  C   C1250     1.0  0.80125  0.29469  0.45906  1.0000
  C   C1251     1.0  0.81713  0.31023  0.45700  1.0000
  H   H2209     1.0  0.82072  0.32403  0.54417  1.0000
  H   H2210     1.0  0.79279  0.29669  0.54756  1.0000
  H   H2211     1.0  0.79598  0.28643  0.43522  1.0000
  H   H2212     1.0  0.82390  0.31380  0.43180  1.0000
  C   C1252     1.0  0.88852  0.35438  0.27940  1.0000
  C   C1253     1.0  0.90648  0.36506  0.27523  1.0000
  C   C1254     1.0  0.91308  0.37097  0.24090  1.0000
  C   C1255     1.0  0.90182  0.36664  0.21036  1.0000
  C   C1256     1.0  0.88369  0.35694  0.21486  1.0000
  C   C1257     1.0  0.87715  0.35048  0.24903  1.0000
  H   H2213     1.0  0.91544  0.36797  0.29816  1.0000
  H   H2214     1.0  0.92712  0.37850  0.23783  1.0000
  H   H2215     1.0  0.87481  0.35396  0.19188  1.0000
  H   H2216     1.0  0.86324  0.34222  0.25190  1.0000
  C   C1258     1.0  0.95551  0.39244  0.48684  1.0000
  C   C1259     1.0  0.96459  0.39743  0.52031  1.0000
  H   H2217     1.0  0.95717  0.39411  0.54476  1.0000
  C   C1260     1.0  0.89364  0.43287  0.42650  1.0000
  C   C1261     1.0  0.90014  0.45032  0.41541  1.0000
  C   C1262     1.0  0.90408  0.46407  0.44059  1.0000
  C   C1263     1.0  0.90145  0.46043  0.47710  1.0000
  C   C1264     1.0  0.89532  0.44301  0.48848  1.0000
  C   C1265     1.0  0.89135  0.42919  0.46311  1.0000
  H   H2218     1.0  0.90209  0.45320  0.38725  1.0000
  H   H2219     1.0  0.90910  0.47749  0.43165  1.0000
  H   H2220     1.0  0.89327  0.44018  0.51675  1.0000
  H   H2221     1.0  0.88621  0.41571  0.47178  1.0000
  H   H2222     1.0  0.95872  0.39301  0.42957  1.0000
  N   N69       1.0  0.95227  0.44261  0.46932  1.0000
  C   C1266     1.0  0.74277  0.30659  0.90110  1.0000
  C   C1267     1.0  0.93593  0.42831  0.48494  1.0000
  C   C1268     1.0  0.95395  0.43693  0.43137  1.0000
  C   C1269     1.0  0.95060  0.45978  0.46736  1.0000
  C   C1270     1.0  0.76103  0.48661  0.43887  1.0000
  C   C1271     1.0  0.85947  0.48498  0.54518  1.0000
  C   C1272     1.0  0.93770  0.43243  0.40579  1.0000
  C   C1273     1.0  0.93573  0.42617  0.52636  1.0000
  C   C1274     1.0  0.91754  0.41336  0.53877  1.0000
  Fe  Fe145     1.0  0.76087  0.48497  0.98429  1.0000
  H   H2223     1.0  0.74229  0.29457  0.76935  1.0000
  C   C1275     1.0  0.94093  0.42666  0.36852  1.0000
  C   C1276     1.0  0.84432  0.47831  0.10547  1.0000
  H   H2224     1.0  0.77831  0.31726  0.60384  1.0000
  H   H2225     1.0  0.92403  0.43008  0.47669  1.0000
  H   H2226     1.0  0.93369  0.41512  0.47368  1.0000
  H   H2227     1.0  0.95678  0.42511  0.43188  1.0000
  C   C1277     1.0  0.85462  0.26148  0.53199  1.0000
  H   H2228     1.0  0.93444  0.46479  0.26807  1.0000
  H   H2229     1.0  0.93806  0.45770  0.45331  1.0000
  H   H2230     1.0  0.79575  0.47212  0.56105  1.0000
  C   C1278     1.0  0.90799  0.47807  0.22848  1.0000
  C   C1279     1.0  0.75096  0.29493  0.03364  1.0000
  H   H2231     1.0  0.73830  0.28067  0.08148  1.0000
  H   H2232     1.0  0.93482  0.44400  0.40203  1.0000
  H   H2233     1.0  0.92579  0.42157  0.41638  1.0000
  H   H2234     1.0  0.94513  0.42069  0.53449  1.0000
  H   H2235     1.0  0.93950  0.43883  0.54109  1.0000
  H   H2236     1.0  0.90745  0.41802  0.53115  1.0000
  H   H2237     1.0  0.91383  0.40005  0.52663  1.0000
  H   H2238     1.0  0.91777  0.41229  0.56846  1.0000
  N   N70       1.0  0.82400  0.45120  0.06527  1.0000
  H   H2239     1.0  0.92142  0.48438  0.29914  1.0000
  H   H2240     1.0  0.89279  0.48152  0.28938  1.0000
  H   H2241     1.0  0.92128  0.48681  0.23950  1.0000
  H   H2242     1.0  0.95436  0.40351  0.79590  1.0000
  C   C1280     1.0  0.96849  0.44445  0.49047  1.0000
  H   H2243     1.0  0.94381  0.41496  0.37038  1.0000
  H   H2244     1.0  0.92895  0.42303  0.35119  1.0000
  H   H2245     1.0  0.95212  0.43753  0.35574  1.0000
  S   S295      1.0  0.75165  0.25022  0.66893  1.0000
  H   H2246     1.0  0.85539  0.44880  0.03904  1.0000
  C   C1281     1.0  0.78423  0.33034  0.46586  1.0000
  H   H2247     1.0  0.78045  0.32046  0.44345  1.0000
  S   S296      1.0  0.74885  0.27157  0.58337  1.0000
  H   H2248     1.0  0.85187  0.25937  0.50267  1.0000
  C   C1282     1.0  0.86212  0.46634  0.99531  1.0000
  H   H2249     1.0  0.76524  0.33934  0.44818  1.0000
  H   H2250     1.0  0.87876  0.26959  0.21650  1.0000
  C   C1283     1.0  0.76777  0.32013  0.59129  1.0000
  C   C1284     1.0  0.76885  0.33530  0.47433  1.0000
  C   C1285     1.0  0.75857  0.29276  0.81231  1.0000
  H   H2251     1.0  0.79748  0.35270  0.43094  1.0000
  H   H2252     1.0  0.93414  0.48659  0.02515  1.0000
  H   H2253     1.0  0.76657  0.26264  0.73928  1.0000
  H   H2254     1.0  0.96902  0.43143  0.49128  1.0000
  C   C1286     1.0  0.74273  0.31793  0.93351  1.0000
  H   H2255     1.0  0.88874  0.40059  0.95831  1.0000
  C   C1287     1.0  0.90299  0.40711  0.95223  1.0000
  H   H2256     1.0  0.87836  0.28714  0.04607  1.0000
  H   H2257     1.0  0.87454  0.48837  0.33346  1.0000
  C   C1288     1.0  0.95145  0.44711  0.07268  1.0000
  C   C1289     1.0  0.83606  0.41199  0.08299  1.0000
  H   H2258     1.0  0.79376  0.45248  0.58360  1.0000
  H   H2259     1.0  0.96792  0.44808  0.51901  1.0000
  H   H2260     1.0  0.95857  0.47749  0.03751  1.0000
  H   H2261     1.0  0.82912  0.48357  0.54812  1.0000
  C   C1290     1.0  0.79601  0.45226  0.03660  1.0000
  H   H2262     1.0  0.94174  0.48736  0.47794  1.0000
  H   H2263     1.0  0.91026  0.41061  0.00787  1.0000
  Fe  Fe146     1.0  0.73900  0.24575  0.61222  1.0000
  C   C1291     1.0  0.86923  0.25583  0.54095  1.0000
  C   C1292     1.0  0.74939  0.30283  0.48052  1.0000
  H   H2264     1.0  0.75325  0.30437  0.96817  1.0000
  H   H2265     1.0  0.73878  0.27012  0.44698  1.0000
  H   H2266     1.0  0.87645  0.46991  0.99707  1.0000
  H   H2267     1.0  0.86487  0.24177  0.53294  1.0000
  C   C1293     1.0  0.80057  0.34646  0.45450  1.0000
  C   C1294     1.0  0.88700  0.46727  0.29581  1.0000
  H   H2268     1.0  0.84943  0.30966  0.11717  1.0000
  C   C1295     1.0  0.76902  0.31966  0.55035  1.0000
  H   H2269     1.0  0.74758  0.31651  0.06032  1.0000
  C   C1296     1.0  0.85400  0.46092  0.03224  1.0000
  H   H2270     1.0  0.87164  0.29298  0.47516  1.0000
  H   H2271     1.0  0.92738  0.45497  0.01795  1.0000
  C   C1297     1.0  0.85694  0.29540  0.42958  1.0000
  C   C1298     1.0  0.77767  0.44046  0.02108  1.0000
  H   H2272     1.0  0.84103  0.44311  0.43795  1.0000
  H   H2273     1.0  0.89655  0.46827  0.17497  1.0000
  H   H2274     1.0  0.90787  0.42898  0.98837  1.0000
  H   H2275     1.0  0.91903  0.47112  0.18126  1.0000
  H   H2276     1.0  0.76210  0.28318  0.79758  1.0000
  C   C1299     1.0  0.90096  0.45966  0.24569  1.0000
  C   C1300     1.0  0.87631  0.26479  0.18804  1.0000
  S   S297      1.0  0.92446  0.48120  0.10017  1.0000
  C   C1301     1.0  0.93325  0.42796  0.97739  1.0000
  H   H2277     1.0  0.87235  0.25731  0.57029  1.0000
  H   H2278     1.0  0.85135  0.28122  0.42158  1.0000
  H   H2279     1.0  0.74306  0.28378  0.01510  1.0000
  H   H2280     1.0  0.84341  0.29827  0.15894  1.0000
  H   H2281     1.0  0.75208  0.41345  0.65437  1.0000
  C   C1302     1.0  0.96346  0.44781  0.99540  1.0000
  H   H2282     1.0  0.77845  0.43152  0.99960  1.0000
  H   H2283     1.0  0.75712  0.27737  0.06725  1.0000
  C   C1303     1.0  0.75959  0.33608  0.00558  1.0000
  C   C1304     1.0  0.77749  0.33501  0.00349  1.0000
  H   H2284     1.0  0.83239  0.40901  0.11149  1.0000
  C   C1305     1.0  0.95307  0.47639  0.00991  1.0000
  H   H2285     1.0  0.76090  0.43564  0.63845  1.0000
  H   H2286     1.0  0.86196  0.25672  0.18332  1.0000
  C   C1306     1.0  0.79270  0.35331  0.00023  1.0000
  C   C1307     1.0  0.85667  0.46066  0.48176  1.0000
  H   H2287     1.0  0.76450  0.30110  0.02343  1.0000
  C   C1308     1.0  0.94095  0.43484  0.04085  1.0000
  H   H2288     1.0  0.85970  0.28389  0.15763  1.0000
  C   C1309     1.0  0.87341  0.29208  0.16746  1.0000
  H   H2289     1.0  0.86692  0.33429  0.62322  1.0000
  H   H2290     1.0  0.75910  0.34511  0.98445  1.0000
  H   H2291     1.0  0.76014  0.34318  0.03134  1.0000
  H   H2292     1.0  0.77796  0.32699  0.98000  1.0000
  H   H2293     1.0  0.78003  0.32938  0.02852  1.0000
  H   H2294     1.0  0.88682  0.31020  0.03513  1.0000
  H   H2295     1.0  0.93415  0.45798  0.97283  1.0000
  H   H2296     1.0  0.86923  0.47268  0.48418  1.0000
  H   H2297     1.0  0.83560  0.29388  0.48575  1.0000
  H   H2298     1.0  0.84849  0.33617  0.14592  1.0000
  H   H2299     1.0  0.91441  0.49002  0.17620  1.0000
  C   C1310     1.0  0.80468  0.44128  0.05481  1.0000
  H   H2300     1.0  0.82446  0.28952  0.55562  1.0000
  H   H2301     1.0  0.93156  0.32900  0.19958  1.0000
  H   H2302     1.0  0.79132  0.35951  0.97490  1.0000
  H   H2303     1.0  0.79316  0.36194  0.02352  1.0000
  H   H2304     1.0  0.80538  0.35214  0.99975  1.0000
  C   C1311     1.0  0.74439  0.48779  0.80891  1.0000
  H   H2305     1.0  0.95502  0.42702  0.10387  1.0000
  H   H2306     1.0  0.90885  0.31508  0.15042  1.0000
  H   H2307     1.0  0.82825  0.40796  0.56694  1.0000
  C   C1312     1.0  0.93208  0.46497  0.29727  1.0000
  C   C1313     1.0  0.89600  0.42688  0.27677  1.0000
  C   C1314     1.0  0.89037  0.40943  0.29613  1.0000
  H   H2308     1.0  0.82141  0.47538  0.07619  1.0000
  H   H2309     1.0  0.90966  0.45364  0.23649  1.0000
  H   H2310     1.0  0.77430  0.34756  0.49141  1.0000
  H   H2311     1.0  0.92905  0.45183  0.30845  1.0000
  H   H2312     1.0  0.88872  0.42394  0.25048  1.0000
  H   H2313     1.0  0.91020  0.43181  0.27126  1.0000
  H   H2314     1.0  0.87626  0.40401  0.30331  1.0000
  H   H2315     1.0  0.89226  0.39963  0.27844  1.0000
  H   H2316     1.0  0.89851  0.41129  0.32098  1.0000
  H   H2317     1.0  0.92692  0.43049  0.04772  1.0000
  H   H2318     1.0  0.97686  0.38539  0.76781  1.0000
  H   H2319     1.0  0.94663  0.38088  0.78089  1.0000
  C   C1315     1.0  0.88993  0.30016  0.04881  1.0000
  H   H2320     1.0  0.90470  0.33392  0.14760  1.0000
  H   H2321     1.0  0.87792  0.31806  0.09552  1.0000
  H   H2322     1.0  0.87683  0.33317  0.14894  1.0000
  H   H2323     1.0  0.90122  0.29936  0.03514  1.0000
  H   H2324     1.0  0.76909  0.30620  0.80815  1.0000
  H   H2325     1.0  0.81671  0.46102  0.11318  1.0000
  C   C1316     1.0  0.89174  0.44040  0.29885  1.0000
  H   H2326     1.0  0.89560  0.43996  0.32747  1.0000
  S   S298      1.0  0.73911  0.26185  0.89601  1.0000
  C   C1317     1.0  0.95702  0.39447  0.77743  1.0000
  H   H2327     1.0  0.96381  0.43999  0.93907  1.0000
  H   H2328     1.0  0.75658  0.33665  0.54106  1.0000
  C   C1318     1.0  0.87930  0.30681  0.10832  1.0000
  H   H2329     1.0  0.87853  0.33890  0.58148  1.0000
  H   H2330     1.0  0.76107  0.30027  0.48625  1.0000
  H   H2331     1.0  0.87707  0.43468  0.29847  1.0000
  H   H2332     1.0  0.92747  0.34842  0.19624  1.0000
  N   N71       1.0  0.75274  0.32141  0.49147  1.0000
  C   C1319     1.0  0.89997  0.32075  0.16025  1.0000
  C   C1320     1.0  0.89474  0.30532  0.08844  1.0000
  H   H2333     1.0  0.89860  0.29552  0.10050  1.0000
  H   H2334     1.0  0.86691  0.29503  0.10070  1.0000
  C   C1321     1.0  0.91691  0.47017  0.30497  1.0000
  H   H2335     1.0  0.86200  0.47134  0.05202  1.0000
  N   N72       1.0  0.89947  0.45927  0.28617  1.0000
  H   H2336     1.0  0.78862  0.24437  0.53947  1.0000
  C   C1322     1.0  0.87051  0.31952  0.15949  1.0000
  N   N73       1.0  0.88102  0.30950  0.14881  1.0000
  H   H2337     1.0  0.85591  0.45528  0.97546  1.0000
  C   C1323     1.0  0.73676  0.32416  0.47999  1.0000
  C   C1324     1.0  0.80922  0.45805  0.53485  1.0000
  C   C1325     1.0  0.82928  0.43876  0.08570  1.0000
  C   C1326     1.0  0.92332  0.33548  0.20932  1.0000
  H   H2338     1.0  0.79678  0.43508  0.07882  1.0000
  C   C1327     1.0  0.90380  0.32380  0.20138  1.0000
  C   C1328     1.0  0.85085  0.31131  0.14685  1.0000
  C   C1329     1.0  0.84196  0.32303  0.15825  1.0000
  S   S299      1.0  0.77287  0.26921  0.49290  1.0000
  C   C1330     1.0  0.85286  0.45586  0.44179  1.0000
  H   H2339     1.0  0.82793  0.31687  0.14905  1.0000
  C   C1331     1.0  0.86871  0.47433  0.34135  1.0000
  H   H2340     1.0  0.90040  0.31114  0.21505  1.0000
  H   H2341     1.0  0.81959  0.25393  0.52234  1.0000
  H   H2342     1.0  0.89631  0.33042  0.21380  1.0000
  H   H2343     1.0  0.76892  0.43251  0.04252  1.0000
  C   C1332     1.0  0.83863  0.42165  0.57064  1.0000
  H   H2344     1.0  0.87043  0.32098  0.18921  1.0000
  H   H2345     1.0  0.88094  0.27470  0.13478  1.0000
  C   C1333     1.0  0.74919  0.24498  0.77792  1.0000
  H   H2346     1.0  0.81146  0.41199  0.06683  1.0000
  H   H2347     1.0  0.84250  0.32474  0.18799  1.0000
  H   H2348     1.0  0.88134  0.26386  0.52609  1.0000
  H   H2349     1.0  0.95629  0.39828  0.74918  1.0000
  H   H2350     1.0  0.87225  0.29416  0.19677  1.0000
  H   H2351     1.0  0.95620  0.44580  0.12989  1.0000
  H   H2352     1.0  0.89759  0.28766  0.16804  1.0000
  H   H2353     1.0  0.76075  0.48070  0.41185  1.0000
  C   C1334     1.0  0.88188  0.46645  0.33594  1.0000
  H   H2354     1.0  0.87172  0.48356  0.53892  1.0000
  H   H2355     1.0  0.78136  0.45073  0.54260  1.0000
  S   S300      1.0  0.90537  0.47764  0.50812  1.0000
  C   C1335     1.0  0.75429  0.25113  0.74290  1.0000
  H   H2356     1.0  0.89354  0.47427  0.35338  1.0000
  H   H2357     1.0  0.82949  0.43082  0.52506  1.0000
  H   H2358     1.0  0.81999  0.43267  0.56735  1.0000
  H   H2359     1.0  0.82924  0.45198  0.49185  1.0000
  H   H2360     1.0  0.84143  0.42451  0.59991  1.0000
  C   C1336     1.0  0.88324  0.28031  0.16258  1.0000
  C   C1337     1.0  0.86008  0.28089  0.54378  1.0000
  C   C1338     1.0  0.94929  0.43666  0.10703  1.0000
  C   C1339     1.0  0.83234  0.43454  0.55392  1.0000
  S   S301      1.0  0.74838  0.48006  0.53263  1.0000
  H   H2361     1.0  0.80831  0.46300  0.50768  1.0000
  H   H2362     1.0  0.75475  0.33054  0.93229  1.0000
  H   H2363     1.0  0.83413  0.47037  0.02348  1.0000
  H   H2364     1.0  0.96528  0.44738  0.41798  1.0000
  H   H2365     1.0  0.80265  0.43024  0.03566  1.0000
  H   H2366     1.0  0.94337  0.42277  0.04126  1.0000
  H   H2367     1.0  0.85147  0.47091  0.11605  1.0000
  H   H2368     1.0  0.85073  0.42252  0.55738  1.0000
  H   H2369     1.0  0.85850  0.44971  0.49463  1.0000
  H   H2370     1.0  0.80694  0.44414  0.53160  1.0000
  H   H2371     1.0  0.85067  0.46632  0.42758  1.0000
  C   C1340     1.0  0.74236  0.30846  0.96920  1.0000
  C   C1341     1.0  0.84152  0.46378  0.49898  1.0000
  Fe  Fe147     1.0  0.75360  0.25884  0.94534  1.0000
  C   C1342     1.0  0.93892  0.45745  0.00071  1.0000
  H   H2372     1.0  0.87457  0.46086  0.27936  1.0000
  H   H2373     1.0  0.75760  0.25165  0.80087  1.0000
  C   C1343     1.0  0.83438  0.45780  0.03147  1.0000
  C   C1344     1.0  0.84627  0.45380  0.55973  1.0000
  H   H2374     1.0  0.94770  0.47843  0.34511  1.0000
  H   H2375     1.0  0.96115  0.46929  0.45058  1.0000
  H   H2376     1.0  0.82226  0.43531  0.11165  1.0000
  C   C1345     1.0  0.82571  0.46624  0.09015  1.0000
  H   H2377     1.0  0.87359  0.28899  0.53408  1.0000
  C   C1346     1.0  0.82568  0.42113  0.06570  1.0000
  H   H2378     1.0  0.75483  0.31001  0.59999  1.0000
  H   H2379     1.0  0.79417  0.26486  0.56340  1.0000
  C   C1347     1.0  0.75420  0.32314  0.53199  1.0000
  C   C1348     1.0  0.95040  0.46905  0.50344  1.0000
  H   H2380     1.0  0.93480  0.43301  0.94959  1.0000
  H   H2381     1.0  0.91544  0.46949  0.33458  1.0000
  C   C1349     1.0  0.74604  0.28123  0.42899  1.0000
  Fe  Fe148     1.0  0.75130  0.25686  0.53488  1.0000
  H   H2382     1.0  0.85642  0.46683  0.32526  1.0000
  H   H2383     1.0  0.86311  0.48400  0.60403  1.0000
  H   H2384     1.0  0.85950  0.45440  0.55405  1.0000
  H   H2385     1.0  0.86532  0.47377  0.37012  1.0000
  N   N74       1.0  0.84336  0.46767  0.53899  1.0000
  H   H2386     1.0  0.80408  0.46008  0.01433  1.0000
  H   H2387     1.0  0.84667  0.45653  0.58912  1.0000
  C   C1350     1.0  0.96866  0.40510  0.02154  1.0000
  H   H2388     1.0  0.74332  0.31376  0.87600  1.0000
  H   H2389     1.0  0.77174  0.44879  0.00917  1.0000
  H   H2390     1.0  0.86744  0.31235  0.47555  1.0000
  N   N75       1.0  0.74326  0.31882  0.00336  1.0000
  C   C1351     1.0  0.96851  0.45235  0.95568  1.0000
  C   C1352     1.0  0.82749  0.46987  0.55250  1.0000
  H   H2391     1.0  0.85625  0.33691  0.58278  1.0000
  N   N76       1.0  0.94435  0.44251  0.00379  1.0000
  H   H2392     1.0  0.82800  0.44846  0.00844  1.0000
  C   C1353     1.0  0.79417  0.45841  0.55694  1.0000
  H   H2393     1.0  0.84854  0.31485  0.53337  1.0000
  C   C1354     1.0  0.94528  0.48977  0.00668  1.0000
  H   H2394     1.0  0.84552  0.30543  0.59949  1.0000
  C   C1355     1.0  0.85622  0.30804  0.54459  1.0000
  C   C1356     1.0  0.83024  0.27996  0.55113  1.0000
  H   H2395     1.0  0.86970  0.31496  0.53381  1.0000
  C   C1357     1.0  0.74220  0.30785  0.03596  1.0000
  H   H2396     1.0  0.94634  0.45708  0.07798  1.0000
  H   H2397     1.0  0.76944  0.33333  0.60098  1.0000
  C   C1358     1.0  0.91313  0.41906  0.98401  1.0000
  H   H2398     1.0  0.93516  0.42942  0.11359  1.0000
  H   H2399     1.0  0.82924  0.42322  0.03699  1.0000
  C   C1359     1.0  0.85827  0.31191  0.58579  1.0000
  C   C1360     1.0  0.73651  0.34177  0.49248  1.0000
  H   H2400     1.0  0.78803  0.32465  0.48916  1.0000
  C   C1361     1.0  0.86544  0.33172  0.59371  1.0000
  H   H2401     1.0  0.83321  0.39944  0.06820  1.0000
  H   H2402     1.0  0.83211  0.27563  0.57841  1.0000
  H   H2403     1.0  0.86157  0.28123  0.57357  1.0000
  H   H2404     1.0  0.85218  0.48715  0.08415  1.0000
  N   N77       1.0  0.84778  0.28885  0.53274  1.0000
  H   H2405     1.0  0.82650  0.46818  0.58216  1.0000
  H   H2406     1.0  0.86039  0.47793  0.98556  1.0000
  H   H2407     1.0  0.90763  0.39670  0.94750  1.0000
  H   H2408     1.0  0.78210  0.33007  0.54348  1.0000
  H   H2409     1.0  0.84729  0.30074  0.42269  1.0000
  H   H2410     1.0  0.86900  0.30260  0.41394  1.0000
  H   H2411     1.0  0.96412  0.48040  0.99101  1.0000
  H   H2412     1.0  0.83850  0.27443  0.48182  1.0000
  C   C1362     1.0  0.84496  0.28818  0.49245  1.0000
  H   H2413     1.0  0.86768  0.30736  0.59798  1.0000
  H   H2414     1.0  0.81078  0.26861  0.50679  1.0000
  C   C1363     1.0  0.81530  0.26406  0.53111  1.0000
  C   C1364     1.0  0.86158  0.29795  0.46980  1.0000
  H   H2415     1.0  0.90466  0.41486  0.92751  1.0000
  H   H2416     1.0  0.93787  0.41736  0.97689  1.0000
  H   H2417     1.0  0.79431  0.46140  0.05642  1.0000
  H   H2418     1.0  0.84031  0.47481  0.48461  1.0000
  C   C1365     1.0  0.74388  0.24231  0.71248  1.0000
  H   H2419     1.0  0.97231  0.45915  0.01252  1.0000
  H   H2420     1.0  0.89898  0.48438  0.23290  1.0000
  H   H2421     1.0  0.75806  0.29005  0.84149  1.0000
  C   C1366     1.0  0.96742  0.40106  0.95706  1.0000
  H   H2422     1.0  0.88321  0.25628  0.18332  1.0000
  C   C1367     1.0  0.97510  0.39501  0.78596  1.0000
  H   H2423     1.0  0.93763  0.46164  0.51663  1.0000
  H   H2424     1.0  0.80579  0.35626  0.47708  1.0000
  H   H2425     1.0  0.94050  0.48988  0.97873  1.0000
  H   H2426     1.0  0.84345  0.44516  0.09363  1.0000
  H   H2427     1.0  0.96245  0.46071  0.94459  1.0000
  H   H2428     1.0  0.87579  0.45271  0.34551  1.0000
  H   H2429     1.0  0.85045  0.42044  0.08181  1.0000
  C   C1368     1.0  0.74372  0.29761  0.44056  1.0000
  H   H2430     1.0  0.75142  0.30847  0.42243  1.0000
  H   H2431     1.0  0.95992  0.47396  0.31007  1.0000
  H   H2432     1.0  0.76021  0.28403  0.42983  1.0000
  H   H2433     1.0  0.97479  0.39036  0.81382  1.0000
  H   H2434     1.0  0.83665  0.48198  0.15965  1.0000
  C   C1369     1.0  0.74092  0.29159  0.79825  1.0000
  Fe  Fe149     1.0  0.74341  0.48454  0.90943  1.0000
  C   C1370     1.0  0.79930  0.25525  0.55487  1.0000
  H   H2435     1.0  0.74919  0.35320  0.48710  1.0000
  H   H2436     1.0  0.80874  0.48985  0.96577  1.0000
  C   C1371     1.0  0.90955  0.47668  0.18781  1.0000
  C   C1372     1.0  0.84333  0.49007  0.13634  1.0000
  H   H2437     1.0  0.96135  0.47030  0.52190  1.0000
  H   H2438     1.0  0.76040  0.29782  0.08931  1.0000
  H   H2439     1.0  0.73863  0.30220  0.81199  1.0000
  H   H2440     1.0  0.80277  0.24969  0.57906  1.0000
  H   H2441     1.0  0.74871  0.47812  0.45258  1.0000
  H   H2442     1.0  0.75445  0.30363  0.90250  1.0000
  C   C1373     1.0  0.75169  0.28726  0.07027  1.0000
  H   H2443     1.0  0.77254  0.48688  0.45439  1.0000
  H   H2444     1.0  0.75043  0.41747  0.60694  1.0000
  H   H2445     1.0  0.74088  0.27722  0.40106  1.0000
  C   C1374     1.0  0.74999  0.42225  0.63476  1.0000
  H   H2446     1.0  0.73889  0.29315  0.49724  1.0000
  C   C1375     1.0  0.98320  0.40645  0.52257  1.0000
  C   C1376     1.0  0.98402  0.40556  0.45782  1.0000
  H   H2447     1.0  0.74145  0.31404  0.54383  1.0000
  Fe  Fe150     1.0  0.73764  0.47548  0.63476  1.0000
  Fe  Fe151     1.0  0.73669  0.45550  0.56477  1.0000
  C   C1377     1.0  0.73557  0.47463  0.73659  1.0000
  H   H2448     1.0  0.84733  0.60837  0.97623  1.0000
  H   H2449     1.0  0.75659  0.53748  0.57897  1.0000
  H   H2450     1.0  0.83998  0.54925  0.03950  1.0000
  H   H2451     1.0  0.80147  0.54886  0.93102  1.0000
  H   H2452     1.0  0.96858  0.57625  0.24604  1.0000
  H   H2453     1.0  0.81872  0.49632  0.45914  1.0000
  H   H2454     1.0  0.82842  0.57829  0.00114  1.0000
  Fe  Fe152     1.0  0.90731  0.52821  0.13808  1.0000
  S   S302      1.0  0.90785  0.54471  0.09005  1.0000
  S   S303      1.0  0.89883  0.53316  0.19375  1.0000
  S   S304      1.0  0.89071  0.50248  0.10930  1.0000
  S   S305      1.0  0.91737  0.51740  0.04089  1.0000
  Fe  Fe153     1.0  0.93274  0.54222  0.07393  1.0000
  S   S306      1.0  0.95976  0.56541  0.06289  1.0000
  Fe  Fe154     1.0  0.89234  0.51868  0.06053  1.0000
  S   S307      1.0  0.86852  0.51131  0.02061  1.0000
  S   S308      1.0  0.93297  0.52780  0.12445  1.0000
  C   C1378     1.0  0.76236  0.50521  0.43499  1.0000
  Fe  Fe155     1.0  0.91179  0.51829  0.40350  1.0000
  S   S309      1.0  0.90818  0.54129  0.42733  1.0000
  S   S310      1.0  0.92053  0.51427  0.34731  1.0000
  C   C1379     1.0  0.83495  0.49979  0.99025  1.0000
  S   S311      1.0  0.90449  0.52344  0.50635  1.0000
  Fe  Fe156     1.0  0.88604  0.52141  0.45996  1.0000
  S   S312      1.0  0.85650  0.51537  0.46115  1.0000
  Fe  Fe157     1.0  0.92697  0.54100  0.47167  1.0000
  S   S313      1.0  0.95167  0.56568  0.49026  1.0000
  H   H2455     1.0  0.83197  0.53445  0.98279  1.0000
  S   S314      1.0  0.93106  0.51876  0.44681  1.0000
  C   C1380     1.0  0.97378  0.56834  0.49763  1.0000
  H   H2456     1.0  0.96856  0.54135  0.48639  1.0000
  N   N78       1.0  0.82030  0.55266  0.97467  1.0000
  C   C1381     1.0  0.80350  0.52407  0.93603  1.0000
  C   C1382     1.0  0.96803  0.56121  0.59194  1.0000
  C   C1383     1.0  0.82039  0.54819  0.46763  1.0000
  H   H2457     1.0  0.84495  0.55290  0.95758  1.0000
  C   C1384     1.0  0.91483  0.52044  0.30525  1.0000
  C   C1385     1.0  0.92376  0.51922  0.27440  1.0000
  C   C1386     1.0  0.91906  0.52304  0.24011  1.0000
  C   C1387     1.0  0.90543  0.52829  0.23631  1.0000
  C   C1388     1.0  0.89676  0.52987  0.26732  1.0000
  C   C1389     1.0  0.90139  0.52594  0.30159  1.0000
  H   H2458     1.0  0.93437  0.51525  0.27696  1.0000
  H   H2459     1.0  0.92598  0.52197  0.21658  1.0000
  H   H2460     1.0  0.94341  0.56697  0.34295  1.0000
  H   H2461     1.0  0.89441  0.52698  0.32504  1.0000
  H   H2462     1.0  0.94214  0.54705  0.56696  1.0000
  H   H2463     1.0  0.73786  0.52927  0.85577  1.0000
  H   H2464     1.0  0.83283  0.60348  0.93695  1.0000
  C   C1390     1.0  0.86511  0.55692  0.01497  1.0000
  H   H2465     1.0  0.96361  0.55205  0.99101  1.0000
  C   C1391     1.0  0.83147  0.51998  0.55218  1.0000
  C   C1392     1.0  0.83610  0.54888  0.98102  1.0000
  H   H2466     1.0  0.76518  0.53824  0.02901  1.0000
  H   H2467     1.0  0.81386  0.55216  0.03085  1.0000
  C   C1393     1.0  0.84701  0.55705  0.01610  1.0000
  C   C1394     1.0  0.84036  0.51303  0.49406  1.0000
  C   C1395     1.0  0.84480  0.52147  0.52790  1.0000
  H   H2468     1.0  0.74997  0.53122  0.91618  1.0000
  H   H2469     1.0  0.82408  0.56002  0.48545  1.0000
  H   H2470     1.0  0.81407  0.50997  0.07412  1.0000
  C   C1396     1.0  0.84568  0.50714  0.02122  1.0000
  H   H2471     1.0  0.84922  0.57088  0.02096  1.0000
  N   N79       1.0  0.76937  0.53400  0.47150  1.0000
  H   H2472     1.0  0.83909  0.57774  0.92175  1.0000
  C   C1397     1.0  0.97330  0.57149  0.30161  1.0000
  H   H2473     1.0  0.96857  0.51882  0.43270  1.0000
  S   S315      1.0  0.75207  0.50371  0.95689  1.0000
  H   H2474     1.0  0.81419  0.57466  0.96358  1.0000
  H   H2475     1.0  0.97224  0.52634  0.35193  1.0000
  C   C1398     1.0  0.76620  0.54039  0.50767  1.0000
  C   C1399     1.0  0.80899  0.49933  0.01985  1.0000
  C   C1400     1.0  0.87922  0.51013  0.58710  1.0000
  H   H2476     1.0  0.80540  0.53126  0.00972  1.0000
  C   C1401     1.0  0.81980  0.50702  0.05055  1.0000
  C   C1402     1.0  0.83795  0.51090  0.05126  1.0000
  S   S316      1.0  0.88867  0.49860  0.43245  1.0000
  C   C1403     1.0  0.80778  0.54512  0.00509  1.0000
  C   C1404     1.0  0.81676  0.49578  0.98962  1.0000
  H   H2477     1.0  0.85365  0.58277  0.96051  1.0000
  H   H2478     1.0  0.85684  0.49950  0.14522  1.0000
  H   H2479     1.0  0.79149  0.55969  0.99932  1.0000
  C   C1405     1.0  0.82239  0.50285  0.48526  1.0000
  H   H2480     1.0  0.81386  0.51927  0.93818  1.0000
  H   H2481     1.0  0.88628  0.53403  0.26474  1.0000
  H   H2482     1.0  0.75233  0.55255  0.90279  1.0000
  C   C1406     1.0  0.78850  0.54372  0.46139  1.0000
  H   H2483     1.0  0.95314  0.49150  0.30498  1.0000
  C   C1407     1.0  0.77801  0.53755  0.03275  1.0000
  H   H2484     1.0  0.78436  0.54462  0.05825  1.0000
  C   C1408     1.0  0.97620  0.56242  0.99947  1.0000
  C   C1409     1.0  0.96668  0.51490  0.40373  1.0000
  H   H2485     1.0  0.85603  0.60978  0.93182  1.0000
  C   C1410     1.0  0.81350  0.50983  0.54337  1.0000
  H   H2486     1.0  0.82277  0.55228  0.43921  1.0000
  C   C1411     1.0  0.94829  0.54951  0.59437  1.0000
  S   S317      1.0  0.79726  0.50905  0.57475  1.0000
  H   H2487     1.0  0.77138  0.51065  0.49086  1.0000
  H   H2488     1.0  0.82160  0.54925  0.91716  1.0000
  H   H2489     1.0  0.84601  0.51689  0.07503  1.0000
  C   C1412     1.0  0.82548  0.57223  0.97359  1.0000
  H   H2490     1.0  0.80311  0.52244  0.87732  1.0000
  H   H2491     1.0  0.85848  0.52959  0.53496  1.0000
  H   H2492     1.0  0.87198  0.56121  0.04155  1.0000
  C   C1413     1.0  0.97785  0.57087  0.03299  1.0000
  H   H2493     1.0  0.96732  0.57406  0.41100  1.0000
  C   C1414     1.0  0.81179  0.54450  0.93883  1.0000
  H   H2494     1.0  0.86384  0.54349  0.00861  1.0000
  C   C1415     1.0  0.84451  0.60233  0.94873  1.0000
  H   H2495     1.0  0.87332  0.56604  0.99430  1.0000
  H   H2496     1.0  0.92543  0.57553  0.38274  1.0000
  H   H2497     1.0  0.94188  0.55606  0.61106  1.0000
  C   C1416     1.0  0.84136  0.58302  0.94979  1.0000
  H   H2498     1.0  0.94096  0.57972  0.41965  1.0000
  H   H2499     1.0  0.94713  0.59335  0.38032  1.0000
  H   H2500     1.0  0.77530  0.55860  0.57429  1.0000
  C   C1417     1.0  0.96658  0.54425  0.38817  1.0000
  C   C1418     1.0  0.96582  0.57285  0.38112  1.0000
  H   H2501     1.0  0.93800  0.55368  0.38208  1.0000
  C   C1419     1.0  0.97716  0.56537  0.62981  1.0000
  H   H2502     1.0  0.96526  0.49618  0.48661  1.0000
  C   C1420     1.0  0.97850  0.55432  0.49404  1.0000
  H   H2503     1.0  0.83511  0.52689  0.57793  1.0000
  C   C1421     1.0  0.94600  0.56709  0.37230  1.0000
  C   C1422     1.0  0.93956  0.57974  0.38989  1.0000
  H   H2504     1.0  0.85915  0.49507  0.52642  1.0000
  C   C1423     1.0  0.78971  0.54585  0.00083  1.0000
  H   H2505     1.0  0.78308  0.52159  0.89644  1.0000
  H   H2506     1.0  0.95218  0.53682  0.38331  1.0000
  H   H2507     1.0  0.78793  0.50276  0.89864  1.0000
  H   H2508     1.0  0.75473  0.56056  0.46611  1.0000
  H   H2509     1.0  0.75971  0.51270  0.78438  1.0000
  H   H2510     1.0  0.95399  0.54726  0.32480  1.0000
  H   H2511     1.0  0.94593  0.53660  0.60601  1.0000
  Fe  Fe158     1.0  0.90759  0.50138  0.47763  1.0000
  H   H2512     1.0  0.78248  0.53860  0.97624  1.0000
  S   S318      1.0  0.74937  0.50185  0.60743  1.0000
  H   H2513     1.0  0.88075  0.51579  0.61479  1.0000
  C   C1424     1.0  0.77105  0.54413  0.57512  1.0000
  H   H2514     1.0  0.82900  0.54167  0.47490  1.0000
  H   H2515     1.0  0.77775  0.54133  0.59851  1.0000
  H   H2516     1.0  0.77468  0.56633  0.44128  1.0000
  H   H2517     1.0  0.96951  0.57352  0.57877  1.0000
  C   C1425     1.0  0.76315  0.51429  0.47211  1.0000
  H   H2518     1.0  0.77409  0.51293  0.41893  1.0000
  H   H2519     1.0  0.77258  0.52324  0.54375  1.0000
  H   H2520     1.0  0.77534  0.52345  0.03478  1.0000
  H   H2521     1.0  0.79378  0.51795  0.95723  1.0000
  H   H2522     1.0  0.96802  0.54742  0.41754  1.0000
  H   H2523     1.0  0.79966  0.53123  0.50078  1.0000
  H   H2524     1.0  0.97482  0.54778  0.31694  1.0000
  C   C1426     1.0  0.96839  0.55591  0.32767  1.0000
  C   C1427     1.0  0.80112  0.53536  0.47252  1.0000
  H   H2525     1.0  0.96920  0.58162  0.31153  1.0000
  H   H2526     1.0  0.84071  0.49691  0.96666  1.0000
  H   H2527     1.0  0.79849  0.52346  0.45566  1.0000
  H   H2528     1.0  0.94989  0.55922  0.26665  1.0000
  H   H2529     1.0  0.95547  0.50318  0.01386  1.0000
  C   C1428     1.0  0.80907  0.50110  0.50980  1.0000
  C   C1429     1.0  0.79387  0.51740  0.89986  1.0000
  H   H2530     1.0  0.89079  0.50743  0.58156  1.0000
  H   H2531     1.0  0.76029  0.53390  0.41663  1.0000
  C   C1430     1.0  0.75794  0.53768  0.44414  1.0000
  H   H2532     1.0  0.77030  0.55485  0.50774  1.0000
  H   H2533     1.0  0.98356  0.59605  0.51088  1.0000
  H   H2534     1.0  0.96829  0.55493  0.25302  1.0000
  C   C1431     1.0  0.74263  0.53912  0.90986  1.0000
  C   C1432     1.0  0.77596  0.53741  0.54056  1.0000
  H   H2535     1.0  0.96850  0.52783  0.05882  1.0000
  H   H2536     1.0  0.74962  0.50793  0.48306  1.0000
  H   H2537     1.0  0.79039  0.54495  0.53816  1.0000
  N   N80       1.0  0.97357  0.56087  0.36668  1.0000
  H   H2538     1.0  0.97121  0.57295  0.64470  1.0000
  H   H2539     1.0  0.79412  0.55746  0.47260  1.0000
  S   S319      1.0  0.78604  0.49464  0.02101  1.0000
  H   H2540     1.0  0.97317  0.50606  0.39849  1.0000
  Fe  Fe159     1.0  0.91651  0.50334  0.09221  1.0000
  H   H2541     1.0  0.95238  0.50744  0.39725  1.0000
  H   H2542     1.0  0.78969  0.54523  0.43171  1.0000
  C   C1433     1.0  0.75112  0.49891  0.77946  1.0000
  H   H2543     1.0  0.97320  0.58653  0.37156  1.0000
  Fe  Fe160     1.0  0.76732  0.49203  0.57899  1.0000
  C   C1434     1.0  0.76051  0.55708  0.44229  1.0000
  H   H2544     1.0  0.75206  0.50118  0.72141  1.0000
  H   H2545     1.0  0.83606  0.49775  0.12767  1.0000
  C   C1435     1.0  0.97473  0.53112  0.38031  1.0000
  C   C1436     1.0  0.96447  0.56502  0.26463  1.0000
  H   H2546     1.0  0.97354  0.55424  0.57413  1.0000
  H   H2547     1.0  0.97304  0.55278  0.64437  1.0000
  H   H2548     1.0  0.87888  0.52002  0.56798  1.0000
  S   S320      1.0  0.74974  0.49703  0.85361  1.0000
  C   C1437     1.0  0.75115  0.55988  0.40908  1.0000
  H   H2549     1.0  0.75181  0.53416  0.51323  1.0000
  H   H2550     1.0  0.79537  0.49324  0.50256  1.0000
  H   H2551     1.0  0.75275  0.57371  0.40906  1.0000
  H   H2552     1.0  0.74370  0.52938  0.44930  1.0000
  H   H2553     1.0  0.75049  0.50403  0.41942  1.0000
  H   H2554     1.0  0.75685  0.55737  0.38409  1.0000
  C   C1438     1.0  0.74684  0.49239  0.74360  1.0000
  H   H2555     1.0  0.95049  0.49357  0.52304  1.0000
  H   H2556     1.0  0.73683  0.55096  0.40931  1.0000
  C   C1439     1.0  0.98279  0.53385  0.06604  1.0000
  H   H2557     1.0  0.98524  0.53833  0.60952  1.0000
  H   H2558     1.0  0.98508  0.58484  0.69578  1.0000
  H   H2559     1.0  0.85124  0.49654  0.59108  1.0000
  H   H2560     1.0  0.98474  0.52754  0.09069  1.0000
  C   C1440     1.0  0.86220  0.49316  0.58384  1.0000
