data_image0
_chemical_formula_structural       SCFeSFeSCFeS2FeSFeS3FeS2FeS2FeSFeHS2H2SC2H3CH3C7H4C6H6C7H4C2H4CH3CHSH2SH4FeHC2H2C2SCH2CH2FeH4C2FeH3NC4HC4HCH11C2H7C3H2C2HSH3CH7C2H5CH2NC12H22CH5NC4H6CH6SHCH3CH7NCH2SHC2HFeHC2H4CHFeSFeSCHSFeS2FeS2FeHFeS3FeSCFeS2FeSFeS3C6H4C6H8CHC7H3C4SNHCH4C3HCH8SHC2HC2H8C3H5CH2SH5SCH2CH4NC12H28NC10H24CH2CH2CHSH2SCH4C4HCFeCH4CHCH4C2H6CH4NCHC3H3CH9FeS2FeS2FeSFeCS2FeS2FeCSFeSFeHS3HFeSHC6H4C6H2FeHC2H2CH5C4H2C2H2C4H3CH8C2H2CH2CH4CH2CH3CHCH3CH2NCSHCH2CH2CH2CH5C2HCH3CH3C2H2C2HC2HNHCHCH2CHC2HCHCHCHSH2C2HNH3CHCNHSH9CH2N2CHCH2SCH4CH6C3H2C2SCHCH2FeH3CH2SCH6CHCH2CH3CHC3H3CHC2HSH2CH3C2H5CH2CFeH3CHC2H2C2H3SHC2H2FeSHFeS2FeSFeS3FeS2FeSFeSFeS3H2FeSH2SCH3C3H6CHCSHC3H2C6H4C6HCH2SHCH3CHC4H2C2H2NC5HC4H12CH9CH8C6HCNH3CHCH2CH4C2HCH6CH3CH2CH4CHCH2NC4HC4HC2H18C2H2CH7CH7CSH2CFeH15SH2C3H2CHCSHCNH4CHC2H4FeNC3HC2HCHCSH2SFeSFeS2FeS2FeSFeS3FeS2FeS2FeSFeS3C2HC3H3C2SCHC3HC2HC2HCHC2HC7H3C6H4C6H5CH2C8H8CHC2H3NH6SH7CH3C2H2NHNC12H35CH10C2HCHC3H2CH3C2HC2H7CH4SHCH2CHCHCH4C2HCHCH5CHC2HC2HC2HCH3CHCH2CH2C2HCH2CH10CH2C2HCHCH4CHCFeC2NC2HNH2CHCHNH3CH6CHCHCH6CHCHFeH7CHC3NH2SCH3SHCH4CSH5FeS2FeS2FeSFeS3FeS2FeS2FeSFeS3C2HC3HC7H4C3H2CH2CHC6H4C7H2CHCHC6H4C3H3C2HCHN2HCSH2CH2CH2NCH4C2H5SHNH4CHC2H2CH6C3H3CH2CH2C2FeCH5C9H11CH8CH2CH2CH3C2H6C2H2CH4CHCH6SH4CHCHC2HC2H5C2H6CHCH3CH4CH2CHCHCHCHSCHC2HCH5NC2HCH4C3H5CH3CHC3HSCHC2H3CH14CH5CH5NH2C2FeHC2HNC2H2CHCH2NH4CH2CHCH2NH9C2H2NC2H3FeH2C3HC2HC2H2CH5CHSCH3C2H2CH2CH2CSFe2SH5CH7SH2FeSHSH2CHCHSH5CH3C2SCFeC2HC3HSH3CH5C2SH2SHFeH4CHCH2CNCHCH3CHSC2HFeCHCH3C2H2CHSC2FeSH2C2HCH2C2SCH2CH2CHCH2FeC2H5SCH4CH2C2FeS2FeS2FeSFeS3FeS2FeS2FeSFeS3C9H4C6H3C6H4CHC8HCH2C6H3C6H4C2HCHC2H6CH10CHNH3CHCH5CH2SC2H3CSHCH4CH3NH10CHCH4CHNHC4HCHCSCH5NC4H3C2HCH2CH7C2HCH7CH2NH4CHC2H2FeHCH2CH4C2H2NH2CH4CHCH6CH2C2H8CHC3SH3C3HCH5C4H2SH2C2H6CH3CH2CH6CH2CH7CH2CHCH2CH2CH3SH7C3HC2H2CH9CSH5CFeHCHCH4CFeS2FeS2FeSFeS3FeS2FeS2FeSFeS3CHCH2C3H2C6H4C6H6CHC3H3C7H4C6H4C6H4CH2C3HCH4SCHCH4CH2NCHC2HSNC4HC2NHC3H3NH9CH3CH8C2NCH2C2H3C2H12CHCH5CHFeH2CHSH2C4HC2H9CH2C3SH2CH4SH2CHCHCNH4CNH8C3HC2H8SH2C3HCHCH6C2H2CH2CHCH3CH5CH4SHCHCHC3H4C2HC3H5SHCH4CHC2H3CH4CNCH13CNH5CH5FeCHC2HSHNHFeSFeSFe2S2FeSFeS3FeS2FeS2FeSFeHS2H5C4HCHCH2C4HCH4C6H4CHCH4C6H8CSH2NC11H24NC2H2CH2CHCHCHCH2C2H4CHCH10CH2C2H2CH4CH4CHCNH2C2H5SH2CH5C2HSCH6CH4CH3SHCNHCHCH3CH3FeH3CH4C3H2C3H2CH2CHCH4CHCHCH2C2HSC2HC2HCHC2H2CH6SHCHCHC2H3CH3CHFeSNHSH2CHFeS2FeS2FeSFeCS2FeSHFeS2FeSFeS3FeC6H4C6HCH4CHC6H4CH2CH2C2HCH2CH4CH3CHCH4SH4CHNCH2CHSHC2H3SH5C4H2C2H9CHC4H12C2HCHC2H6SC2FeCH5SCH3C3H4SHFeH4CH9NH6SC3H2C3HC2H2NC12H20CH3NH3CHC2H5FeSHFeS2FeSFeS3FeS2FeS2FeHFeHS2HCHCSHFeSHCH3NHCH7CHFeC6H4C3HSCHCH2C6H2CH2C3HC2H4CSHCH3CHCHCH2CH2SH6CHCSNC11H21CH6FeNC6HC4H13C2H4C2H2CHC2H2CHCH2CHC2HCHCH2NH6CH2C2HCH2C2H4NCH3C2H4CH7SHCHCH4C2H4C2H4CH2SHCH2CH2CHNH2CHFeS2FeSHFeSFeSCSFeS2FeS2FeSFeCS2H4FeSHSHC2H3CH5C2H3C2H2CH3C2H3C6H4C6H9CH3CH2CHC4H3CHCH3CHSHCH2CHCSH2C2H4FeHCHCH3CH3CH4CHC2H3CH2CH3C3FeH3CSH4C3HC3H2C2H2CHCH2NH2SH8C2HNH2CH2C3H2CH2CHCHCHCHCH2CH2NHCH2SNC2H2CH3CHC2H10CH2CH2CH3CSH2FeHCSCH5C3FeH2SH2
_chemical_formula_sum              "S288 C1296 Fe144 H2304 N72"
_cell_length_a       56.3229
_cell_length_b       56.1219
_cell_length_c       66.9889
_cell_angle_alpha    90.785
_cell_angle_beta     91.1683
_cell_angle_gamma    117.64

_space_group_name_H-M_alt    "P 1"
_space_group_IT_number       1

loop_
  _space_group_symop_operation_xyz
  'x, y, z'

loop_
  _atom_site_type_symbol
  _atom_site_label
  _atom_site_symmetry_multiplicity
  _atom_site_fract_x
  _atom_site_fract_y
  _atom_site_fract_z
  _atom_site_occupancy
  S   S1        1.0  0.22862  0.22730  0.02982  1.0000
  C   C1        1.0  0.17536  0.00804  0.02699  1.0000
  Fe  Fe1       1.0  0.26905  0.26080  0.02270  1.0000
  S   S2        1.0  0.30019  0.28956  0.04605  1.0000
  Fe  Fe2       1.0  0.10907  0.45681  0.13157  1.0000
  S   S3        1.0  0.07448  0.42860  0.14972  1.0000
  C   C2        1.0  0.12019  0.44038  0.24295  1.0000
  Fe  Fe3       1.0  0.13548  0.41952  0.13268  1.0000
  S   S4        1.0  0.10371  0.38985  0.15188  1.0000
  S   S5        1.0  0.16671  0.40818  0.12168  1.0000
  Fe  Fe4       1.0  0.07518  0.39520  0.13035  1.0000
  S   S6        1.0  0.04021  0.35599  0.11777  1.0000
  Fe  Fe5       1.0  0.10600  0.42542  0.16940  1.0000
  S   S7        1.0  0.11575  0.43989  0.20217  1.0000
  S   S8        1.0  0.10718  0.42389  0.11076  1.0000
  S   S9        1.0  0.14032  0.45456  0.15161  1.0000
  Fe  Fe6       1.0  0.31782  0.40368  0.13600  1.0000
  S   S10       1.0  0.33492  0.44852  0.13216  1.0000
  S   S11       1.0  0.29720  0.37667  0.10799  1.0000
  Fe  Fe7       1.0  0.32379  0.41146  0.18265  1.0000
  S   S12       1.0  0.34134  0.45630  0.18127  1.0000
  S   S13       1.0  0.30816  0.39069  0.21219  1.0000
  Fe  Fe8       1.0  0.30932  0.44772  0.15765  1.0000
  S   S14       1.0  0.28430  0.46945  0.15985  1.0000
  Fe  Fe9       1.0  0.36571  0.45330  0.15608  1.0000
  H   H1        1.0  0.40159  0.32920  0.00634  1.0000
  S   S15       1.0  0.29035  0.40314  0.16023  1.0000
  S   S16       1.0  0.35009  0.40813  0.15870  1.0000
  H   H2        1.0  0.17807  0.45402  0.22184  1.0000
  H   H3        1.0  0.12093  0.00598  0.03044  1.0000
  S   S17       1.0  0.02430  0.30349  0.02946  1.0000
  C   C3        1.0  0.32517  0.39996  0.23584  1.0000
  C   C4        1.0  0.23582  0.13091  0.01472  1.0000
  H   H4        1.0  0.39690  0.29542  0.05516  1.0000
  H   H5        1.0  0.36481  0.42166  0.22443  1.0000
  H   H6        1.0  0.36872  0.30748  0.03369  1.0000
  C   C5        1.0  0.11016  0.42404  0.22558  1.0000
  H   H7        1.0  0.33608  0.26449  0.00187  1.0000
  H   H8        1.0  0.36934  0.08430  0.00762  1.0000
  H   H9        1.0  0.08846  0.38329  0.21418  1.0000
  C   C6        1.0  0.40355  0.30267  0.03991  1.0000
  C   C7        1.0  0.03582  0.34157  0.09314  1.0000
  C   C8        1.0  0.02079  0.31347  0.09016  1.0000
  C   C9        1.0  0.01680  0.30134  0.07086  1.0000
  C   C10       1.0  0.02740  0.31726  0.05419  1.0000
  C   C11       1.0  0.04185  0.34537  0.05715  1.0000
  C   C12       1.0  0.04633  0.35742  0.07645  1.0000
  H   H10       1.0  0.30648  0.32439  0.00797  1.0000
  H   H11       1.0  0.07150  0.27219  0.02663  1.0000
  H   H12       1.0  0.04997  0.35796  0.04440  1.0000
  H   H13       1.0  0.05753  0.37905  0.07839  1.0000
  C   C13       1.0  0.19951  0.42584  0.13196  1.0000
  C   C14       1.0  0.21774  0.41574  0.12879  1.0000
  C   C15       1.0  0.24377  0.42892  0.13735  1.0000
  C   C16       1.0  0.25175  0.45239  0.14902  1.0000
  C   C17       1.0  0.23355  0.46256  0.15211  1.0000
  C   C18       1.0  0.20746  0.44928  0.14364  1.0000
  H   H14       1.0  0.19077  0.04535  0.04515  1.0000
  H   H15       1.0  0.25777  0.42113  0.13467  1.0000
  H   H16       1.0  0.38504  0.47258  0.06785  1.0000
  H   H17       1.0  0.19364  0.45736  0.14595  1.0000
  H   H18       1.0  0.18156  0.41986  0.23550  1.0000
  H   H19       1.0  0.17325  0.21349  0.14092  1.0000
  C   C19       1.0  0.04681  0.45529  0.19048  1.0000
  C   C20       1.0  0.29930  0.31414  0.06287  1.0000
  C   C21       1.0  0.31859  0.32487  0.07865  1.0000
  C   C22       1.0  0.31849  0.34412  0.09249  1.0000
  C   C23       1.0  0.29914  0.35309  0.09068  1.0000
  C   C24       1.0  0.28003  0.34254  0.07477  1.0000
  C   C25       1.0  0.28009  0.32325  0.06097  1.0000
  H   H20       1.0  0.33362  0.31809  0.08029  1.0000
  H   H21       1.0  0.33331  0.35192  0.10460  1.0000
  H   H22       1.0  0.26501  0.34934  0.07313  1.0000
  H   H23       1.0  0.26531  0.31552  0.04882  1.0000
  C   C26       1.0  0.23942  0.08949  0.02096  1.0000
  C   C27       1.0  0.23951  0.11345  0.02794  1.0000
  H   H24       1.0  0.24212  0.07635  0.03140  1.0000
  H   H25       1.0  0.24238  0.11850  0.04375  1.0000
  H   H26       1.0  0.23977  0.48087  0.16094  1.0000
  H   H27       1.0  0.26131  0.30185  0.14792  1.0000
  C   C28       1.0  0.38764  0.30720  0.00507  1.0000
  H   H28       1.0  0.18175  0.04978  0.00698  1.0000
  H   H29       1.0  0.43424  0.47940  0.08986  1.0000
  H   H30       1.0  0.19804  0.20742  0.15415  1.0000
  C   C29       1.0  0.07688  0.47218  0.19487  1.0000
  H   H31       1.0  0.42295  0.43254  0.09964  1.0000
  S   S18       1.0  0.41127  0.47986  0.15420  1.0000
  H   H32       1.0  0.03507  0.46008  0.20149  1.0000
  H   H33       1.0  0.22030  0.42489  0.21918  1.0000
  S   S19       1.0  0.00017  0.22179  0.02325  1.0000
  H   H34       1.0  0.36572  0.27510  0.02642  1.0000
  H   H35       1.0  0.24157  0.31683  0.10917  1.0000
  H   H36       1.0  0.41436  0.29195  0.03397  1.0000
  H   H37       1.0  0.08724  0.46586  0.18377  1.0000
  Fe  Fe10      1.0  0.23862  0.19944  0.01107  1.0000
  H   H38       1.0  0.38647  0.44218  0.08697  1.0000
  C   C30       1.0  0.10472  0.24401  0.00389  1.0000
  C   C31       1.0  0.17003  0.40146  0.22607  1.0000
  H   H39       1.0  0.01226  0.30097  0.10289  1.0000
  H   H40       1.0  0.16380  0.27146  0.07018  1.0000
  C   C32       1.0  0.19007  0.45533  0.20854  1.0000
  C   C33       1.0  0.19620  0.01606  0.06206  1.0000
  S   S20       1.0  0.28269  0.02301  0.01020  1.0000
  C   C34       1.0  0.24745  0.39953  0.20711  1.0000
  H   H41       1.0  0.18888  0.28676  0.05132  1.0000
  H   H42       1.0  0.25952  0.41647  0.19725  1.0000
  C   C35       1.0  0.39653  0.45116  0.10155  1.0000
  H   H43       1.0  0.06993  0.48987  0.13869  1.0000
  H   H44       1.0  0.19959  0.02784  0.07624  1.0000
  Fe  Fe11      1.0  0.21382  0.23749  0.00122  1.0000
  H   H45       1.0  0.30547  0.47401  0.23337  1.0000
  H   H46       1.0  0.14888  0.39815  0.22563  1.0000
  H   H47       1.0  0.40002  0.29781  0.99994  1.0000
  H   H48       1.0  0.28294  0.32598  0.13038  1.0000
  C   C36       1.0  0.35310  0.41464  0.23769  1.0000
  C   C37       1.0  0.21750  0.38962  0.20328  1.0000
  Fe  Fe12      1.0  0.00468  0.26197  0.01325  1.0000
  H   H49       1.0  0.20655  0.37327  0.21373  1.0000
  H   H50       1.0  0.18557  0.99431  0.06542  1.0000
  H   H51       1.0  0.21938  0.25207  0.13953  1.0000
  N   N1        1.0  0.22568  0.25971  0.09557  1.0000
  C   C38       1.0  0.24866  0.28163  0.10748  1.0000
  C   C39       1.0  0.23666  0.24592  0.08177  1.0000
  C   C40       1.0  0.21310  0.27295  0.08259  1.0000
  C   C41       1.0  0.20434  0.23954  0.10858  1.0000
  H   H52       1.0  0.23112  0.23051  0.12849  1.0000
  C   C42       1.0  0.24171  0.30141  0.11937  1.0000
  C   C43       1.0  0.19115  0.25413  0.06717  1.0000
  C   C44       1.0  0.25203  0.23215  0.09164  1.0000
  C   C45       1.0  0.26338  0.22059  0.07585  1.0000
  H   H53       1.0  0.16075  0.25405  0.04677  1.0000
  C   C46       1.0  0.19134  0.47857  0.19620  1.0000
  H   H54       1.0  0.38112  0.45012  0.11200  1.0000
  H   H55       1.0  0.26514  0.29400  0.09743  1.0000
  H   H56       1.0  0.25806  0.27320  0.11800  1.0000
  H   H57       1.0  0.22015  0.22970  0.07275  1.0000
  H   H58       1.0  0.25020  0.26058  0.07090  1.0000
  H   H59       1.0  0.22875  0.28951  0.07408  1.0000
  H   H60       1.0  0.20377  0.28265  0.09198  1.0000
  H   H61       1.0  0.22162  0.29090  0.12595  1.0000
  H   H62       1.0  0.19341  0.21979  0.10041  1.0000
  H   H63       1.0  0.36410  0.33722  0.00321  1.0000
  H   H64       1.0  0.18864  0.24580  0.11170  1.0000
  C   C47       1.0  0.21361  0.23435  0.12935  1.0000
  C   C48       1.0  0.17960  0.02327  0.04732  1.0000
  H   H65       1.0  0.17677  0.23511  0.07399  1.0000
  H   H66       1.0  0.20056  0.24917  0.05448  1.0000
  H   H67       1.0  0.26915  0.24646  0.10121  1.0000
  H   H68       1.0  0.23823  0.21498  0.10054  1.0000
  H   H69       1.0  0.27440  0.21093  0.08326  1.0000
  H   H70       1.0  0.24701  0.20513  0.06624  1.0000
  H   H71       1.0  0.27755  0.23676  0.06631  1.0000
  C   C49       1.0  0.40803  0.43331  0.10986  1.0000
  C   C50       1.0  0.19110  0.21021  0.13913  1.0000
  C   C51       1.0  0.17525  0.26759  0.05842  1.0000
  H   H72       1.0  0.37653  0.48328  0.03222  1.0000
  H   H73       1.0  0.25242  0.38291  0.20391  1.0000
  C   C52       1.0  0.17102  0.37844  0.23794  1.0000
  C   C53       1.0  0.30811  0.45817  0.24140  1.0000
  H   H74       1.0  0.16591  0.36299  0.19792  1.0000
  S   S21       1.0  0.28009  0.23230  0.00611  1.0000
  H   H75       1.0  0.18534  0.19157  0.12998  1.0000
  H   H76       1.0  0.39157  0.41254  0.11151  1.0000
  H   H77       1.0  0.15786  0.04602  0.02517  1.0000
  C   C54       1.0  0.17687  0.42826  0.19640  1.0000
  H   H78       1.0  0.41743  0.32461  0.04103  1.0000
  H   H79       1.0  0.42889  0.48772  0.11439  1.0000
  H   H80       1.0  0.17089  0.47471  0.19137  1.0000
  H   H81       1.0  0.14200  0.07636  0.01125  1.0000
  H   H82       1.0  0.14538  0.27314  0.01219  1.0000
  H   H83       1.0  0.00546  0.27972  0.06891  1.0000
  H   H84       1.0  0.36758  0.48083  0.09696  1.0000
  C   C55       1.0  0.41890  0.48062  0.09941  1.0000
  C   C56       1.0  0.26235  0.31610  0.13622  1.0000
  H   H85       1.0  0.08125  0.46728  0.21006  1.0000
  H   H86       1.0  0.41771  0.44099  0.12482  1.0000
  H   H87       1.0  0.21081  0.46051  0.21358  1.0000
  H   H88       1.0  0.33500  0.07750  0.01020  1.0000
  H   H89       1.0  0.15512  0.42232  0.19434  1.0000
  C   C57       1.0  0.16036  0.03742  0.01077  1.0000
  H   H90       1.0  0.33884  0.30593  0.01180  1.0000
  H   H91       1.0  0.21173  0.39764  0.11973  1.0000
  N   N2        1.0  0.11105  0.33617  0.08041  1.0000
  C   C58       1.0  0.09025  0.30959  0.07144  1.0000
  C   C59       1.0  0.10265  0.34056  0.10096  1.0000
  C   C60       1.0  0.11226  0.35813  0.06702  1.0000
  C   C61       1.0  0.13867  0.33814  0.08138  1.0000
  C   C62       1.0  0.14229  0.31731  0.09418  1.0000
  C   C63       1.0  0.09304  0.30358  0.04921  1.0000
  C   C64       1.0  0.13000  0.38751  0.07471  1.0000
  C   C65       1.0  0.08619  0.31503  0.11331  1.0000
  C   C66       1.0  0.08330  0.32226  0.13484  1.0000
  C   C67       1.0  0.17111  0.32151  0.09341  1.0000
  C   C68       1.0  0.07187  0.27508  0.04305  1.0000
  C   C69       1.0  0.12610  0.40747  0.06149  1.0000
  H   H92       1.0  0.07004  0.30848  0.07250  1.0000
  H   H93       1.0  0.08928  0.29244  0.08003  1.0000
  H   H94       1.0  0.12048  0.35469  0.11018  1.0000
  H   H95       1.0  0.08965  0.35063  0.09980  1.0000
  H   H96       1.0  0.09175  0.35552  0.06410  1.0000
  H   H97       1.0  0.12011  0.35675  0.05218  1.0000
  H   H98       1.0  0.14563  0.33724  0.06609  1.0000
  H   H99       1.0  0.15337  0.35810  0.08784  1.0000
  H   H100      1.0  0.12874  0.29645  0.08884  1.0000
  H   H101      1.0  0.13861  0.31990  0.11006  1.0000
  H   H102      1.0  0.08953  0.31753  0.03941  1.0000
  H   H103      1.0  0.11313  0.30537  0.04641  1.0000
  H   H104      1.0  0.15157  0.39275  0.07461  1.0000
  H   H105      1.0  0.12506  0.39061  0.09008  1.0000
  H   H106      1.0  0.06559  0.30354  0.10669  1.0000
  H   H107      1.0  0.09533  0.30135  0.11371  1.0000
  H   H108      1.0  0.07261  0.30364  0.14343  1.0000
  H   H109      1.0  0.10323  0.33482  0.14207  1.0000
  H   H110      1.0  0.07143  0.33341  0.13528  1.0000
  H   H111      1.0  0.17648  0.31975  0.07779  1.0000
  H   H112      1.0  0.18537  0.34173  0.09970  1.0000
  H   H113      1.0  0.17322  0.30610  0.10242  1.0000
  C   C70       1.0  0.14426  0.23650  0.00083  1.0000
  H   H114      1.0  0.07629  0.25984  0.05031  1.0000
  H   H115      1.0  0.05154  0.27168  0.04719  1.0000
  H   H116      1.0  0.13922  0.42830  0.06723  1.0000
  H   H117      1.0  0.13143  0.40570  0.04587  1.0000
  H   H118      1.0  0.10496  0.40385  0.06173  1.0000
  N   N3        1.0  0.18057  0.40546  0.20517  1.0000
  C   C71       1.0  0.16357  0.38043  0.19268  1.0000
  C   C72       1.0  0.21013  0.41300  0.20534  1.0000
  C   C73       1.0  0.16874  0.38292  0.16999  1.0000
  C   C74       1.0  0.15984  0.35549  0.15973  1.0000
  H   H119      1.0  0.14185  0.37441  0.19440  1.0000
  H   H120      1.0  0.21271  0.38076  0.18791  1.0000
  H   H121      1.0  0.22037  0.42672  0.19287  1.0000
  H   H122      1.0  0.19511  0.01738  0.01970  1.0000
  H   H123      1.0  0.15728  0.39242  0.16304  1.0000
  H   H124      1.0  0.19023  0.39574  0.16701  1.0000
  C   C75       1.0  0.37912  0.29711  0.02653  1.0000
  H   H125      1.0  0.13892  0.34139  0.16349  1.0000
  H   H126      1.0  0.16097  0.35782  0.14327  1.0000
  H   H127      1.0  0.17321  0.34689  0.16449  1.0000
  H   H128      1.0  0.25300  0.40605  0.22295  1.0000
  H   H129      1.0  0.29673  0.43858  0.23327  1.0000
  H   H130      1.0  0.18510  0.43264  0.18117  1.0000
  S   S22       1.0  0.23464  0.16015  0.02467  1.0000
  H   H131      1.0  0.09633  0.25709  0.00804  1.0000
  C   C76       1.0  0.09631  0.39611  0.22741  1.0000
  H   H132      1.0  0.25830  0.33192  0.14314  1.0000
  H   H133      1.0  0.16124  0.35895  0.22958  1.0000
  H   H134      1.0  0.32967  0.46322  0.24135  1.0000
  C   C77       1.0  0.13264  0.25307  0.00622  1.0000
  H   H135      1.0  0.04131  0.43359  0.19145  1.0000
  H   H136      1.0  0.19215  0.38352  0.24166  1.0000
  H   H137      1.0  0.43823  0.44589  0.24691  1.0000
  H   H138      1.0  0.13115  0.46198  0.24168  1.0000
  H   H139      1.0  0.04151  0.45895  0.17516  1.0000
  H   H140      1.0  0.20356  0.48133  0.18281  1.0000
  H   H141      1.0  0.21604  0.02093  0.05584  1.0000
  N   N4        1.0  0.15409  0.00833  0.01307  1.0000
  C   C78       1.0  0.09222  0.38475  0.24652  1.0000
  H   H142      1.0  0.16022  0.01876  0.05412  1.0000
  H   H143      1.0  0.08125  0.36314  0.24783  1.0000
  S   S23       1.0  0.17990  0.24970  0.00354  1.0000
  H   H144      1.0  0.41888  0.49151  0.06152  1.0000
  C   C79       1.0  0.40243  0.49302  0.06943  1.0000
  C   C80       1.0  0.23506  0.08228  0.00063  1.0000
  H   H145      1.0  0.29439  0.14156  0.00023  1.0000
  Fe  Fe13      1.0  0.24185  0.01695  0.00008  1.0000
  H   H146      1.0  0.38863  0.49335  0.11873  1.0000
  C   C81       1.0  0.34935  0.07571  0.99991  1.0000
  C   C82       1.0  0.01785  0.11808  0.48610  1.0000
  H   H147      1.0  0.10448  0.19680  0.46222  1.0000
  H   H148      1.0  0.11539  0.46907  0.46390  1.0000
  H   H149      1.0  0.26434  0.37334  0.29132  1.0000
  H   H150      1.0  0.24540  0.41292  0.30553  1.0000
  C   C83       1.0  0.24370  0.39357  0.27698  1.0000
  H   H151      1.0  0.15775  0.35794  0.26597  1.0000
  Fe  Fe14      1.0  0.24124  0.19732  0.48848  1.0000
  S   S24       1.0  0.24315  0.16011  0.47497  1.0000
  Fe  Fe15      1.0  0.25618  0.25680  0.47953  1.0000
  S   S25       1.0  0.26124  0.28807  0.45579  1.0000
  C   C84       1.0  0.22353  0.46324  0.27584  1.0000
  H   H152      1.0  0.13258  0.33364  0.33428  1.0000
  S   S26       1.0  0.21760  0.21770  0.47619  1.0000
  Fe  Fe16      1.0  0.10485  0.40935  0.31747  1.0000
  S   S27       1.0  0.13259  0.45372  0.31964  1.0000
  S   S28       1.0  0.09594  0.38599  0.28769  1.0000
  Fe  Fe17      1.0  0.09631  0.40361  0.36337  1.0000
  S   S29       1.0  0.12391  0.44809  0.36805  1.0000
  S   S30       1.0  0.08094  0.38373  0.39380  1.0000
  Fe  Fe18      1.0  0.10343  0.45522  0.34143  1.0000
  H   H153      1.0  0.45968  0.43273  0.25677  1.0000
  Fe  Fe19      1.0  0.15070  0.44292  0.34598  1.0000
  S   S31       1.0  0.19554  0.46321  0.35210  1.0000
  S   S32       1.0  0.07396  0.41106  0.33775  1.0000
  S   S33       1.0  0.12487  0.39836  0.34278  1.0000
  Fe  Fe20      1.0  0.35827  0.45453  0.35891  1.0000
  S   S34       1.0  0.37573  0.42626  0.35482  1.0000
  C   C85       1.0  0.08326  0.18671  0.45668  1.0000
  Fe  Fe21      1.0  0.30132  0.40976  0.34893  1.0000
  S   S35       1.0  0.31567  0.37896  0.34337  1.0000
  S   S36       1.0  0.25663  0.39321  0.34309  1.0000
  Fe  Fe22      1.0  0.34022  0.39634  0.37179  1.0000
  S   S37       1.0  0.34585  0.36993  0.39541  1.0000
  Fe  Fe23      1.0  0.34924  0.41169  0.32702  1.0000
  S   S38       1.0  0.36826  0.41239  0.29720  1.0000
  S   S39       1.0  0.32448  0.42595  0.37799  1.0000
  S   S40       1.0  0.33307  0.44092  0.33056  1.0000
  C   C86       1.0  0.21241  0.44363  0.34972  1.0000
  C   C87       1.0  0.19964  0.41786  0.34092  1.0000
  C   C88       1.0  0.21336  0.40250  0.33932  1.0000
  C   C89       1.0  0.24004  0.41291  0.34631  1.0000
  C   C90       1.0  0.25293  0.43874  0.35503  1.0000
  C   C91       1.0  0.23913  0.45408  0.35669  1.0000
  H   H154      1.0  0.17930  0.40985  0.33512  1.0000
  H   H155      1.0  0.20334  0.38258  0.33244  1.0000
  H   H156      1.0  0.27353  0.44692  0.36044  1.0000
  H   H157      1.0  0.24915  0.47407  0.36347  1.0000
  C   C92       1.0  0.28595  0.31192  0.44017  1.0000
  C   C93       1.0  0.27878  0.32802  0.42804  1.0000
  C   C94       1.0  0.29706  0.34640  0.41472  1.0000
  C   C95       1.0  0.32276  0.34871  0.41314  1.0000
  C   C96       1.0  0.33014  0.33295  0.42550  1.0000
  C   C97       1.0  0.31191  0.31472  0.43896  1.0000
  H   H158      1.0  0.25884  0.32618  0.42889  1.0000
  H   H159      1.0  0.29113  0.35851  0.40548  1.0000
  H   H160      1.0  0.35001  0.33464  0.42450  1.0000
  H   H161      1.0  0.31783  0.30259  0.44819  1.0000
  H   H162      1.0  0.02233  0.17934  0.49971  1.0000
  H   H163      1.0  0.27675  0.42147  0.29525  1.0000
  H   H164      1.0  0.04771  0.11922  0.46489  1.0000
  H   H165      1.0  0.10216  0.46715  0.42846  1.0000
  C   C98       1.0  0.04998  0.49064  0.29059  1.0000
  H   H166      1.0  0.25536  0.39734  0.26317  1.0000
  C   C99       1.0  0.02332  0.07830  0.47279  1.0000
  C   C100      1.0  0.06321  0.35161  0.40527  1.0000
  C   C101      1.0  0.05807  0.35086  0.42585  1.0000
  C   C102      1.0  0.04479  0.32618  0.43583  1.0000
  C   C103      1.0  0.03646  0.30165  0.42541  1.0000
  C   C104      1.0  0.04170  0.30241  0.40484  1.0000
  C   C105      1.0  0.05495  0.32710  0.39485  1.0000
  H   H167      1.0  0.06432  0.36956  0.43417  1.0000
  H   H168      1.0  0.03530  0.28368  0.39652  1.0000
  H   H169      1.0  0.05860  0.32709  0.37906  1.0000
  C   C106      1.0  0.04072  0.44428  0.38629  1.0000
  C   C107      1.0  0.23835  0.12827  0.48401  1.0000
  C   C108      1.0  0.24895  0.11371  0.47332  1.0000
  C   C109      1.0  0.24635  0.08883  0.48010  1.0000
  S   S41       1.0  0.00872  0.21472  0.47586  1.0000
  N   N5        1.0  0.25674  0.44401  0.28386  1.0000
  H   H170      1.0  0.28868  0.37929  0.25193  1.0000
  C   C110      1.0  0.35116  0.40923  0.27396  1.0000
  H   H171      1.0  0.03254  0.15066  0.45307  1.0000
  H   H172      1.0  0.05128  0.47835  0.30303  1.0000
  H   H173      1.0  0.31157  0.38800  0.28542  1.0000
  H   H174      1.0  0.18097  0.44004  0.26728  1.0000
  C   C111      1.0  0.10174  0.40115  0.26394  1.0000
  C   C112      1.0  0.11592  0.42906  0.26201  1.0000
  C   C113      1.0  0.44831  0.45427  0.34129  1.0000
  H   H175      1.0  0.12351  0.44193  0.27522  1.0000
  C   C114      1.0  0.36602  0.41894  0.25663  1.0000
  H   H176      1.0  0.99857  0.10202  0.49156  1.0000
  H   H177      1.0  0.06908  0.19138  0.48508  1.0000
  H   H178      1.0  0.27008  0.47058  0.25881  1.0000
  H   H179      1.0  0.23119  0.36377  0.30032  1.0000
  H   H180      1.0  0.04362  0.44879  0.37016  1.0000
  H   H181      1.0  0.08689  0.47534  0.46131  1.0000
  H   H182      1.0  0.23539  0.48104  0.28574  1.0000
  H   H183      1.0  0.99043  0.13116  0.44341  1.0000
  S   S42       1.0  0.08607  0.48488  0.34096  1.0000
  H   H184      1.0  0.25938  0.12179  0.45969  1.0000
  C   C115      1.0  0.06486  0.17469  0.47423  1.0000
  C   C116      1.0  0.31689  0.19544  0.46719  1.0000
  H   H185      1.0  0.14627  0.23864  0.49060  1.0000
  C   C117      1.0  0.43604  0.46416  0.32485  1.0000
  C   C118      1.0  0.23274  0.07785  0.49761  1.0000
  H   H186      1.0  0.47618  0.48785  0.31384  1.0000
  H   H187      1.0  0.29047  0.15933  0.49397  1.0000
  H   H188      1.0  0.31263  0.47562  0.27066  1.0000
  H   H189      1.0  0.28663  0.45068  0.32224  1.0000
  H   H190      1.0  0.11338  0.31101  0.35343  1.0000
  H   H191      1.0  0.33362  0.20786  0.45739  1.0000
  H   H192      1.0  0.34179  0.18557  0.48607  1.0000
  H   H193      1.0  0.43235  0.43619  0.34815  1.0000
  C   C119      1.0  0.22789  0.43869  0.28144  1.0000
  C   C120      1.0  0.07626  0.49132  0.39665  1.0000
  C   C121      1.0  0.24364  0.36913  0.28684  1.0000
  H   H194      1.0  0.30174  0.43982  0.26983  1.0000
  H   H195      1.0  0.45830  0.47002  0.35315  1.0000
  H   H196      1.0  0.30577  0.17488  0.46036  1.0000
  H   H197      1.0  0.22260  0.38796  0.27284  1.0000
  H   H198      1.0  0.30680  0.13103  0.49254  1.0000
  C   C122      1.0  0.45768  0.49007  0.31560  1.0000
  H   H199      1.0  0.39399  0.47937  0.28215  1.0000
  H   H200      1.0  0.03428  0.42248  0.38798  1.0000
  S   S43       1.0  0.27765  0.01378  0.49027  1.0000
  H   H201      1.0  0.03015  0.07056  0.45995  1.0000
  H   H202      1.0  0.12260  0.48477  0.39896  1.0000
  H   H203      1.0  0.46574  0.45793  0.28863  1.0000
  H   H204      1.0  0.22933  0.46893  0.26019  1.0000
  H   H205      1.0  0.07889  0.20192  0.44930  1.0000
  S   S44       1.0  0.02798  0.27431  0.49742  1.0000
  C   C123      1.0  0.30837  0.49363  0.32438  1.0000
  H   H206      1.0  0.01441  0.10424  0.45438  1.0000
  H   H207      1.0  0.42616  0.44734  0.31382  1.0000
  C   C124      1.0  0.32796  0.19435  0.48800  1.0000
  H   H208      1.0  0.34986  0.12971  0.49402  1.0000
  H   H209      1.0  0.08067  0.17070  0.44562  1.0000
  H   H210      1.0  0.25467  0.07804  0.47166  1.0000
  H   H211      1.0  0.21708  0.43042  0.29553  1.0000
  N   N6        1.0  0.27655  0.28572  0.36905  1.0000
  C   C125      1.0  0.28279  0.27589  0.38837  1.0000
  C   C126      1.0  0.30180  0.30856  0.36116  1.0000
  C   C127      1.0  0.25720  0.29663  0.37358  1.0000
  C   C128      1.0  0.26333  0.26341  0.35350  1.0000
  C   C129      1.0  0.27866  0.24754  0.34801  1.0000
  C   C130      1.0  0.25853  0.25410  0.39928  1.0000
  C   C131      1.0  0.24941  0.30948  0.35587  1.0000
  C   C132      1.0  0.32876  0.30795  0.36528  1.0000
  C   C133      1.0  0.35117  0.32876  0.35297  1.0000
  C   C134      1.0  0.26186  0.22396  0.33366  1.0000
  C   C135      1.0  0.26776  0.24198  0.41617  1.0000
  C   C136      1.0  0.23431  0.32445  0.36311  1.0000
  H   H212      1.0  0.29308  0.29316  0.39911  1.0000
  H   H213      1.0  0.29730  0.26796  0.38623  1.0000
  H   H214      1.0  0.29963  0.31038  0.34476  1.0000
  H   H215      1.0  0.30506  0.32823  0.36782  1.0000
  H   H216      1.0  0.26557  0.31190  0.38598  1.0000
  H   H217      1.0  0.23797  0.28054  0.37898  1.0000
  H   H218      1.0  0.24283  0.24884  0.35800  1.0000
  H   H219      1.0  0.26017  0.27163  0.33923  1.0000
  H   H220      1.0  0.28366  0.23909  0.36135  1.0000
  H   H221      1.0  0.29726  0.26076  0.34026  1.0000
  H   H222      1.0  0.24667  0.26314  0.40613  1.0000
  H   H223      1.0  0.24525  0.23736  0.38899  1.0000
  H   H224      1.0  0.23609  0.29364  0.34491  1.0000
  H   H225      1.0  0.26717  0.32413  0.34797  1.0000
  H   H226      1.0  0.33483  0.31286  0.38132  1.0000
  H   H227      1.0  0.32748  0.28807  0.36184  1.0000
  H   H228      1.0  0.37047  0.32892  0.35700  1.0000
  H   H229      1.0  0.34684  0.32385  0.33675  1.0000
  H   H230      1.0  0.35345  0.34925  0.35601  1.0000
  H   H231      1.0  0.27347  0.21319  0.32966  1.0000
  H   H232      1.0  0.24313  0.20950  0.34077  1.0000
  H   H233      1.0  0.25667  0.23123  0.31971  1.0000
  H   H234      1.0  0.27819  0.23094  0.41013  1.0000
  H   H235      1.0  0.28148  0.25793  0.42689  1.0000
  H   H236      1.0  0.25011  0.22766  0.42446  1.0000
  H   H237      1.0  0.24761  0.34181  0.37303  1.0000
  H   H238      1.0  0.22786  0.33235  0.35011  1.0000
  H   H239      1.0  0.21624  0.31083  0.37131  1.0000
  N   N7        1.0  0.14930  0.36877  0.40099  1.0000
  C   C137      1.0  0.15703  0.39722  0.39493  1.0000
  C   C138      1.0  0.13123  0.34957  0.38478  1.0000
  C   C139      1.0  0.13312  0.36354  0.41967  1.0000
  C   C140      1.0  0.17334  0.36420  0.40539  1.0000
  C   C141      1.0  0.19902  0.38084  0.39341  1.0000
  C   C142      1.0  0.17109  0.41910  0.41164  1.0000
  C   C143      1.0  0.11945  0.33407  0.42683  1.0000
  C   C144      1.0  0.22006  0.37130  0.39711  1.0000
  C   C145      1.0  0.18595  0.44719  0.40315  1.0000
  C   C146      1.0  0.11095  0.33250  0.44850  1.0000
  H   H240      1.0  0.13888  0.39889  0.38986  1.0000
  H   H241      1.0  0.16988  0.40289  0.38169  1.0000
  H   H242      1.0  0.12321  0.32836  0.38938  1.0000
  H   H243      1.0  0.11337  0.35293  0.38217  1.0000
  H   H244      1.0  0.11704  0.36965  0.41760  1.0000
  H   H245      1.0  0.14597  0.37625  0.43239  1.0000
  H   H246      1.0  0.17982  0.36872  0.42143  1.0000
  H   H247      1.0  0.16770  0.34250  0.40316  1.0000
  H   H248      1.0  0.20831  0.40245  0.39793  1.0000
  H   H249      1.0  0.19477  0.37949  0.37716  1.0000
  H   H250      1.0  0.15580  0.41918  0.42185  1.0000
  H   H251      1.0  0.18562  0.41521  0.42064  1.0000
  H   H252      1.0  0.13300  0.32478  0.42573  1.0000
  H   H253      1.0  0.10101  0.32184  0.41756  1.0000
  H   H254      1.0  0.15414  0.37091  0.35862  1.0000
  H   H255      1.0  0.21208  0.34988  0.39232  1.0000
  H   H256      1.0  0.23810  0.38351  0.38834  1.0000
  H   H257      1.0  0.22620  0.37366  0.41318  1.0000
  H   H258      1.0  0.19431  0.46245  0.41551  1.0000
  H   H259      1.0  0.20280  0.44872  0.39399  1.0000
  H   H260      1.0  0.17213  0.45170  0.39376  1.0000
  H   H261      1.0  0.09902  0.31109  0.45252  1.0000
  H   H262      1.0  0.12882  0.34206  0.45875  1.0000
  H   H263      1.0  0.09832  0.34270  0.45054  1.0000
  C   C147      1.0  0.12295  0.33231  0.34882  1.0000
  H   H264      1.0  0.10719  0.33877  0.34669  1.0000
  H   H265      1.0  0.18745  0.45142  0.29315  1.0000
  C   C148      1.0  0.32316  0.39576  0.27223  1.0000
  H   H266      1.0  0.42067  0.46849  0.33174  1.0000
  H   H267      1.0  0.33934  0.21536  0.49387  1.0000
  C   C149      1.0  0.02634  0.10615  0.46818  1.0000
  H   H268      1.0  0.42800  0.42386  0.26805  1.0000
  S   S45       1.0  0.28033  0.23594  0.48938  1.0000
  H   H269      1.0  0.21706  0.42315  0.26958  1.0000
  H   H270      1.0  0.00199  0.06396  0.47534  1.0000
  S   S46       1.0  0.01961  0.26960  0.43714  1.0000
  C   C150      1.0  0.31027  0.39084  0.25323  1.0000
  H   H271      1.0  0.06288  0.45476  0.41405  1.0000
  H   H272      1.0  0.03570  0.07934  0.48623  1.0000
  H   H273      1.0  0.07015  0.16014  0.48161  1.0000
  H   H274      1.0  0.15891  0.34259  0.36600  1.0000
  C   C151      1.0  0.27048  0.46683  0.29916  1.0000
  C   C152      1.0  0.14408  0.35033  0.36445  1.0000
  C   C153      1.0  0.03484  0.16145  0.46752  1.0000
  C   C154      1.0  0.06688  0.46074  0.39827  1.0000
  H   H275      1.0  0.30310  0.20450  0.46795  1.0000
  C   C155      1.0  0.25632  0.41854  0.29134  1.0000
  Fe  Fe24      1.0  0.00646  0.25307  0.46878  1.0000
  C   C156      1.0  0.11327  0.48715  0.43593  1.0000
  H   H276      1.0  0.16561  0.39287  0.26720  1.0000
  H   H277      1.0  0.10375  0.24280  0.49014  1.0000
  H   H278      1.0  0.04094  0.32613  0.45158  1.0000
  H   H279      1.0  0.02845  0.48387  0.28689  1.0000
  C   C157      1.0  0.19412  0.45683  0.27759  1.0000
  H   H280      1.0  0.23523  0.35164  0.27618  1.0000
  C   C158      1.0  0.29902  0.45626  0.26294  1.0000
  H   H281      1.0  0.05967  0.48699  0.27745  1.0000
  H   H282      1.0  0.42426  0.48562  0.37617  1.0000
  H   H283      1.0  0.19167  0.47476  0.27371  1.0000
  H   H284      1.0  0.32207  0.09646  0.49566  1.0000
  C   C159      1.0  0.26969  0.45161  0.26386  1.0000
  C   C160      1.0  0.29421  0.46763  0.31178  1.0000
  H   H285      1.0  0.42085  0.45931  0.28460  1.0000
  H   H286      1.0  0.38763  0.42935  0.25776  1.0000
  H   H287      1.0  0.39457  0.47061  0.30780  1.0000
  H   H288      1.0  0.08170  0.45484  0.39244  1.0000
  H   H289      1.0  0.46318  0.44865  0.33499  1.0000
  H   H290      1.0  0.25592  0.46626  0.31047  1.0000
  C   C161      1.0  0.15649  0.37432  0.25765  1.0000
  H   H291      1.0  0.02460  0.44866  0.39170  1.0000
  H   H292      1.0  0.32482  0.49325  0.33360  1.0000
  H   H293      1.0  0.36016  0.48518  0.30062  1.0000
  H   H294      1.0  0.03023  0.17818  0.46378  1.0000
  N   N8        1.0  0.01545  0.14346  0.48259  1.0000
  C   C162      1.0  0.39945  0.48757  0.29771  1.0000
  H   H295      1.0  0.43501  0.48388  0.26631  1.0000
  C   C163      1.0  0.44534  0.44033  0.26082  1.0000
  C   C164      1.0  0.10858  0.48351  0.45832  1.0000
  C   C165      1.0  0.45917  0.46470  0.27510  1.0000
  H   H296      1.0  0.25740  0.43624  0.25221  1.0000
  H   H297      1.0  0.47710  0.47979  0.26757  1.0000
  H   H298      1.0  0.11182  0.49191  0.25528  1.0000
  C   C166      1.0  0.43999  0.47654  0.28038  1.0000
  H   H299      1.0  0.27776  0.48661  0.29184  1.0000
  H   H300      1.0  0.30930  0.46591  0.30244  1.0000
  H   H301      1.0  0.13495  0.36850  0.25482  1.0000
  H   H302      1.0  0.03288  0.12142  0.49834  1.0000
  H   H303      1.0  0.41944  0.24433  0.70851  1.0000
  H   H304      1.0  0.41128  0.37242  0.57335  1.0000
  H   H305      1.0  0.34505  0.12840  0.61835  1.0000
  H   H306      1.0  0.21012  0.23843  0.56006  1.0000
  H   H307      1.0  0.09120  0.27811  0.55838  1.0000
  Fe  Fe25      1.0  0.42025  0.32215  0.68476  1.0000
  S   S47       1.0  0.45109  0.30793  0.68057  1.0000
  S   S48       1.0  0.41652  0.33938  0.71496  1.0000
  Fe  Fe26      1.0  0.40375  0.31420  0.63934  1.0000
  S   S49       1.0  0.43376  0.29945  0.63271  1.0000
  S   S50       1.0  0.38069  0.32299  0.61414  1.0000
  Fe  Fe27      1.0  0.41955  0.27571  0.66061  1.0000
  S   S51       1.0  0.40551  0.23116  0.66468  1.0000
  Fe  Fe28      1.0  0.46243  0.33351  0.65324  1.0000
  C   C167      1.0  0.33366  0.10068  0.56284  1.0000
  S   S52       1.0  0.38774  0.28854  0.66631  1.0000
  S   S53       1.0  0.43330  0.34953  0.65843  1.0000
  Fe  Fe29      1.0  0.40658  0.06450  0.63810  1.0000
  S   S54       1.0  0.44137  0.08761  0.61852  1.0000
  S   S55       1.0  0.36340  0.03841  0.62574  1.0000
  Fe  Fe30      1.0  0.44067  0.09177  0.67692  1.0000
  C   C168      1.0  0.40200  0.19705  0.58336  1.0000
  S   S56       1.0  0.45143  0.10437  0.70980  1.0000
  Fe  Fe31      1.0  0.44863  0.12310  0.63848  1.0000
  S   S57       1.0  0.45794  0.16368  0.62578  1.0000
  Fe  Fe32      1.0  0.46659  0.07917  0.64129  1.0000
  H   H308      1.0  0.41961  0.21458  0.59039  1.0000
  S   S58       1.0  0.41304  0.10062  0.65728  1.0000
  S   S59       1.0  0.43110  0.05328  0.65985  1.0000
  S   S60       1.0  0.23152  0.20230  0.52001  1.0000
  H   H309      1.0  0.23709  0.23126  0.55782  1.0000
  Fe  Fe33      1.0  0.26994  0.24139  0.52091  1.0000
  S   S61       1.0  0.29687  0.24294  0.54781  1.0000
  H   H310      1.0  0.30776  0.27095  0.63386  1.0000
  C   C169      1.0  0.35840  0.30063  0.59523  1.0000
  C   C170      1.0  0.35054  0.27304  0.59488  1.0000
  C   C171      1.0  0.33200  0.25592  0.58009  1.0000
  C   C172      1.0  0.32121  0.26608  0.56534  1.0000
  C   C173      1.0  0.32946  0.29377  0.56543  1.0000
  C   C174      1.0  0.34787  0.31088  0.58033  1.0000
  H   H311      1.0  0.35839  0.26482  0.60622  1.0000
  H   H312      1.0  0.32574  0.23457  0.58025  1.0000
  H   H313      1.0  0.32154  0.30200  0.55415  1.0000
  H   H314      1.0  0.35386  0.33219  0.58039  1.0000
  C   C175      1.0  0.42011  0.21302  0.65305  1.0000
  C   C176      1.0  0.41004  0.18570  0.65726  1.0000
  C   C177      1.0  0.42161  0.17053  0.64906  1.0000
  C   C178      1.0  0.44308  0.18240  0.63625  1.0000
  C   C179      1.0  0.45279  0.20963  0.63164  1.0000
  C   C180      1.0  0.44148  0.22500  0.64015  1.0000
  H   H315      1.0  0.35412  0.15053  0.58743  1.0000
  H   H316      1.0  0.41385  0.14969  0.65266  1.0000
  Fe  Fe34      1.0  0.23865  0.01153  0.50040  1.0000
  H   H317      1.0  0.44936  0.24609  0.63682  1.0000
  C   C181      1.0  0.10232  0.22114  0.53735  1.0000
  C   C182      1.0  0.27945  0.26801  0.61027  1.0000
  H   H318      1.0  0.09028  0.21606  0.55051  1.0000
  H   H319      1.0  0.13205  0.21208  0.55097  1.0000
  C   C183      1.0  0.43418  0.24100  0.71777  1.0000
  H   H320      1.0  0.38354  0.09333  0.59866  1.0000
  H   H321      1.0  0.40650  0.19502  0.56754  1.0000
  H   H322      1.0  0.16902  0.19513  0.56324  1.0000
  H   H323      1.0  0.29091  0.00661  0.57399  1.0000
  H   H324      1.0  0.04161  0.16375  0.50827  1.0000
  C   C184      1.0  0.36741  0.03382  0.58445  1.0000
  C   C185      1.0  0.35086  0.03121  0.60045  1.0000
  C   C186      1.0  0.32319  0.02151  0.59642  1.0000
  C   C187      1.0  0.31218  0.01420  0.57676  1.0000
  H   H325      1.0  0.31014  0.01937  0.60864  1.0000
  H   H326      1.0  0.48328  0.22974  0.68832  1.0000
  C   C188      1.0  0.40817  0.06819  0.73129  1.0000
  C   C189      1.0  0.43381  0.09022  0.73170  1.0000
  H   H327      1.0  0.27284  0.29664  0.58319  1.0000
  H   H328      1.0  0.39844  0.05897  0.71713  1.0000
  C   C190      1.0  0.35229  0.09560  0.62831  1.0000
  C   C191      1.0  0.41093  0.29687  0.73872  1.0000
  C   C192      1.0  0.41355  0.32288  0.73794  1.0000
  C   C193      1.0  0.18339  0.26984  0.60480  1.0000
  H   H329      1.0  0.41094  0.28642  0.72503  1.0000
  H   H330      1.0  0.19652  0.26635  0.57562  1.0000
  H   H331      1.0  0.00469  0.20423  0.56130  1.0000
  C   C194      1.0  0.38894  0.11367  0.59287  1.0000
  H   H332      1.0  0.01848  0.18196  0.53808  1.0000
  H   H333      1.0  0.23494  0.30205  0.57012  1.0000
  H   H334      1.0  0.36922  0.09083  0.62932  1.0000
  H   H335      1.0  0.16318  0.26569  0.59900  1.0000
  H   H336      1.0  0.39340  0.17632  0.66713  1.0000
  H   H337      1.0  0.06691  0.32792  0.51868  1.0000
  H   H338      1.0  0.47762  0.42730  0.62450  1.0000
  H   H339      1.0  0.33390  0.15049  0.53458  1.0000
  C   C195      1.0  0.41557  0.35559  0.54564  1.0000
  C   C196      1.0  0.36068  0.12169  0.61646  1.0000
  H   H340      1.0  0.05027  0.35833  0.61373  1.0000
  H   H341      1.0  0.23509  0.28316  0.60413  1.0000
  C   C197      1.0  0.32862  0.01583  0.56087  1.0000
  H   H342      1.0  0.26905  0.23983  0.58525  1.0000
  H   H343      1.0  0.37905  0.13701  0.62437  1.0000
  C   C198      1.0  0.34043  0.09739  0.58491  1.0000
  H   H344      1.0  0.18128  0.26094  0.61979  1.0000
  H   H345      1.0  0.41365  0.19864  0.71107  1.0000
  H   H346      1.0  0.37467  0.14659  0.56944  1.0000
  H   H347      1.0  0.23343  0.15716  0.55440  1.0000
  C   C199      1.0  0.01415  0.23838  0.58142  1.0000
  H   H348      1.0  0.02568  0.29557  0.53617  1.0000
  H   H349      1.0  0.40470  0.13312  0.56424  1.0000
  C   C200      1.0  0.46509  0.17384  0.73561  1.0000
  H   H350      1.0  0.29940  0.24342  0.61634  1.0000
  H   H351      1.0  0.27559  0.24142  0.63485  1.0000
  H   H352      1.0  0.34031  0.08046  0.65798  1.0000
  C   C201      1.0  0.09372  0.22961  0.52033  1.0000
  H   H353      1.0  0.23502  0.12769  0.54505  1.0000
  C   C202      1.0  0.00142  0.14589  0.51904  1.0000
  H   H354      1.0  0.34088  0.07778  0.58593  1.0000
  H   H355      1.0  0.43121  0.11026  0.55664  1.0000
  H   H356      1.0  0.29644  0.28306  0.60185  1.0000
  C   C203      1.0  0.46937  0.34161  0.59167  1.0000
  H   H357      1.0  0.32236  0.09456  0.59319  1.0000
  H   H358      1.0  0.42613  0.38043  0.60610  1.0000
  N   N9        1.0  0.36568  0.11988  0.59455  1.0000
  C   C204      1.0  0.25878  0.28046  0.57275  1.0000
  S   S62       1.0  0.24861  0.26512  0.51133  1.0000
  H   H359      1.0  0.39360  0.17564  0.61048  1.0000
  C   C205      1.0  0.43567  0.16379  0.70602  1.0000
  H   H360      1.0  0.18994  0.18437  0.54971  1.0000
  H   H361      1.0  0.38864  0.04093  0.58726  1.0000
  C   C206      1.0  0.41053  0.14706  0.71839  1.0000
  H   H362      1.0  0.29393  0.18971  0.50431  1.0000
  H   H363      1.0  0.17287  0.16664  0.57142  1.0000
  C   C207      1.0  0.38602  0.13023  0.70488  1.0000
  H   H364      1.0  0.44178  0.14928  0.69924  1.0000
  H   H365      1.0  0.42925  0.17166  0.69307  1.0000
  C   C208      1.0  0.19571  0.25757  0.59043  1.0000
  H   H366      1.0  0.27981  0.33379  0.55971  1.0000
  H   H367      1.0  0.44754  0.42408  0.65148  1.0000
  H   H368      1.0  0.36927  0.02716  0.55280  1.0000
  H   H369      1.0  0.41410  0.13281  0.72784  1.0000
  H   H370      1.0  0.40581  0.16019  0.72831  1.0000
  C   C209      1.0  0.24517  0.29392  0.56023  1.0000
  C   C210      1.0  0.34517  0.09910  0.64967  1.0000
  H   H371      1.0  0.36238  0.11611  0.65753  1.0000
  C   C211      1.0  0.48197  0.20974  0.68491  1.0000
  H   H372      1.0  0.36865  0.11779  0.71415  1.0000
  H   H373      1.0  0.38073  0.14342  0.69559  1.0000
  H   H374      1.0  0.39003  0.11653  0.69497  1.0000
  C   C212      1.0  0.14235  0.22500  0.52088  1.0000
  H   H375      1.0  0.25569  0.14647  0.56646  1.0000
  H   H376      1.0  0.44786  0.16623  0.74575  1.0000
  H   H377      1.0  0.44461  0.20488  0.73914  1.0000
  C   C213      1.0  0.39907  0.11373  0.57157  1.0000
  C   C214      1.0  0.45330  0.38030  0.57149  1.0000
  H   H378      1.0  0.46203  0.39420  0.63431  1.0000
  H   H379      1.0  0.27148  0.27558  0.56265  1.0000
  C   C215      1.0  0.29117  0.25504  0.62468  1.0000
  C   C216      1.0  0.25815  0.24677  0.59564  1.0000
  H   H380      1.0  0.38445  0.20103  0.58394  1.0000
  C   C217      1.0  0.43883  0.41535  0.63647  1.0000
  C   C218      1.0  0.42390  0.10937  0.57202  1.0000
  H   H381      1.0  0.04154  0.33884  0.52019  1.0000
  N   N10       1.0  0.24054  0.25575  0.58397  1.0000
  H   H382      1.0  0.27081  0.27870  0.61923  1.0000
  C   C219      1.0  0.99436  0.21130  0.57195  1.0000
  H   H383      1.0  0.03086  0.32148  0.55423  1.0000
  C   C220      1.0  0.39666  0.17168  0.59471  1.0000
  H   H384      1.0  0.43494  0.43023  0.62816  1.0000
  H   H385      1.0  0.40620  0.12765  0.60263  1.0000
  C   C221      1.0  0.45839  0.40854  0.62532  1.0000
  H   H386      1.0  0.19605  0.29199  0.60618  1.0000
  C   C222      1.0  0.05319  0.32802  0.59489  1.0000
  C   C223      1.0  0.26600  0.31782  0.54902  1.0000
  H   H387      1.0  0.25572  0.32638  0.53939  1.0000
  C   C224      1.0  0.37171  0.14670  0.58574  1.0000
  H   H388      1.0  0.27797  0.31148  0.53937  1.0000
  C   C225      1.0  0.35632  0.02593  0.56488  1.0000
  H   H389      1.0  0.44025  0.12519  0.58143  1.0000
  C   C226      1.0  0.44821  0.31730  0.57969  1.0000
  H   H390      1.0  0.42586  0.34453  0.53939  1.0000
  S   S63       1.0  0.22855  0.04643  0.50712  1.0000
  H   H391      1.0  0.33479  0.07810  0.62124  1.0000
  H   H392      1.0  0.32746  0.10284  0.64967  1.0000
  C   C227      1.0  0.01293  0.16030  0.53913  1.0000
  C   C228      1.0  0.18340  0.18680  0.56477  1.0000
  H   H393      1.0  0.42136  0.37435  0.53727  1.0000
  N   N11       1.0  0.45910  0.18602  0.71740  1.0000
  H   H394      1.0  0.35093  0.10592  0.55312  1.0000
  H   H395      1.0  0.19987  0.20676  0.59303  1.0000
  H   H396      1.0  0.00278  0.24429  0.59200  1.0000
  C   C229      1.0  0.31027  0.07487  0.55425  1.0000
  H   H397      1.0  0.03532  0.25213  0.55350  1.0000
  C   C230      1.0  0.32861  0.19605  0.53488  1.0000
  N   N12       1.0  0.46278  0.38491  0.59305  1.0000
  H   H398      1.0  0.37303  0.18986  0.73518  1.0000
  S   S64       1.0  0.47705  0.11693  0.65914  1.0000
  H   H399      1.0  0.31623  0.05866  0.55296  1.0000
  H   H400      1.0  0.24568  0.22903  0.60469  1.0000
  H   H401      1.0  0.18164  0.23576  0.58883  1.0000
  H   H402      1.0  0.39358  0.34269  0.54360  1.0000
  H   H403      1.0  0.41535  0.34281  0.57570  1.0000
  H   H404      1.0  0.02977  0.28635  0.60139  1.0000
  H   H405      1.0  0.41896  0.08928  0.57794  1.0000
  H   H406      1.0  0.23046  0.27964  0.54909  1.0000
  H   H407      1.0  0.42830  0.23974  0.73359  1.0000
  C   C231      1.0  0.20744  0.20528  0.57815  1.0000
  H   H408      1.0  0.03103  0.15837  0.54365  1.0000
  H   H409      1.0  0.06409  0.27491  0.59895  1.0000
  N   N13       1.0  0.04852  0.28716  0.57333  1.0000
  N   N14       1.0  0.31290  0.17086  0.52201  1.0000
  C   C232      1.0  0.12614  0.21883  0.53761  1.0000
  H   H410      1.0  0.43627  0.34585  0.60507  1.0000
  C   C233      1.0  0.45789  0.35876  0.60243  1.0000
  H   H411      1.0  0.44043  0.21762  0.69492  1.0000
  H   H412      1.0  0.44278  0.32354  0.56544  1.0000
  S   S65       1.0  0.06279  0.23152  0.52187  1.0000
  C   C234      1.0  0.43452  0.21513  0.71068  1.0000
  H   H413      1.0  0.32760  0.11687  0.56196  1.0000
  H   H414      1.0  0.22052  0.19546  0.58010  1.0000
  H   H415      1.0  0.21969  0.24953  0.61191  1.0000
  H   H416      1.0  0.46939  0.21897  0.62171  1.0000
  C   C235      1.0  0.03568  0.29843  0.58765  1.0000
  H   H417      1.0  0.99771  0.15138  0.55077  1.0000
  H   H418      1.0  0.02938  0.23515  0.59003  1.0000
  H   H419      1.0  0.05965  0.34195  0.58223  1.0000
  H   H420      1.0  0.03123  0.32442  0.62216  1.0000
  H   H421      1.0  0.30440  0.07836  0.53908  1.0000
  H   H422      1.0  0.01651  0.29655  0.58112  1.0000
  C   C236      1.0  0.08328  0.26890  0.57290  1.0000
  C   C237      1.0  0.28753  0.15304  0.53265  1.0000
  C   C238      1.0  0.44715  0.39636  0.60422  1.0000
  H   H423      1.0  0.38346  0.09701  0.56237  1.0000
  H   H424      1.0  0.41495  0.16903  0.59403  1.0000
  C   C239      1.0  0.26924  0.16595  0.53800  1.0000
  C   C240      1.0  0.07085  0.28456  0.58430  1.0000
  S   S66       1.0  0.98918  0.21925  0.52050  1.0000
  C   C241      1.0  0.22368  0.26199  0.59837  1.0000
  H   H425      1.0  0.44526  0.41212  0.59543  1.0000
  C   C242      1.0  0.24701  0.14813  0.55182  1.0000
  H   H426      1.0  0.01934  0.33573  0.60083  1.0000
  H   H427      1.0  0.29253  0.06809  0.56382  1.0000
  Fe  Fe35      1.0  0.21079  0.22572  0.50809  1.0000
  H   H428      1.0  0.07132  0.33022  0.60327  1.0000
  H   H429      1.0  0.29255  0.14565  0.54668  1.0000
  H   H430      1.0  0.27461  0.13479  0.52339  1.0000
  C   C243      1.0  0.22389  0.23345  0.56907  1.0000
  H   H431      1.0  0.46692  0.36287  0.61779  1.0000
  H   H432      1.0  0.41957  0.39688  0.63851  1.0000
  S   S67       1.0  0.17225  0.22110  0.52307  1.0000
  C   C244      1.0  0.45359  0.20881  0.72413  1.0000
  H   H433      1.0  0.21121  0.08403  0.52167  1.0000
  H   H434      1.0  0.25957  0.16865  0.52423  1.0000
  H   H435      1.0  0.28054  0.18578  0.54570  1.0000
  H   H436      1.0  0.46334  0.19742  0.67616  1.0000
  H   H437      1.0  0.45778  0.39974  0.56452  1.0000
  H   H438      1.0  0.06747  0.29564  0.54467  1.0000
  C   C245      1.0  0.04113  0.31341  0.54437  1.0000
  H   H439      1.0  0.45420  0.25861  0.71614  1.0000
  C   C246      1.0  0.42267  0.36208  0.56787  1.0000
  H   H440      1.0  0.46767  0.15601  0.73109  1.0000
  H   H441      1.0  0.07852  0.32414  0.56088  1.0000
  C   C247      1.0  0.10985  0.23602  0.50340  1.0000
  H   H442      1.0  0.12267  0.28962  0.58787  1.0000
  H   H443      1.0  0.46455  0.37210  0.56273  1.0000
  H   H444      1.0  0.01069  0.26236  0.55784  1.0000
  C   C248      1.0  0.10652  0.26876  0.58499  1.0000
  H   H445      1.0  0.07071  0.35390  0.53672  1.0000
  C   C249      1.0  0.06034  0.30541  0.55596  1.0000
  C   C250      1.0  0.05613  0.33485  0.52908  1.0000
  C   C251      1.0  0.22199  0.09234  0.50822  1.0000
  H   H446      1.0  0.32171  0.21131  0.53156  1.0000
  H   H447      1.0  0.09946  0.25871  0.59943  1.0000
  H   H448      1.0  0.48615  0.35328  0.58182  1.0000
  C   C252      1.0  0.02142  0.15933  0.50212  1.0000
  H   H449      1.0  0.32460  0.19166  0.55101  1.0000
  C   C253      1.0  0.03750  0.33709  0.60874  1.0000
  C   C254      1.0  0.02728  0.26017  0.56543  1.0000
  H   H450      1.0  0.08758  0.30486  0.58816  1.0000
  S   S68       1.0  0.31554  0.00338  0.53619  1.0000
  H   H451      1.0  0.47376  0.47609  0.69314  1.0000
  H   H452      1.0  0.06826  0.24761  0.56996  1.0000
  C   C255      1.0  0.33323  0.11631  0.50355  1.0000
  H   H453      1.0  0.21612  0.12791  0.50978  1.0000
  H   H454      1.0  0.11502  0.25754  0.57643  1.0000
  H   H455      1.0  0.42987  0.30609  0.58839  1.0000
  C   C256      1.0  0.13406  0.23370  0.50366  1.0000
  C   C257      1.0  0.30499  0.17783  0.50214  1.0000
  H   H456      1.0  0.47792  0.33359  0.60332  1.0000
  H   H457      1.0  0.47281  0.22775  0.72610  1.0000
  H   H458      1.0  0.29697  0.11307  0.51550  1.0000
  H   H459      1.0  0.36623  0.21413  0.51809  1.0000
  H   H460      1.0  0.36720  0.23397  0.56136  1.0000
  C   C258      1.0  0.31420  0.12826  0.50734  1.0000
  H   H461      1.0  0.45652  0.30333  0.57600  1.0000
  H   H462      1.0  0.48394  0.45023  0.68989  1.0000
  C   C259      1.0  0.48339  0.19609  0.70449  1.0000
  Fe  Fe36      1.0  0.02872  0.23554  0.50487  1.0000
  H   H463      1.0  0.34791  0.16743  0.51248  1.0000
  H   H464      1.0  0.36782  0.19744  0.54039  1.0000
  H   H465      1.0  0.36478  0.25083  0.53917  1.0000
  C   C260      1.0  0.37217  0.23709  0.54533  1.0000
  H   H466      1.0  0.34169  0.11328  0.51781  1.0000
  C   C261      1.0  0.32850  0.15522  0.51960  1.0000
  C   C262      1.0  0.35962  0.21020  0.53368  1.0000
  H   H467      1.0  0.37542  0.04081  0.74895  1.0000
  H   H468      1.0  0.39432  0.24688  0.54421  1.0000
  C   C263      1.0  0.22479  0.11731  0.50153  1.0000
  C   C264      1.0  0.39517  0.05798  0.74934  1.0000
  H   H469      1.0  0.45693  0.40766  0.74891  1.0000
  H   H470      1.0  0.99653  0.12446  0.52051  1.0000
  H   H471      1.0  0.48781  0.17915  0.70061  1.0000
  S   S69       1.0  0.31648  0.00367  0.96710  1.0000
  H   H472      1.0  0.46125  0.28292  0.79865  1.0000
  C   C265      1.0  0.10025  0.31168  0.98417  1.0000
  C   C266      1.0  0.34593  0.27270  0.98760  1.0000
  H   H473      1.0  0.30297  0.05833  0.83885  1.0000
  H   H474      1.0  0.16993  0.08636  0.99478  1.0000
  Fe  Fe37      1.0  0.45790  0.33545  0.85726  1.0000
  S   S70       1.0  0.42206  0.33777  0.84376  1.0000
  H   H475      1.0  0.31135  0.12839  0.94958  1.0000
  Fe  Fe38      1.0  0.42398  0.27649  0.86861  1.0000
  S   S71       1.0  0.38607  0.27434  0.85565  1.0000
  S   S72       1.0  0.42201  0.24053  0.88456  1.0000
  Fe  Fe39      1.0  0.41104  0.29701  0.82973  1.0000
  S   S73       1.0  0.40126  0.27960  0.79779  1.0000
  Fe  Fe40      1.0  0.40008  0.31459  0.87106  1.0000
  S   S74       1.0  0.37328  0.32441  0.89137  1.0000
  S   S75       1.0  0.44778  0.29586  0.84196  1.0000
  S   S76       1.0  0.43712  0.31564  0.88532  1.0000
  Fe  Fe41      1.0  0.44397  0.12458  0.84562  1.0000
  S   S77       1.0  0.39998  0.09901  0.83972  1.0000
  S   S78       1.0  0.46474  0.16896  0.83965  1.0000
  Fe  Fe42      1.0  0.45453  0.07678  0.85090  1.0000
  S   S79       1.0  0.41072  0.04728  0.84569  1.0000
  Fe  Fe43      1.0  0.41179  0.07362  0.82039  1.0000
  S   S80       1.0  0.39101  0.05635  0.79027  1.0000
  Fe  Fe44      1.0  0.40180  0.07459  0.86578  1.0000
  S   S81       1.0  0.36353  0.06033  0.88417  1.0000
  S   S82       1.0  0.45558  0.10092  0.82438  1.0000
  S   S83       1.0  0.44580  0.10247  0.87300  1.0000
  H   H476      1.0  0.37277  0.21597  0.75095  1.0000
  H   H477      1.0  0.37891  0.99547  0.79115  1.0000
  Fe  Fe45      1.0  0.26284  0.24136  0.97840  1.0000
  S   S84       1.0  0.28547  0.24201  0.94997  1.0000
  H   H478      1.0  0.12709  0.29681  0.97477  1.0000
  H   H479      1.0  0.43133  0.14019  0.79741  1.0000
  S   S85       1.0  0.22099  0.20723  0.98279  1.0000
  C   C267      1.0  0.41328  0.33609  0.75587  1.0000
  H   H480      1.0  0.38618  0.17099  0.76369  1.0000
  H   H481      1.0  0.47252  0.17805  0.77752  1.0000
  H   H482      1.0  0.25215  0.03007  0.92972  1.0000
  C   C268      1.0  0.27005  0.06521  0.94992  1.0000
  C   C269      1.0  0.34594  0.10418  0.93967  1.0000
  C   C270      1.0  0.46829  0.26949  0.79143  1.0000
  H   H483      1.0  0.42866  0.32369  0.93841  1.0000
  H   H484      1.0  0.45930  0.35743  0.80194  1.0000
  H   H485      1.0  0.47929  0.39565  0.83324  1.0000
  H   H486      1.0  0.48139  0.25314  0.94315  1.0000
  H   H487      1.0  0.29190  0.01595  0.93223  1.0000
  H   H488      1.0  0.46653  0.44112  0.82008  1.0000
  C   C271      1.0  0.40765  0.06978  0.76784  1.0000
  H   H489      1.0  0.37137  0.13855  0.89552  1.0000
  C   C272      1.0  0.43313  0.09199  0.76814  1.0000
  S   S86       1.0  0.02713  0.26224  0.98553  1.0000
  H   H490      1.0  0.44292  0.10132  0.78221  1.0000
  C   C273      1.0  0.40718  0.29729  0.77512  1.0000
  C   C274      1.0  0.47034  0.24592  0.92859  1.0000
  C   C275      1.0  0.41033  0.32349  0.77440  1.0000
  H   H491      1.0  0.45352  0.38929  0.81565  1.0000
  H   H492      1.0  0.40957  0.33367  0.78801  1.0000
  C   C276      1.0  0.34917  0.30140  0.90783  1.0000
  C   C277      1.0  0.33473  0.31030  0.92018  1.0000
  C   C278      1.0  0.31538  0.29263  0.93330  1.0000
  C   C279      1.0  0.31028  0.26576  0.93433  1.0000
  C   C280      1.0  0.32486  0.25696  0.92209  1.0000
  C   C281      1.0  0.34419  0.27459  0.90900  1.0000
  H   H493      1.0  0.33825  0.33091  0.91936  1.0000
  H   H494      1.0  0.30393  0.29960  0.94220  1.0000
  H   H495      1.0  0.32100  0.23622  0.92259  1.0000
  H   H496      1.0  0.35504  0.26735  0.89965  1.0000
  C   C282      1.0  0.43399  0.22072  0.87208  1.0000
  C   C283      1.0  0.45315  0.23165  0.85743  1.0000
  C   C284      1.0  0.46318  0.21579  0.84810  1.0000
  C   C285      1.0  0.45334  0.18868  0.85285  1.0000
  C   C286      1.0  0.43413  0.17766  0.86749  1.0000
  C   C287      1.0  0.42480  0.19384  0.87733  1.0000
  H   H497      1.0  0.03717  0.23689  0.94778  1.0000
  C   C288      1.0  0.04375  0.22871  0.93511  1.0000
  H   H498      1.0  0.42657  0.15676  0.87129  1.0000
  H   H499      1.0  0.36461  0.11815  0.94811  1.0000
  S   S87       1.0  0.05252  0.20603  0.99164  1.0000
  H   H500      1.0  0.07091  0.27691  0.95483  1.0000
  C   C289      1.0  0.45890  0.03505  0.77614  1.0000
  H   H501      1.0  0.14126  0.99812  0.98199  1.0000
  H   H502      1.0  0.44478  0.38730  0.78220  1.0000
  H   H503      1.0  0.22771  0.09431  0.97167  1.0000
  C   C290      1.0  0.32902  0.01882  0.94375  1.0000
  H   H504      1.0  0.40487  0.26379  0.75755  1.0000
  C   C291      1.0  0.36712  0.03991  0.92144  1.0000
  C   C292      1.0  0.35104  0.04418  0.90723  1.0000
  C   C293      1.0  0.32386  0.03548  0.91135  1.0000
  C   C294      1.0  0.31287  0.02275  0.92939  1.0000
  H   H505      1.0  0.45686  0.43806  0.75847  1.0000
  H   H506      1.0  0.38803  0.04637  0.91856  1.0000
  C   C295      1.0  0.37266  0.12980  0.91002  1.0000
  C   C296      1.0  0.23135  0.09968  0.98741  1.0000
  H   H507      1.0  0.29995  0.06365  0.93118  1.0000
  H   H508      1.0  0.38107  0.33588  0.97007  1.0000
  N   N15       1.0  0.09470  0.25938  0.94233  1.0000
  C   C297      1.0  0.07199  0.23118  0.93942  1.0000
  C   C298      1.0  0.12045  0.25849  0.94802  1.0000
  C   C299      1.0  0.08766  0.27266  0.95940  1.0000
  C   C300      1.0  0.09818  0.27606  0.92410  1.0000
  C   C301      1.0  0.10420  0.26547  0.90442  1.0000
  H   H509      1.0  0.42522  0.40379  0.83405  1.0000
  C   C302      1.0  0.11053  0.29970  0.96792  1.0000
  C   C303      1.0  0.12480  0.23527  0.93884  1.0000
  C   C304      1.0  0.15366  0.24027  0.94245  1.0000
  C   C305      1.0  0.10371  0.28228  0.88680  1.0000
  H   H510      1.0  0.46813  0.32455  0.78327  1.0000
  H   H511      1.0  0.46381  0.22403  0.92678  1.0000
  H   H512      1.0  0.07068  0.21939  0.95295  1.0000
  H   H513      1.0  0.07581  0.22008  0.92716  1.0000
  H   H514      1.0  0.13814  0.27802  0.94482  1.0000
  H   H515      1.0  0.12159  0.25598  0.96440  1.0000
  H   H516      1.0  0.40265  0.29476  0.96607  1.0000
  H   H517      1.0  0.15586  0.22276  0.93671  1.0000
  H   H518      1.0  0.08024  0.27915  0.92144  1.0000
  H   H519      1.0  0.11504  0.29662  0.92663  1.0000
  H   H520      1.0  0.08928  0.24435  0.90090  1.0000
  H   H521      1.0  0.12459  0.26711  0.90541  1.0000
  C   C306      1.0  0.32528  0.04208  0.82214  1.0000
  H   H522      1.0  0.36433  0.01658  0.81983  1.0000
  H   H523      1.0  0.11891  0.31481  0.95615  1.0000
  H   H524      1.0  0.02166  0.18786  0.94581  1.0000
  H   H525      1.0  0.11140  0.21605  0.94601  1.0000
  H   H526      1.0  0.12038  0.23242  0.92258  1.0000
  H   H527      1.0  0.15901  0.24296  0.95867  1.0000
  H   H528      1.0  0.36671  0.08952  0.97157  1.0000
  H   H529      1.0  0.37849  0.11370  0.90707  1.0000
  H   H530      1.0  0.08347  0.28087  0.88467  1.0000
  C   C307      1.0  0.40863  0.32153  0.94206  1.0000
  H   H531      1.0  0.31217  0.29711  0.98028  1.0000
  H   H532      1.0  0.32081  0.05898  0.96247  1.0000
  H   H533      1.0  0.29443  0.09204  0.92800  1.0000
  H   H534      1.0  0.42004  0.32975  0.97314  1.0000
  H   H535      1.0  0.16787  0.25849  0.93463  1.0000
  H   H536      1.0  0.47004  0.36783  0.77678  1.0000
  H   H537      1.0  0.99738  0.38975  0.90071  1.0000
  H   H538      1.0  0.40825  0.34072  0.93881  1.0000
  C   C308      1.0  0.23202  0.12393  0.99433  1.0000
  C   C309      1.0  0.47656  0.36503  0.79192  1.0000
  C   C310      1.0  0.33045  0.02684  0.83948  1.0000
  C   C311      1.0  0.35615  0.02732  0.93955  1.0000
  C   C312      1.0  0.35739  0.25441  0.97936  1.0000
  C   C313      1.0  0.47615  0.06460  0.78221  1.0000
  H   H539      1.0  0.41017  0.18543  0.88882  1.0000
  C   C314      1.0  0.38947  0.19203  0.76516  1.0000
  N   N16       1.0  0.32178  0.09594  0.95261  1.0000
  H   H540      1.0  0.27078  0.05278  0.96237  1.0000
  H   H541      1.0  0.36885  0.02426  0.95046  1.0000
  H   H542      1.0  0.32929  0.26971  0.97707  1.0000
  C   C315      1.0  0.37648  0.31431  0.97025  1.0000
  H   H543      1.0  0.14898  0.04010  0.97960  1.0000
  C   C316      1.0  0.24779  0.04631  0.93535  1.0000
  H   H544      1.0  0.22895  0.13692  0.98395  1.0000
  H   H545      1.0  0.47881  0.27912  0.77765  1.0000
  C   C317      1.0  0.47323  0.40533  0.82117  1.0000
  H   H546      1.0  0.26410  0.08033  0.95541  1.0000
  H   H547      1.0  0.34278  0.05410  0.99637  1.0000
  H   H548      1.0  0.47817  0.22436  0.83685  1.0000
  H   H549      1.0  0.41469  0.13946  0.77373  1.0000
  C   C318      1.0  0.44330  0.41581  0.84370  1.0000
  C   C319      1.0  0.35117  0.09089  0.98078  1.0000
  H   H550      1.0  0.44083  0.43227  0.85119  1.0000
  C   C320      1.0  0.40296  0.31441  0.96399  1.0000
  H   H551      1.0  0.34863  0.08627  0.93549  1.0000
  H   H552      1.0  0.04348  0.23944  0.92140  1.0000
  H   H553      1.0  0.33890  0.07948  0.83956  1.0000
  H   H554      1.0  0.33048  0.10361  0.90915  1.0000
  H   H555      1.0  0.11696  0.33070  0.99027  1.0000
  H   H556      1.0  0.34519  0.21208  0.97363  1.0000
  C   C321      1.0  0.29720  0.07938  0.93952  1.0000
  H   H557      1.0  0.33732  0.32751  0.96989  1.0000
  H   H558      1.0  0.39802  0.11378  0.79165  1.0000
  H   H559      1.0  0.44494  0.40272  0.85539  1.0000
  C   C322      1.0  0.30356  0.14347  0.98541  1.0000
  H   H560      1.0  0.11873  0.30372  0.88927  1.0000
  H   H561      1.0  0.27483  0.00221  0.83423  1.0000
  C   C323      1.0  0.32139  0.06570  0.82999  1.0000
  H   H562      1.0  0.31114  0.03850  0.90045  1.0000
  H   H563      1.0  0.08013  0.25874  0.97211  1.0000
  H   H564      1.0  0.28801  0.10085  0.98174  1.0000
  H   H565      1.0  0.30782  0.07322  0.97979  1.0000
  C   C324      1.0  0.40754  0.28411  0.75720  1.0000
  H   H566      1.0  0.22849  0.03683  0.94320  1.0000
  C   C325      1.0  0.46851  0.42773  0.83129  1.0000
  H   H567      1.0  0.46032  0.25231  0.85332  1.0000
  H   H568      1.0  0.44336  0.41638  0.79180  1.0000
  N   N17       1.0  0.40609  0.20083  0.80259  1.0000
  C   C326      1.0  0.41865  0.18276  0.79815  1.0000
  C   C327      1.0  0.42808  0.22946  0.80482  1.0000
  C   C328      1.0  0.39280  0.19286  0.82252  1.0000
  C   C329      1.0  0.38525  0.19859  0.78702  1.0000
  H   H569      1.0  0.12160  0.02966  0.99660  1.0000
  C   C330      1.0  0.39970  0.15213  0.79948  1.0000
  C   C331      1.0  0.38224  0.21160  0.83163  1.0000
  C   C332      1.0  0.44450  0.24214  0.78612  1.0000
  C   C333      1.0  0.32124  0.12101  0.96070  1.0000
  H   H570      1.0  0.34285  0.05040  0.81234  1.0000
  C   C334      1.0  0.41179  0.13552  0.78992  1.0000
  C   C335      1.0  0.36333  0.19810  0.84869  1.0000
  H   H571      1.0  0.43582  0.18744  0.80882  1.0000
  H   H572      1.0  0.42768  0.18656  0.78325  1.0000
  H   H573      1.0  0.41984  0.24318  0.80930  1.0000
  H   H574      1.0  0.44230  0.23106  0.81709  1.0000
  H   H575      1.0  0.40682  0.19146  0.83385  1.0000
  H   H576      1.0  0.37538  0.17237  0.82132  1.0000
  H   H577      1.0  0.36495  0.18264  0.79085  1.0000
  H   H578      1.0  0.38334  0.21753  0.78703  1.0000
  H   H579      1.0  0.41479  0.35597  0.75533  1.0000
  H   H580      1.0  0.31825  0.02689  0.85224  1.0000
  H   H581      1.0  0.39640  0.14649  0.81542  1.0000
  H   H582      1.0  0.37989  0.14641  0.79215  1.0000
  H   H583      1.0  0.37131  0.21731  0.82026  1.0000
  H   H584      1.0  0.39926  0.23025  0.83797  1.0000
  H   H585      1.0  0.45261  0.22942  0.77935  1.0000
  H   H586      1.0  0.43176  0.24567  0.77491  1.0000
  H   H587      1.0  0.31938  0.07716  0.81725  1.0000
  H   H588      1.0  0.24558  0.05759  0.92256  1.0000
  C   C336      1.0  0.34552  0.11829  0.92000  1.0000
  C   C337      1.0  0.02282  0.19927  0.93211  1.0000
  H   H589      1.0  0.35158  0.03963  0.84474  1.0000
  H   H590      1.0  0.08433  0.31616  0.97799  1.0000
  C   C338      1.0  0.44832  0.41597  0.76017  1.0000
  H   H591      1.0  0.13662  0.07610  0.98462  1.0000
  H   H592      1.0  0.31832  0.22081  0.97120  1.0000
  H   H593      1.0  0.37358  0.19220  0.86049  1.0000
  H   H594      1.0  0.35705  0.21237  0.85549  1.0000
  H   H595      1.0  0.34510  0.18001  0.84308  1.0000
  H   H596      1.0  0.43763  0.03084  0.77428  1.0000
  H   H597      1.0  0.30743  0.02865  0.81279  1.0000
  C   C339      1.0  0.30772  0.11887  0.98107  1.0000
  H   H598      1.0  0.00134  0.42364  0.95552  1.0000
  H   H599      1.0  0.40991  0.20530  0.76023  1.0000
  H   H600      1.0  0.32299  0.16217  0.98566  1.0000
  H   H601      1.0  0.00218  0.35152  0.88622  1.0000
  H   H602      1.0  0.00287  0.19813  0.92907  1.0000
  H   H603      1.0  0.34197  0.13785  0.96277  1.0000
  H   H604      1.0  0.34054  0.13498  0.92283  1.0000
  C   C340      1.0  0.14832  0.07225  0.99655  1.0000
  S   S88       1.0  0.23186  0.05095  0.99103  1.0000
  H   H605      1.0  0.31960  0.00261  0.87624  1.0000
  H   H606      1.0  0.09200  0.29752  0.99660  1.0000
  C   C341      1.0  0.32398  0.07865  0.96890  1.0000
  Fe  Fe46      1.0  0.02125  0.22163  0.99489  1.0000
  H   H607      1.0  0.28976  0.14497  0.97398  1.0000
  H   H608      1.0  0.38844  0.14589  0.91961  1.0000
  H   H609      1.0  0.35801  0.11238  0.98482  1.0000
  H   H610      1.0  0.47638  0.25204  0.89740  1.0000
  H   H611      1.0  0.10863  0.27466  0.87292  1.0000
  H   H612      1.0  0.46542  0.03036  0.76173  1.0000
  H   H613      1.0  0.48268  0.26711  0.80175  1.0000
  H   H614      1.0  0.36245  0.25890  0.96345  1.0000
  H   H615      1.0  0.02777  0.18985  0.91925  1.0000
  H   H616      1.0  0.39344  0.30527  0.93225  1.0000
  H   H617      1.0  0.36114  0.30417  0.95804  1.0000
  H   H618      1.0  0.46016  0.02185  0.78788  1.0000
  H   H619      1.0  0.45211  0.24883  0.92851  1.0000
  H   H620      1.0  0.17628  0.01062  0.98660  1.0000
  H   H621      1.0  0.46790  0.06831  0.79614  1.0000
  S   S89       1.0  0.48397  0.05934  0.85199  1.0000
  H   H622      1.0  0.47400  0.07713  0.77041  1.0000
  H   H623      1.0  0.42632  0.40665  0.75720  1.0000
  C   C342      1.0  0.33671  0.22472  0.98007  1.0000
  C   C343      1.0  0.45395  0.40941  0.78126  1.0000
  C   C344      1.0  0.14333  0.04307  0.99487  1.0000
  H   H624      1.0  0.47768  0.29258  0.91096  1.0000
  H   H625      1.0  0.32054  0.11765  0.99341  1.0000
  C   C345      1.0  0.48452  0.42347  0.78648  1.0000
  H   H626      1.0  0.48567  0.44024  0.84162  1.0000
  C   C346      1.0  0.32854  0.31754  0.98401  1.0000
  S   S90       1.0  0.25455  0.27216  0.99461  1.0000
  H   H627      1.0  0.30009  0.33356  0.98352  1.0000
  C   C347      1.0  0.31588  0.33357  0.99373  1.0000
  N   N18       1.0  0.36524  0.30223  0.99015  1.0000
  H   H628      1.0  0.33634  0.00803  0.80337  1.0000
  H   H629      1.0  0.33121  0.35473  0.99680  1.0000
  H   H630      1.0  0.37538  0.25697  0.98808  1.0000
  H   H631      1.0  0.35803  0.00272  0.85473  1.0000
  C   C348      1.0  0.36977  0.19494  0.75062  1.0000
  H   H632      1.0  0.13588  0.19759  0.98876  1.0000
  C   C349      1.0  0.48507  0.34295  0.78997  1.0000
  C   C350      1.0  0.15622  0.99752  0.99276  1.0000
  H   H633      1.0  0.46612  0.11873  0.75062  1.0000
  H   H634      1.0  0.00116  0.46945  0.87431  1.0000
  H   H635      1.0  0.35726  0.99614  0.89076  1.0000
  H   H636      1.0  0.33118  0.21872  0.99572  1.0000
  Fe  Fe47      1.0  0.27857  0.99439  0.98476  1.0000
  N   N19       1.0  0.32614  0.99882  0.83435  1.0000
  C   C351      1.0  0.34991  0.31618  0.99831  1.0000
  C   C352      1.0  0.34327  0.00102  0.81668  1.0000
  C   C353      1.0  0.08786  0.21824  0.99594  1.0000
  H   H637      1.0  0.34876  0.18117  0.75450  1.0000
  C   C354      1.0  0.09948  0.20166  0.99058  1.0000
  C   C355      1.0  0.12740  0.21063  0.99305  1.0000
  H   H638      1.0  0.08678  0.18167  0.98443  1.0000
  C   C356      1.0  0.44617  0.10199  0.75019  1.0000
  H   H639      1.0  0.98891  0.42500  0.91862  1.0000
  C   C357      1.0  0.48823  0.26083  0.91139  1.0000
  S   S91       1.0  0.06431  0.83025  0.01241  1.0000
  H   H640      1.0  0.38697  0.94382  0.02838  1.0000
  H   H641      1.0  0.09049  0.59266  0.20054  1.0000
  S   S92       1.0  0.00731  0.76353  0.03299  1.0000
  Fe  Fe48      1.0  0.01345  0.72866  0.02210  1.0000
  S   S93       1.0  0.02633  0.70004  0.03784  1.0000
  Fe  Fe49      1.0  0.34096  0.90092  0.17634  1.0000
  S   S94       1.0  0.32887  0.85695  0.17588  1.0000
  S   S95       1.0  0.35885  0.92418  0.20557  1.0000
  Fe  Fe50      1.0  0.32954  0.90106  0.13070  1.0000
  S   S96       1.0  0.31687  0.85665  0.12781  1.0000
  S   S97       1.0  0.33157  0.92058  0.10033  1.0000
  Fe  Fe51      1.0  0.29464  0.85299  0.15592  1.0000
  S   S98       1.0  0.25141  0.82496  0.16269  1.0000
  Fe  Fe52      1.0  0.35273  0.86523  0.14798  1.0000
  S   S99       1.0  0.38044  0.84615  0.14392  1.0000
  S   S100      1.0  0.30521  0.89693  0.15795  1.0000
  S   S101      1.0  0.36680  0.90962  0.14934  1.0000
  Fe  Fe53      1.0  0.11018  0.66904  0.18293  1.0000
  S   S102      1.0  0.13312  0.65109  0.16697  1.0000
  S   S103      1.0  0.12511  0.68096  0.21540  1.0000
  Fe  Fe54      1.0  0.08160  0.67150  0.14295  1.0000
  S   S104      1.0  0.10229  0.65283  0.12509  1.0000
  S   S105      1.0  0.05686  0.69054  0.12925  1.0000
  Fe  Fe55      1.0  0.09410  0.62457  0.15078  1.0000
  S   S106      1.0  0.07485  0.57866  0.15034  1.0000
  Fe  Fe56      1.0  0.13921  0.68107  0.14315  1.0000
  S   S107      1.0  0.17923  0.70608  0.12875  1.0000
  S   S108      1.0  0.07061  0.64138  0.16777  1.0000
  S   S109      1.0  0.11897  0.70076  0.16001  1.0000
  C   C358      1.0  0.43166  0.51530  0.15203  1.0000
  C   C359      1.0  0.45962  0.52556  0.15079  1.0000
  H   H642      1.0  0.28814  0.86172  0.24883  1.0000
  C   C360      1.0  0.41010  0.79937  0.24348  1.0000
  C   C361      1.0  0.43769  0.56074  0.14698  1.0000
  C   C362      1.0  0.42084  0.53320  0.15043  1.0000
  H   H643      1.0  0.11323  0.54284  0.23765  1.0000
  H   H644      1.0  0.27326  0.88489  0.00591  1.0000
  H   H645      1.0  0.42898  0.57423  0.14536  1.0000
  C   C363      1.0  0.43341  0.52825  0.09415  1.0000
  C   C364      1.0  0.27522  0.80195  0.21446  1.0000
  S   S110      1.0  0.22028  0.98214  0.02057  1.0000
  C   C365      1.0  0.04831  0.58579  0.23492  1.0000
  H   H646      1.0  0.06816  0.65278  0.22575  1.0000
  C   C366      1.0  0.08828  0.55725  0.14228  1.0000
  C   C367      1.0  0.07254  0.52925  0.14370  1.0000
  C   C368      1.0  0.08235  0.51137  0.13766  1.0000
  H   H647      1.0  0.12236  0.59870  0.21162  1.0000
  C   C369      1.0  0.12374  0.54934  0.12851  1.0000
  C   C370      1.0  0.11405  0.56725  0.13477  1.0000
  H   H648      1.0  0.05253  0.52133  0.14939  1.0000
  C   C371      1.0  0.11137  0.87864  0.01439  1.0000
  C   C372      1.0  0.09823  0.85239  0.00581  1.0000
  H   H649      1.0  0.12636  0.58873  0.13355  1.0000
  C   C373      1.0  0.34389  0.91148  0.22875  1.0000
  H   H650      1.0  0.22240  0.69170  0.23484  1.0000
  C   C374      1.0  0.31919  0.88829  0.22972  1.0000
  C   C375      1.0  0.10836  0.67070  0.23827  1.0000
  H   H651      1.0  0.30886  0.87764  0.21609  1.0000
  C   C376      1.0  0.47160  0.89154  0.13527  1.0000
  C   C377      1.0  0.45830  0.86348  0.13616  1.0000
  C   C378      1.0  0.43034  0.84984  0.13864  1.0000
  C   C379      1.0  0.41552  0.86411  0.14063  1.0000
  C   C380      1.0  0.42895  0.89218  0.14020  1.0000
  C   C381      1.0  0.45677  0.90579  0.13727  1.0000
  C   C382      1.0  0.12608  0.99279  0.02081  1.0000
  H   H652      1.0  0.42014  0.82809  0.13906  1.0000
  H   H653      1.0  0.41788  0.90332  0.14232  1.0000
  H   H654      1.0  0.19557  0.94891  0.07060  1.0000
  C   C383      1.0  0.23198  0.79269  0.15185  1.0000
  C   C384      1.0  0.20488  0.77901  0.15651  1.0000
  C   C385      1.0  0.18867  0.75258  0.14949  1.0000
  C   C386      1.0  0.19924  0.73966  0.13730  1.0000
  C   C387      1.0  0.22621  0.75372  0.13193  1.0000
  C   C388      1.0  0.24268  0.78014  0.13935  1.0000
  H   H655      1.0  0.19644  0.78890  0.16578  1.0000
  H   H656      1.0  0.16800  0.74240  0.15347  1.0000
  H   H657      1.0  0.23455  0.74393  0.12242  1.0000
  H   H658      1.0  0.26360  0.79062  0.13561  1.0000
  C   C389      1.0  0.03387  0.69732  0.06349  1.0000
  C   C390      1.0  0.03132  0.71321  0.07874  1.0000
  C   C391      1.0  0.03828  0.71073  0.09873  1.0000
  C   C392      1.0  0.04789  0.69239  0.10379  1.0000
  C   C393      1.0  0.05005  0.67624  0.08857  1.0000
  C   C394      1.0  0.04315  0.67875  0.06859  1.0000
  H   H659      1.0  0.02405  0.72747  0.07516  1.0000
  H   H660      1.0  0.03622  0.72315  0.11037  1.0000
  H   H661      1.0  0.05685  0.66164  0.09222  1.0000
  H   H662      1.0  0.04504  0.66620  0.05702  1.0000
  H   H663      1.0  0.43829  0.53265  0.11040  1.0000
  C   C395      1.0  0.23437  0.89916  0.03951  1.0000
  H   H664      1.0  0.42099  0.96466  0.08476  1.0000
  H   H665      1.0  0.21699  0.67961  0.16967  1.0000
  C   C396      1.0  0.28619  0.96317  0.07189  1.0000
  C   C397      1.0  0.38645  0.49806  0.10290  1.0000
  C   C398      1.0  0.31418  0.94074  0.06914  1.0000
  C   C399      1.0  0.31351  0.93673  0.08988  1.0000
  C   C400      1.0  0.29913  0.94612  0.10158  1.0000
  C   C401      1.0  0.28554  0.95919  0.09262  1.0000
  C   C402      1.0  0.23553  0.88525  0.07372  1.0000
  C   C403      1.0  0.30064  0.95385  0.06018  1.0000
  H   H666      1.0  0.00158  0.61136  0.00538  1.0000
  H   H667      1.0  0.38888  0.94440  0.09401  1.0000
  H   H668      1.0  0.08080  0.54819  0.18864  1.0000
  H   H669      1.0  0.35619  0.84458  0.10540  1.0000
  H   H670      1.0  0.42893  0.81927  0.19064  1.0000
  H   H671      1.0  0.29099  0.79554  0.21672  1.0000
  H   H672      1.0  0.47497  0.67264  0.10679  1.0000
  H   H673      1.0  0.33811  0.50082  0.10555  1.0000
  C   C404      1.0  0.43751  0.93556  0.19657  1.0000
  H   H674      1.0  0.16419  0.91861  0.06560  1.0000
  C   C405      1.0  0.24342  0.87573  0.10967  1.0000
  C   C406      1.0  0.19821  0.92051  0.04938  1.0000
  H   H675      1.0  0.16448  0.96433  0.00232  1.0000
  H   H676      1.0  0.23887  0.71596  0.20482  1.0000
  H   H677      1.0  0.37489  0.90802  0.02414  1.0000
  N   N20       1.0  0.11480  0.52158  0.19767  1.0000
  H   H678      1.0  0.37104  0.93536  0.06322  1.0000
  H   H679      1.0  0.07957  0.94252  0.02176  1.0000
  H   H680      1.0  0.08669  0.50864  0.23423  1.0000
  H   H681      1.0  0.35166  0.92097  0.02925  1.0000
  H   H682      1.0  0.37600  0.94314  0.24605  1.0000
  H   H683      1.0  0.43017  0.95020  0.16833  1.0000
  S   S111      1.0  0.26826  0.97941  0.06142  1.0000
  H   H684      1.0  0.14749  0.91703  0.01615  1.0000
  H   H685      1.0  0.46695  0.92752  0.13675  1.0000
  H   H686      1.0  0.39798  0.53926  0.11380  1.0000
  H   H687      1.0  0.24970  0.89742  0.00033  1.0000
  H   H688      1.0  0.12303  0.49763  0.21908  1.0000
  H   H689      1.0  0.22757  0.73836  0.17402  1.0000
  H   H690      1.0  0.19898  0.74953  0.19176  1.0000
  C   C407      1.0  0.45148  0.86281  0.19399  1.0000
  H   H691      1.0  0.48608  0.56649  0.10411  1.0000
  H   H692      1.0  0.25039  0.86131  0.10425  1.0000
  H   H693      1.0  0.08173  0.96266  0.04379  1.0000
  C   C408      1.0  0.38179  0.52325  0.10445  1.0000
  C   C409      1.0  0.20648  0.90546  0.06512  1.0000
  H   H694      1.0  0.13865  0.56454  0.20351  1.0000
  H   H695      1.0  0.23383  0.86881  0.12426  1.0000
  N   N21       1.0  0.40829  0.92165  0.08295  1.0000
  H   H696      1.0  0.20518  0.85790  0.09430  1.0000
  N   N22       1.0  0.14370  0.75071  0.09224  1.0000
  C   C410      1.0  0.12795  0.74412  0.11114  1.0000
  C   C411      1.0  0.14446  0.72572  0.08435  1.0000
  C   C412      1.0  0.17225  0.77106  0.09775  1.0000
  C   C413      1.0  0.13287  0.76250  0.07644  1.0000
  C   C414      1.0  0.10225  0.75328  0.07597  1.0000
  C   C415      1.0  0.13008  0.76878  0.12337  1.0000
  C   C416      1.0  0.19291  0.77746  0.08107  1.0000
  C   C417      1.0  0.11724  0.70056  0.08012  1.0000
  C   C418      1.0  0.12125  0.67650  0.07357  1.0000
  C   C419      1.0  0.09371  0.76370  0.05763  1.0000
  C   C420      1.0  0.10710  0.76082  0.13779  1.0000
  C   C421      1.0  0.21943  0.80207  0.08678  1.0000
  H   H697      1.0  0.13467  0.73268  0.12128  1.0000
  H   H698      1.0  0.10640  0.73031  0.10799  1.0000
  H   H699      1.0  0.15517  0.72972  0.07005  1.0000
  H   H700      1.0  0.15608  0.71978  0.09506  1.0000
  H   H701      1.0  0.17978  0.76413  0.11076  1.0000
  H   H702      1.0  0.17324  0.79052  0.10271  1.0000
  H   H703      1.0  0.14257  0.78484  0.07806  1.0000
  H   H704      1.0  0.13822  0.75845  0.06130  1.0000
  H   H705      1.0  0.09650  0.76106  0.08935  1.0000
  H   H706      1.0  0.09040  0.73119  0.07573  1.0000
  H   H707      1.0  0.14920  0.77794  0.13235  1.0000
  H   H708      1.0  0.12990  0.78438  0.11348  1.0000
  H   H709      1.0  0.18527  0.78142  0.06676  1.0000
  H   H710      1.0  0.19733  0.76029  0.07875  1.0000
  H   H711      1.0  0.10511  0.69465  0.09368  1.0000
  H   H712      1.0  0.10604  0.70420  0.06779  1.0000
  H   H713      1.0  0.10140  0.65856  0.07110  1.0000
  H   H714      1.0  0.13228  0.68066  0.05943  1.0000
  H   H715      1.0  0.13260  0.67181  0.08530  1.0000
  H   H716      1.0  0.09809  0.75579  0.04366  1.0000
  H   H717      1.0  0.07179  0.75689  0.05771  1.0000
  H   H718      1.0  0.10401  0.78602  0.05776  1.0000
  H   H719      1.0  0.10984  0.77868  0.14685  1.0000
  H   H720      1.0  0.08758  0.75283  0.12941  1.0000
  H   H721      1.0  0.10653  0.74522  0.14806  1.0000
  H   H722      1.0  0.22760  0.79909  0.10124  1.0000
  H   H723      1.0  0.23431  0.80539  0.07512  1.0000
  H   H724      1.0  0.21646  0.82021  0.08804  1.0000
  H   H725      1.0  0.25419  0.90475  0.07553  1.0000
  H   H726      1.0  0.27958  0.91743  0.01565  1.0000
  H   H727      1.0  0.43775  0.91728  0.10158  1.0000
  H   H728      1.0  0.46391  0.93403  0.17403  1.0000
  H   H729      1.0  0.24976  0.70900  0.17047  1.0000
  H   H730      1.0  0.32530  0.93373  0.05989  1.0000
  H   H731      1.0  0.29870  0.94358  0.11757  1.0000
  C   C422      1.0  0.35695  0.92514  0.24663  1.0000
  H   H732      1.0  0.14218  0.82419  0.01850  1.0000
  H   H733      1.0  0.27197  0.80982  0.22888  1.0000
  H   H734      1.0  0.17325  0.50887  0.16608  1.0000
  H   H735      1.0  0.45644  0.53034  0.06744  1.0000
  H   H736      1.0  0.24215  0.87005  0.06956  1.0000
  H   H737      1.0  0.03494  0.57361  0.22226  1.0000
  H   H738      1.0  0.05020  0.63692  0.03191  1.0000
  H   H739      1.0  0.11111  0.98627  0.00813  1.0000
  H   H740      1.0  0.17152  0.53305  0.19679  1.0000
  H   H741      1.0  0.39092  0.89535  0.10785  1.0000
  C   C423      1.0  0.12382  0.51781  0.21820  1.0000
  C   C424      1.0  0.21670  0.71713  0.17827  1.0000
  H   H742      1.0  0.41992  0.91557  0.19378  1.0000
  C   C425      1.0  0.10797  0.52133  0.12994  1.0000
  H   H743      1.0  0.11708  0.59592  0.18474  1.0000
  C   C426      1.0  0.37475  0.92001  0.05525  1.0000
  C   C427      1.0  0.38627  0.89682  0.09184  1.0000
  C   C428      1.0  0.40937  0.94619  0.09339  1.0000
  H   H744      1.0  0.46136  0.96431  0.08398  1.0000
  H   H745      1.0  0.18904  0.89413  0.07473  1.0000
  C   C429      1.0  0.08552  0.50258  0.19335  1.0000
  H   H746      1.0  0.12939  0.49507  0.18489  1.0000
  H   H747      1.0  0.46783  0.81531  0.20471  1.0000
  H   H748      1.0  0.46948  0.85226  0.13465  1.0000
  C   C430      1.0  0.19945  0.71482  0.23329  1.0000
  C   C431      1.0  0.46426  0.93593  0.19062  1.0000
  H   H749      1.0  0.25016  0.91996  0.04338  1.0000
  C   C432      1.0  0.12028  0.96771  0.03346  1.0000
  C   C433      1.0  0.40295  0.92315  0.06096  1.0000
  H   H750      1.0  0.12432  0.55591  0.17888  1.0000
  H   H751      1.0  0.39133  0.89528  0.24330  1.0000
  H   H752      1.0  0.40896  0.53304  0.05950  1.0000
  H   H753      1.0  0.23368  0.86251  0.02648  1.0000
  H   H754      1.0  0.22254  0.90173  0.02706  1.0000
  H   H755      1.0  0.08931  0.55097  0.21483  1.0000
  H   H756      1.0  0.41365  0.95566  0.18928  1.0000
  C   C434      1.0  0.46564  0.57093  0.14553  1.0000
  H   H757      1.0  0.20061  0.49751  0.20536  1.0000
  H   H758      1.0  0.05438  0.55208  0.24270  1.0000
  H   H759      1.0  0.39731  0.86474  0.08543  1.0000
  H   H760      1.0  0.46829  0.51199  0.15207  1.0000
  S   S112      1.0  0.25966  0.95770  0.00400  1.0000
  H   H761      1.0  0.17147  0.98724  0.03008  1.0000
  C   C435      1.0  0.17522  0.85578  0.03555  1.0000
  H   H762      1.0  0.37853  0.86973  0.06529  1.0000
  H   H763      1.0  0.38488  0.51765  0.02700  1.0000
  C   C436      1.0  0.48138  0.56255  0.08782  1.0000
  H   H764      1.0  0.44917  0.97644  0.18689  1.0000
  C   C437      1.0  0.45963  0.94498  0.07816  1.0000
  H   H765      1.0  0.18568  0.90729  0.03693  1.0000
  C   C438      1.0  0.43433  0.92044  0.08565  1.0000
  H   H766      1.0  0.20703  0.82472  0.22747  1.0000
  H   H767      1.0  0.16644  0.53157  0.15093  1.0000
  H   H768      1.0  0.19600  0.77059  0.22574  1.0000
  H   H769      1.0  0.12290  0.51476  0.16728  1.0000
  C   C439      1.0  0.42117  0.95208  0.11506  1.0000
  C   C440      1.0  0.22343  0.87764  0.09477  1.0000
  H   H770      1.0  0.22617  0.70392  0.15031  1.0000
  C   C441      1.0  0.39417  0.51154  0.05751  1.0000
  H   H771      1.0  0.43085  0.88348  0.20701  1.0000
  C   C442      1.0  0.47652  0.55316  0.14772  1.0000
  H   H772      1.0  0.16178  0.86425  0.04012  1.0000
  H   H773      1.0  0.44295  0.95823  0.11539  1.0000
  H   H774      1.0  0.14512  0.74278  0.19867  1.0000
  H   H775      1.0  0.16577  0.55640  0.18185  1.0000
  H   H776      1.0  0.39569  0.96891  0.12593  1.0000
  C   C443      1.0  0.23664  0.75615  0.22164  1.0000
  H   H777      1.0  0.18256  0.85115  0.06623  1.0000
  C   C444      1.0  0.35528  0.51663  0.11432  1.0000
  C   C445      1.0  0.44640  0.88766  0.19565  1.0000
  H   H778      1.0  0.17712  0.94444  0.04735  1.0000
  C   C446      1.0  0.10760  0.58813  0.19923  1.0000
  C   C447      1.0  0.09023  0.95060  0.03637  1.0000
  H   H779      1.0  0.21810  0.89298  0.10087  1.0000
  C   C448      1.0  0.13793  0.89705  0.00944  1.0000
  C   C449      1.0  0.38071  0.86956  0.08174  1.0000
  H   H780      1.0  0.21648  0.93653  0.04283  1.0000
  C   C450      1.0  0.18283  0.93391  0.05891  1.0000
  H   H781      1.0  0.03961  0.59814  0.24149  1.0000
  H   H782      1.0  0.23728  0.82159  0.23165  1.0000
  H   H783      1.0  0.36720  0.89819  0.09200  1.0000
  C   C451      1.0  0.35486  0.84651  0.08902  1.0000
  H   H784      1.0  0.23542  0.78670  0.20182  1.0000
  C   C452      1.0  0.22816  0.70142  0.16657  1.0000
  H   H785      1.0  0.10081  0.88480  0.02489  1.0000
  H   H786      1.0  0.39944  0.52575  0.15155  1.0000
  C   C453      1.0  0.15726  0.82607  0.03021  1.0000
  H   H787      1.0  0.35159  0.82727  0.08176  1.0000
  H   H788      1.0  0.14526  0.53240  0.22107  1.0000
  C   C454      1.0  0.10865  0.52143  0.23602  1.0000
  C   C455      1.0  0.09753  0.55775  0.19992  1.0000
  H   H789      1.0  0.41403  0.83414  0.20700  1.0000
  C   C456      1.0  0.39158  0.50462  0.03515  1.0000
  H   H790      1.0  0.17363  0.71843  0.19949  1.0000
  H   H791      1.0  0.18546  0.86553  0.02177  1.0000
  C   C457      1.0  0.16165  0.53514  0.18290  1.0000
  H   H792      1.0  0.16708  0.73886  0.23036  1.0000
  H   H793      1.0  0.25472  0.77086  0.19258  1.0000
  H   H794      1.0  0.19536  0.70921  0.17334  1.0000
  H   H795      1.0  0.43646  0.88760  0.18108  1.0000
  H   H796      1.0  0.12781  0.95455  0.02668  1.0000
  H   H797      1.0  0.33740  0.84993  0.08527  1.0000
  H   H798      1.0  0.17983  0.69717  0.22908  1.0000
  H   H799      1.0  0.26113  0.89567  0.11218  1.0000
  H   H800      1.0  0.38160  0.53188  0.08978  1.0000
  H   H801      1.0  0.35872  0.89980  0.05901  1.0000
  C   C458      1.0  0.16155  0.76058  0.20649  1.0000
  H   H802      1.0  0.40619  0.90802  0.05214  1.0000
  H   H803      1.0  0.35528  0.50959  0.12975  1.0000
  C   C459      1.0  0.24929  0.77848  0.20610  1.0000
  C   C460      1.0  0.19515  0.85909  0.05297  1.0000
  H   H804      1.0  0.41209  0.83693  0.18025  1.0000
  C   C461      1.0  0.21851  0.71357  0.20108  1.0000
  H   H805      1.0  0.22189  0.92188  0.07489  1.0000
  C   C462      1.0  0.48394  0.90323  0.23426  1.0000
  H   H806      1.0  0.46366  0.86173  0.20674  1.0000
  H   H807      1.0  0.43335  0.90259  0.07750  1.0000
  H   H808      1.0  0.46699  0.88270  0.23544  1.0000
  H   H809      1.0  0.41779  0.94289  0.05520  1.0000
  C   C463      1.0  0.42500  0.83674  0.19295  1.0000
  H   H810      1.0  0.07241  0.50673  0.20338  1.0000
  C   C464      1.0  0.43246  0.95577  0.18449  1.0000
  Fe  Fe57      1.0  0.26108  0.98579  0.02853  1.0000
  C   C465      1.0  0.37203  0.92342  0.03287  1.0000
  C   C466      1.0  0.22723  0.83406  0.23492  1.0000
  N   N23       1.0  0.47037  0.91488  0.19990  1.0000
  C   C467      1.0  0.17964  0.75224  0.21858  1.0000
  C   C468      1.0  0.12020  0.55042  0.19488  1.0000
  H   H811      1.0  0.30152  0.95690  0.04425  1.0000
  N   N24       1.0  0.21169  0.73097  0.21498  1.0000
  H   H812      1.0  0.41120  0.50803  0.02931  1.0000
  H   H813      1.0  0.27459  0.96642  0.10187  1.0000
  C   C469      1.0  0.08041  0.65738  0.23931  1.0000
  H   H814      1.0  0.42629  0.97884  0.14036  1.0000
  C   C470      1.0  0.19099  0.73735  0.20520  1.0000
  H   H815      1.0  0.14644  0.81509  0.04349  1.0000
  N   N25       1.0  0.21744  0.88712  0.05745  1.0000
  H   H816      1.0  0.41121  0.93415  0.12423  1.0000
  H   H817      1.0  0.14356  0.55722  0.12248  1.0000
  H   H818      1.0  0.17329  0.77569  0.19536  1.0000
  C   C471      1.0  0.26364  0.89668  0.01201  1.0000
  H   H819      1.0  0.43820  0.94111  0.21262  1.0000
  H   H820      1.0  0.08677  0.93330  0.04590  1.0000
  H   H821      1.0  0.20450  0.69181  0.20311  1.0000
  H   H822      1.0  0.15242  0.76966  0.21662  1.0000
  H   H823      1.0  0.46227  0.86368  0.18008  1.0000
  H   H824      1.0  0.20357  0.84497  0.05015  1.0000
  C   C472      1.0  0.13104  0.51539  0.18265  1.0000
  H   H825      1.0  0.28255  0.81856  0.20366  1.0000
  C   C473      1.0  0.30744  0.87931  0.24834  1.0000
  H   H826      1.0  0.19500  0.72688  0.24447  1.0000
  C   C474      1.0  0.17531  0.52944  0.16534  1.0000
  H   H827      1.0  0.25265  0.75102  0.22659  1.0000
  H   H828      1.0  0.42512  0.80354  0.23177  1.0000
  H   H829      1.0  0.26343  0.88310  0.04160  1.0000
  H   H830      1.0  0.45896  0.94526  0.06159  1.0000
  H   H831      1.0  0.04010  0.60544  0.01831  1.0000
  H   H832      1.0  0.07365  0.63253  0.01637  1.0000
  C   C475      1.0  0.41739  0.97475  0.12497  1.0000
  H   H833      1.0  0.19701  0.54398  0.16580  1.0000
  C   C476      1.0  0.21679  0.70421  0.24470  1.0000
  H   H834      1.0  0.23933  0.85424  0.22859  1.0000
  Fe  Fe58      1.0  0.03186  0.78592  0.00655  1.0000
  H   H835      1.0  0.13007  0.97408  0.04850  1.0000
  H   H836      1.0  0.01410  0.64486  0.01517  1.0000
  H   H837      1.0  0.06832  0.59931  0.22905  1.0000
  H   H838      1.0  0.46784  0.52029  0.08967  1.0000
  H   H839      1.0  0.07984  0.50588  0.17805  1.0000
  H   H840      1.0  0.35246  0.53493  0.11524  1.0000
  H   H841      1.0  0.48029  0.95655  0.19454  1.0000
  C   C477      1.0  0.05226  0.62765  0.01773  1.0000
  H   H842      1.0  0.39110  0.79674  0.23619  1.0000
  C   C478      1.0  0.01388  0.63293  0.00167  1.0000
  C   C479      1.0  0.47485  0.92095  0.22207  1.0000
  C   C480      1.0  0.45974  0.53355  0.08384  1.0000
  N   N26       1.0  0.41013  0.50039  0.09119  1.0000
  H   H843      1.0  0.16933  0.81668  0.02430  1.0000
  H   H844      1.0  0.45615  0.91872  0.22896  1.0000
  S   S113      1.0  0.12113  0.49967  0.12188  1.0000
  C   C481      1.0  0.24848  0.88345  0.03073  1.0000
  H   H845      1.0  0.23263  0.76553  0.23504  1.0000
  H   H846      1.0  0.42817  0.54397  0.08905  1.0000
  H   H847      1.0  0.37418  0.50845  0.06220  1.0000
  S   S114      1.0  0.48569  0.60533  0.13934  1.0000
  H   H848      1.0  0.48460  0.92460  0.07892  1.0000
  C   C482      1.0  0.48510  0.94351  0.08465  1.0000
  H   H849      1.0  0.47472  0.57704  0.08211  1.0000
  H   H850      1.0  0.42739  0.99349  0.11639  1.0000
  H   H851      1.0  0.48731  0.94431  0.10121  1.0000
  H   H852      1.0  0.05669  0.66061  0.99987  1.0000
  C   C483      1.0  0.04335  0.63856  0.99986  1.0000
  S   S115      1.0  0.21341  0.97245  0.48309  1.0000
  H   H853      1.0  0.25294  0.94028  0.40225  1.0000
  H   H854      1.0  0.13968  0.52548  0.25798  1.0000
  H   H855      1.0  0.40120  0.80006  0.28424  1.0000
  H   H856      1.0  0.11361  0.61402  0.30994  1.0000
  H   H857      1.0  0.39262  0.90320  0.26960  1.0000
  Fe  Fe59      1.0  0.32488  0.88623  0.31940  1.0000
  S   S116      1.0  0.34187  0.85747  0.32265  1.0000
  S   S117      1.0  0.30376  0.88232  0.28912  1.0000
  Fe  Fe60      1.0  0.33251  0.90090  0.36493  1.0000
  S   S118      1.0  0.34992  0.87227  0.37041  1.0000
  S   S119      1.0  0.33124  0.92303  0.39401  1.0000
  Fe  Fe61      1.0  0.37366  0.88867  0.34281  1.0000
  S   S120      1.0  0.41772  0.90108  0.33658  1.0000
  Fe  Fe62      1.0  0.31667  0.84361  0.34969  1.0000
  S   S121      1.0  0.29305  0.79865  0.35415  1.0000
  S   S122      1.0  0.35828  0.91905  0.33808  1.0000
  S   S123      1.0  0.29789  0.87079  0.34576  1.0000
  Fe  Fe63      1.0  0.09154  0.65663  0.32872  1.0000
  S   S124      1.0  0.13561  0.66952  0.32936  1.0000
  S   S125      1.0  0.06792  0.64609  0.29901  1.0000
  Fe  Fe64      1.0  0.08927  0.65919  0.37495  1.0000
  S   S126      1.0  0.13342  0.67140  0.37807  1.0000
  S   S127      1.0  0.07005  0.65486  0.40558  1.0000
  Fe  Fe65      1.0  0.13849  0.69945  0.35312  1.0000
  S   S128      1.0  0.16598  0.74452  0.35414  1.0000
  Fe  Fe66      1.0  0.12599  0.63988  0.35408  1.0000
  S   S129      1.0  0.14580  0.61243  0.35395  1.0000
  S   S130      1.0  0.09472  0.68872  0.35088  1.0000
  S   S131      1.0  0.08161  0.62548  0.35253  1.0000
  C   C484      1.0  0.42058  0.82276  0.25873  1.0000
  C   C485      1.0  0.46243  0.51929  0.36950  1.0000
  H   H858      1.0  0.31720  0.51136  0.31465  1.0000
  C   C486      1.0  0.41894  0.51595  0.36031  1.0000
  C   C487      1.0  0.43223  0.54116  0.35137  1.0000
  C   C488      1.0  0.46050  0.55512  0.35119  1.0000
  H   H859      1.0  0.42061  0.54987  0.34451  1.0000
  C   C489      1.0  0.05047  0.85838  0.49270  1.0000
  C   C490      1.0  0.12887  0.57716  0.34929  1.0000
  C   C491      1.0  0.14395  0.56315  0.34722  1.0000
  C   C492      1.0  0.13124  0.53496  0.34429  1.0000
  C   C493      1.0  0.10325  0.52047  0.34358  1.0000
  C   C494      1.0  0.08818  0.53449  0.34560  1.0000
  C   C495      1.0  0.10088  0.56269  0.34830  1.0000
  H   H860      1.0  0.16562  0.57418  0.34802  1.0000
  H   H861      1.0  0.14309  0.52444  0.34280  1.0000
  H   H862      1.0  0.06652  0.52340  0.34545  1.0000
  H   H863      1.0  0.08904  0.57315  0.35016  1.0000
  C   C496      1.0  0.43955  0.88860  0.34592  1.0000
  C   C497      1.0  0.43076  0.86630  0.35821  1.0000
  C   C498      1.0  0.44858  0.85633  0.36429  1.0000
  H   H864      1.0  0.19301  0.75600  0.27358  1.0000
  H   H865      1.0  0.12700  0.92566  0.49186  1.0000
  C   C499      1.0  0.46637  0.90087  0.33997  1.0000
  H   H866      1.0  0.41022  0.85665  0.36295  1.0000
  H   H867      1.0  0.18321  0.81467  0.32556  1.0000
  C   C500      1.0  0.35631  0.79840  0.33188  1.0000
  H   H868      1.0  0.04193  0.52955  0.27483  1.0000
  C   C501      1.0  0.25766  0.78338  0.35345  1.0000
  C   C502      1.0  0.24262  0.75522  0.35357  1.0000
  C   C503      1.0  0.21438  0.74280  0.35351  1.0000
  C   C504      1.0  0.20114  0.75861  0.35365  1.0000
  C   C505      1.0  0.21619  0.78669  0.35357  1.0000
  C   C506      1.0  0.24426  0.79897  0.35317  1.0000
  H   H869      1.0  0.25284  0.74297  0.35381  1.0000
  H   H870      1.0  0.20291  0.72110  0.35365  1.0000
  H   H871      1.0  0.20604  0.79897  0.35394  1.0000
  H   H872      1.0  0.25553  0.82051  0.35277  1.0000
  C   C507      1.0  0.02066  0.69112  0.43632  1.0000
  C   C508      1.0  0.03385  0.67966  0.44749  1.0000
  C   C509      1.0  0.04886  0.66877  0.43782  1.0000
  C   C510      1.0  0.05143  0.66967  0.41691  1.0000
  C   C511      1.0  0.03871  0.68164  0.40578  1.0000
  C   C512      1.0  0.02314  0.69191  0.41541  1.0000
  C   C513      1.0  0.38150  0.50040  0.30271  1.0000
  H   H873      1.0  0.04031  0.68236  0.38971  1.0000
  H   H874      1.0  0.37999  0.80859  0.26941  1.0000
  C   C514      1.0  0.06405  0.52038  0.29702  1.0000
  H   H875      1.0  0.10523  0.71567  0.39623  1.0000
  C   C515      1.0  0.03724  0.78443  0.43230  1.0000
  H   H876      1.0  0.08321  0.74531  0.39825  1.0000
  C   C516      1.0  0.27652  0.94885  0.42965  1.0000
  C   C517      1.0  0.27046  0.94054  0.40940  1.0000
  C   C518      1.0  0.28702  0.93294  0.39818  1.0000
  C   C519      1.0  0.30995  0.93341  0.40706  1.0000
  C   C520      1.0  0.31603  0.94174  0.42731  1.0000
  C   C521      1.0  0.29944  0.94929  0.43855  1.0000
  H   H877      1.0  0.26292  0.89303  0.48311  1.0000
  H   H878      1.0  0.28224  0.92706  0.38259  1.0000
  H   H879      1.0  0.33375  0.94237  0.43439  1.0000
  H   H880      1.0  0.30456  0.95571  0.45403  1.0000
  C   C522      1.0  0.11178  0.66954  0.27470  1.0000
  C   C523      1.0  0.08387  0.65637  0.27582  1.0000
  C   C524      1.0  0.10700  0.74566  0.47288  1.0000
  H   H881      1.0  0.12400  0.67409  0.28819  1.0000
  H   H882      1.0  0.09783  0.90338  0.46223  1.0000
  H   H883      1.0  0.26207  0.81776  0.27154  1.0000
  C   C525      1.0  0.32042  0.89307  0.26622  1.0000
  C   C526      1.0  0.09674  0.86354  0.43959  1.0000
  H   H884      1.0  0.35549  0.92684  0.27889  1.0000
  C   C527      1.0  0.07311  0.58309  0.26642  1.0000
  H   H885      1.0  0.06724  0.73253  0.45981  1.0000
  N   N27       1.0  0.10385  0.51018  0.40521  1.0000
  N   N28       1.0  0.09434  0.76403  0.44106  1.0000
  H   H886      1.0  0.12893  0.55345  0.40751  1.0000
  C   C528      1.0  0.03038  0.56292  0.29937  1.0000
  S   S132      1.0  0.00251  0.76091  0.48027  1.0000
  H   H887      1.0  0.05378  0.74474  0.42854  1.0000
  H   H888      1.0  0.07427  0.80052  0.44956  1.0000
  C   C529      1.0  0.25553  0.84763  0.44403  1.0000
  H   H889      1.0  0.18272  0.66927  0.25658  1.0000
  H   H890      1.0  0.36988  0.84307  0.28210  1.0000
  C   C530      1.0  0.10056  0.74567  0.42792  1.0000
  H   H891      1.0  0.44565  0.56464  0.42739  1.0000
  H   H892      1.0  0.14948  0.78184  0.45175  1.0000
  N   N29       1.0  0.26367  0.84791  0.42266  1.0000
  C   C531      1.0  0.45098  0.66850  0.41975  1.0000
  H   H893      1.0  0.02045  0.76458  0.42753  1.0000
  H   H894      1.0  0.04844  0.76861  0.45752  1.0000
  H   H895      1.0  0.16302  0.73126  0.31179  1.0000
  H   H896      1.0  0.47340  0.91814  0.33048  1.0000
  C   C532      1.0  0.05843  0.78048  0.44434  1.0000
  C   C533      1.0  0.11682  0.73779  0.39450  1.0000
  H   H897      1.0  0.11310  0.73270  0.46402  1.0000
  H   H898      1.0  0.20856  0.75670  0.29771  1.0000
  H   H899      1.0  0.24184  0.78384  0.27881  1.0000
  H   H900      1.0  0.36381  0.87437  0.25860  1.0000
  H   H901      1.0  0.35894  0.81574  0.34158  1.0000
  S   S133      1.0  0.38353  0.50017  0.36202  1.0000
  H   H902      1.0  0.47008  0.66213  0.39446  1.0000
  N   N30       1.0  0.40590  0.84007  0.29030  1.0000
  H   H903      1.0  0.43204  0.66399  0.41142  1.0000
  H   H904      1.0  0.13766  0.74480  0.40032  1.0000
  H   H905      1.0  0.43194  0.52414  0.28850  1.0000
  H   H906      1.0  0.25946  0.88879  0.44665  1.0000
  C   C534      1.0  0.44747  0.62322  0.40942  1.0000
  H   H907      1.0  0.02260  0.55921  0.33129  1.0000
  C   C535      1.0  0.15401  0.52585  0.39830  1.0000
  C   C536      1.0  0.03667  0.88930  0.46085  1.0000
  H   H908      1.0  0.47614  0.91538  0.26354  1.0000
  H   H909      1.0  0.16866  0.77968  0.29221  1.0000
  C   C537      1.0  0.19886  0.85736  0.32661  1.0000
  H   H910      1.0  0.02177  0.86820  0.46348  1.0000
  H   H911      1.0  0.12356  0.84258  0.47605  1.0000
  H   H912      1.0  0.10620  0.56880  0.30441  1.0000
  H   H913      1.0  0.48588  0.86075  0.28347  1.0000
  H   H914      1.0  0.03203  0.67868  0.46354  1.0000
  H   H915      1.0  0.47048  0.57413  0.34382  1.0000
  C   C538      1.0  0.38599  0.88647  0.25832  1.0000
  C   C539      1.0  0.10492  0.50801  0.42767  1.0000
  C   C540      1.0  0.16620  0.73147  0.29549  1.0000
  H   H916      1.0  0.18709  0.80204  0.26190  1.0000
  H   H917      1.0  0.07492  0.49563  0.38060  1.0000
  H   H918      1.0  0.43892  0.63145  0.37080  1.0000
  C   C541      1.0  0.09532  0.73098  0.49213  1.0000
  H   H919      1.0  0.36130  0.78942  0.30149  1.0000
  H   H920      1.0  0.19418  0.53128  0.39331  1.0000
  C   C542      1.0  0.10341  0.75224  0.40540  1.0000
  H   H921      1.0  0.28812  0.88608  0.45619  1.0000
  H   H922      1.0  0.36830  0.78916  0.33836  1.0000
  C   C543      1.0  0.44647  0.61793  0.36456  1.0000
  C   C544      1.0  0.20155  0.68683  0.26208  1.0000
  Fe  Fe67      1.0  0.25272  0.97297  0.47500  1.0000
  C   C545      1.0  0.08638  0.75163  0.46130  1.0000
  H   H923      1.0  0.15821  0.54414  0.38972  1.0000
  H   H924      1.0  0.27070  0.79120  0.30897  1.0000
  H   H925      1.0  0.21424  0.79482  0.26011  1.0000
  H   H926      1.0  0.47402  0.51086  0.37683  1.0000
  H   H927      1.0  0.46338  0.61447  0.33638  1.0000
  C   C546      1.0  0.24993  0.86029  0.41012  1.0000
  C   C547      1.0  0.29354  0.86439  0.42082  1.0000
  C   C548      1.0  0.25564  0.81937  0.41577  1.0000
  C   C549      1.0  0.22514  0.80094  0.41198  1.0000
  C   C550      1.0  0.25514  0.86130  0.38747  1.0000
  C   C551      1.0  0.31113  0.85580  0.43391  1.0000
  C   C552      1.0  0.21921  0.77191  0.40739  1.0000
  C   C553      1.0  0.23565  0.86795  0.37560  1.0000
  C   C554      1.0  0.34087  0.87528  0.43175  1.0000
  H   H928      1.0  0.25667  0.88153  0.41492  1.0000
  H   H929      1.0  0.22793  0.84997  0.41239  1.0000
  H   H930      1.0  0.29978  0.88592  0.42419  1.0000
  H   H931      1.0  0.29940  0.86375  0.40512  1.0000
  H   H932      1.0  0.26602  0.81902  0.40184  1.0000
  H   H933      1.0  0.21762  0.80776  0.39895  1.0000
  H   H934      1.0  0.27577  0.87713  0.38465  1.0000
  H   H935      1.0  0.25306  0.84199  0.38149  1.0000
  H   H936      1.0  0.30789  0.83543  0.42924  1.0000
  H   H937      1.0  0.08235  0.54173  0.42236  1.0000
  H   H938      1.0  0.22410  0.76309  0.42061  1.0000
  C   C555      1.0  0.14813  0.87468  0.49700  1.0000
  H   H939      1.0  0.24139  0.87064  0.35971  1.0000
  H   H940      1.0  0.21490  0.85129  0.37645  1.0000
  H   H941      1.0  0.23630  0.88689  0.38139  1.0000
  H   H942      1.0  0.35322  0.86879  0.44111  1.0000
  H   H943      1.0  0.34670  0.87569  0.41597  1.0000
  H   H944      1.0  0.34529  0.89598  0.43662  1.0000
  H   H945      1.0  0.16417  0.82897  0.46401  1.0000
  H   H946      1.0  0.48435  0.66013  0.41821  1.0000
  C   C556      1.0  0.17312  0.51536  0.39111  1.0000
  H   H947      1.0  0.04662  0.64050  0.25877  1.0000
  H   H948      1.0  0.40591  0.81925  0.31745  1.0000
  C   C557      1.0  0.11761  0.51374  0.25555  1.0000
  H   H949      1.0  0.24556  0.84755  0.26432  1.0000
  H   H950      1.0  0.43814  0.87684  0.30290  1.0000
  C   C558      1.0  0.22508  0.83696  0.25745  1.0000
  H   H951      1.0  0.21761  0.87590  0.32352  1.0000
  H   H952      1.0  0.10679  0.94268  0.49374  1.0000
  H   H953      1.0  0.07396  0.53524  0.26711  1.0000
  C   C559      1.0  0.40904  0.53378  0.41445  1.0000
  C   C560      1.0  0.36479  0.80747  0.31060  1.0000
  H   H954      1.0  0.35118  0.81512  0.30477  1.0000
  H   H955      1.0  0.23543  0.72119  0.25100  1.0000
  H   H956      1.0  0.12485  0.76475  0.47734  1.0000
  H   H957      1.0  0.23285  0.86338  0.47524  1.0000
  H   H958      1.0  0.29034  0.82614  0.30289  1.0000
  H   H959      1.0  0.01295  0.70057  0.40656  1.0000
  C   C561      1.0  0.48411  0.89082  0.34593  1.0000
  C   C562      1.0  0.43818  0.57794  0.39800  1.0000
  H   H960      1.0  0.06946  0.59555  0.30489  1.0000
  H   H961      1.0  0.99698  0.56135  0.31596  1.0000
  C   C563      1.0  0.47510  0.52193  0.28862  1.0000
  H   H962      1.0  0.11440  0.57335  0.27873  1.0000
  H   H963      1.0  0.41983  0.57596  0.38999  1.0000
  H   H964      1.0  0.44517  0.56599  0.38874  1.0000
  H   H965      1.0  0.16878  0.71359  0.29149  1.0000
  C   C564      1.0  0.42867  0.56356  0.41807  1.0000
  H   H966      1.0  0.18939  0.78195  0.31332  1.0000
  C   C565      1.0  0.46523  0.65426  0.40975  1.0000
  H   H967      1.0  0.19659  0.69879  0.27300  1.0000
  H   H968      1.0  0.46324  0.50608  0.32735  1.0000
  H   H969      1.0  0.07695  0.71171  0.48879  1.0000
  H   H970      1.0  0.05363  0.52257  0.31022  1.0000
  H   H971      1.0  0.42761  0.61844  0.40241  1.0000
  H   H972      1.0  0.11657  0.62137  0.28380  1.0000
  S   S134      1.0  0.25463  0.95816  0.44297  1.0000
  H   H973      1.0  0.07166  0.60153  0.27096  1.0000
  H   H974      1.0  0.18465  0.82846  0.29049  1.0000
  H   H975      1.0  0.07155  0.92215  0.47399  1.0000
  H   H976      1.0  0.07531  0.77534  0.41714  1.0000
  C   C566      1.0  0.45231  0.84707  0.30353  1.0000
  H   H977      1.0  0.44569  0.82594  0.29860  1.0000
  C   C567      1.0  0.07710  0.86010  0.45607  1.0000
  H   H978      1.0  0.05847  0.65946  0.44659  1.0000
  C   C568      1.0  0.06324  0.53833  0.27988  1.0000
  C   C569      1.0  0.25398  0.80468  0.28458  1.0000
  H   H979      1.0  0.07336  0.84154  0.46409  1.0000
  C   C570      1.0  0.42956  0.50856  0.29955  1.0000
  C   C571      1.0  0.12393  0.67685  0.25608  1.0000
  H   H980      1.0  0.04587  0.90619  0.49111  1.0000
  H   H981      1.0  0.08823  0.84540  0.42956  1.0000
  H   H982      1.0  0.44158  0.83904  0.37374  1.0000
  H   H983      1.0  0.01981  0.54084  0.29664  1.0000
  H   H984      1.0  0.09192  0.59064  0.25787  1.0000
  C   C572      1.0  0.48346  0.61038  0.41174  1.0000
  C   C573      1.0  0.39475  0.82905  0.31044  1.0000
  H   H985      1.0  0.06999  0.53705  0.39676  1.0000
  H   H986      1.0  0.44321  0.61742  0.42527  1.0000
  H   H987      1.0  0.21353  0.80086  0.42516  1.0000
  H   H988      1.0  0.15038  0.79201  0.42654  1.0000
  H   H989      1.0  0.41819  0.57270  0.42669  1.0000
  H   H990      1.0  0.06512  0.56566  0.31604  1.0000
  C   C574      1.0  0.46806  0.61664  0.37868  1.0000
  H   H991      1.0  0.11936  0.52767  0.43477  1.0000
  C   C575      1.0  0.01894  0.56903  0.31813  1.0000
  H   H992      1.0  0.02905  0.79514  0.44174  1.0000
  H   H993      1.0  0.26195  0.83521  0.45330  1.0000
  H   H994      1.0  0.47092  0.52745  0.27348  1.0000
  C   C576      1.0  0.40071  0.81697  0.27602  1.0000
  H   H995      1.0  0.26264  0.80929  0.42692  1.0000
  H   H996      1.0  0.40655  0.78040  0.25081  1.0000
  H   H997      1.0  0.12025  0.50258  0.37839  1.0000
  H   H998      1.0  0.19760  0.75954  0.40329  1.0000
  C   C577      1.0  0.23772  0.81483  0.29751  1.0000
  H   H999      1.0  0.39752  0.84579  0.32093  1.0000
  H   H1000     1.0  0.11901  0.74501  0.43319  1.0000
  C   C578      1.0  0.11720  0.79233  0.44311  1.0000
  H   H1001     1.0  0.47288  0.55543  0.30510  1.0000
  C   C579      1.0  0.10954  0.53857  0.40038  1.0000
  H   H1002     1.0  0.19520  0.85707  0.34284  1.0000
  C   C580      1.0  0.48208  0.86347  0.29932  1.0000
  H   H1003     1.0  0.02594  0.57309  0.28684  1.0000
  C   C581      1.0  0.34542  0.91587  0.26529  1.0000
  H   H1004     1.0  0.14553  0.68728  0.25551  1.0000
  S   S135      1.0  0.00083  0.70467  0.44755  1.0000
  C   C582      1.0  0.18899  0.78246  0.29672  1.0000
  H   H1005     1.0  0.47878  0.60745  0.42786  1.0000
  C   C583      1.0  0.20379  0.83080  0.29748  1.0000
  C   C584      1.0  0.06826  0.65046  0.25804  1.0000
  H   H1006     1.0  0.47566  0.64874  0.34583  1.0000
  C   C585      1.0  0.47575  0.54456  0.36073  1.0000
  H   H1007     1.0  0.43300  0.51874  0.31447  1.0000
  H   H1008     1.0  0.42923  0.59767  0.36196  1.0000
  H   H1009     1.0  0.29026  0.80020  0.28674  1.0000
  H   H1010     1.0  0.18729  0.82674  0.44684  1.0000
  H   H1011     1.0  0.16474  0.83934  0.43846  1.0000
  N   N31       1.0  0.45927  0.60703  0.39947  1.0000
  C   C586      1.0  0.09857  0.57745  0.40489  1.0000
  C   C587      1.0  0.08881  0.88461  0.47096  1.0000
  H   H1012     1.0  0.11563  0.80528  0.43122  1.0000
  C   C588      1.0  0.45779  0.62863  0.34419  1.0000
  H   H1013     1.0  0.03844  0.84561  0.47979  1.0000
  H   H1014     1.0  0.23616  0.80647  0.31267  1.0000
  H   H1015     1.0  0.08446  0.72454  0.42894  1.0000
  H   H1016     1.0  0.11760  0.74207  0.37832  1.0000
  C   C589      1.0  0.25510  0.87276  0.47584  1.0000
  C   C590      1.0  0.10393  0.57854  0.29066  1.0000
  C   C591      1.0  0.16678  0.82451  0.44822  1.0000
  H   H1017     1.0  0.30665  0.85565  0.44995  1.0000
  H   H1018     1.0  0.47497  0.60340  0.37107  1.0000
  H   H1019     1.0  0.23334  0.83756  0.44479  1.0000
  H   H1020     1.0  0.04606  0.79655  0.41893  1.0000
  H   H1021     1.0  0.44238  0.63066  0.33481  1.0000
  C   C592      1.0  0.11984  0.60925  0.29543  1.0000
  H   H1022     1.0  0.11210  0.54173  0.38407  1.0000
  H   H1023     1.0  0.11571  0.80192  0.45738  1.0000
  H   H1024     1.0  0.11526  0.77417  0.40316  1.0000
  C   C593      1.0  0.05029  0.56725  0.25063  1.0000
  H   H1025     1.0  0.08258  0.58288  0.40878  1.0000
  C   C594      1.0  0.39190  0.85592  0.28322  1.0000
  C   C595      1.0  0.07028  0.76535  0.43180  1.0000
  C   C596      1.0  0.08816  0.54710  0.40669  1.0000
  H   H1026     1.0  0.16942  0.50974  0.37494  1.0000
  S   S136      1.0  0.07597  0.80586  0.49591  1.0000
  C   C597      1.0  0.26590  0.87559  0.45477  1.0000
  H   H1027     1.0  0.00748  0.89590  0.44336  1.0000
  C   C598      1.0  0.27775  0.80559  0.29656  1.0000
  C   C599      1.0  0.14615  0.79583  0.44204  1.0000
  H   H1028     1.0  0.10456  0.58376  0.38937  1.0000
  H   H1029     1.0  0.08220  0.76494  0.47150  1.0000
  H   H1030     1.0  0.00873  0.90422  0.46955  1.0000
  C   C600      1.0  0.47527  0.86833  0.35801  1.0000
  H   H1031     1.0  0.11613  0.86615  0.44611  1.0000
  H   H1032     1.0  0.46412  0.69061  0.41983  1.0000
  H   H1033     1.0  0.21417  0.67922  0.26990  1.0000
  H   H1034     1.0  0.21962  0.85105  0.29334  1.0000
  H   H1035     1.0  0.39525  0.87220  0.29444  1.0000
  H   H1036     1.0  0.11612  0.58875  0.41520  1.0000
  H   H1037     1.0  0.25090  0.83689  0.29978  1.0000
  H   H1038     1.0  0.16066  0.64016  0.30153  1.0000
  H   H1039     1.0  0.15761  0.61544  0.28279  1.0000
  H   H1040     1.0  0.08516  0.50360  0.43392  1.0000
  H   H1041     1.0  0.15856  0.53180  0.41434  1.0000
  H   H1042     1.0  0.18174  0.85786  0.31844  1.0000
  H   H1043     1.0  0.21935  0.83325  0.32834  1.0000
  H   H1044     1.0  0.03044  0.55666  0.25750  1.0000
  C   C601      1.0  0.20142  0.83234  0.32044  1.0000
  H   H1045     1.0  0.33478  0.78329  0.33174  1.0000
  H   H1046     1.0  0.38540  0.51737  0.29271  1.0000
  H   H1047     1.0  0.23109  0.77103  0.39463  1.0000
  H   H1048     1.0  0.44479  0.86799  0.27921  1.0000
  H   H1049     1.0  0.44024  0.82543  0.26461  1.0000
  C   C602      1.0  0.06097  0.57352  0.30197  1.0000
  H   H1050     1.0  0.45010  0.84708  0.31994  1.0000
  H   H1051     1.0  0.15430  0.60708  0.30899  1.0000
  H   H1052     1.0  0.39229  0.85295  0.25059  1.0000
  H   H1053     1.0  0.16345  0.88547  0.48637  1.0000
  H   H1054     1.0  0.41901  0.52337  0.40666  1.0000
  N   N32       1.0  0.21022  0.80914  0.28956  1.0000
  H   H1055     1.0  0.26163  0.86041  0.48503  1.0000
  H   H1056     1.0  0.21528  0.84998  0.25968  1.0000
  C   C603      1.0  0.39950  0.86886  0.26252  1.0000
  C   C604      1.0  0.12430  0.50450  0.39482  1.0000
  Fe  Fe68      1.0  0.99931  0.71928  0.47951  1.0000
  H   H1057     1.0  0.42138  0.88181  0.26144  1.0000
  C   C605      1.0  0.19111  0.75705  0.28994  1.0000
  C   C606      1.0  0.02110  0.90498  0.45662  1.0000
  H   H1058     1.0  0.02825  0.59111  0.32114  1.0000
  N   N33       1.0  0.07470  0.56809  0.28470  1.0000
  C   C607      1.0  0.14994  0.61843  0.29725  1.0000
  C   C608      1.0  0.20835  0.80924  0.26702  1.0000
  H   H1059     1.0  0.14810  0.72987  0.28736  1.0000
  H   H1060     1.0  0.39139  0.53132  0.40521  1.0000
  C   C609      1.0  0.43538  0.85917  0.29345  1.0000
  H   H1061     1.0  0.40187  0.52393  0.42893  1.0000
  C   C610      1.0  0.43421  0.50489  0.36908  1.0000
  H   H1062     1.0  0.05793  0.85680  0.44889  1.0000
  H   H1063     1.0  0.12003  0.50299  0.46662  1.0000
  N   N34       1.0  0.07032  0.88623  0.48643  1.0000
  H   H1064     1.0  0.10040  0.88131  0.43055  1.0000
  H   H1065     1.0  0.10610  0.88353  0.47842  1.0000
  H   H1066     1.0  0.17051  0.49752  0.39965  1.0000
  H   H1067     1.0  0.44645  0.66214  0.43545  1.0000
  C   C611      1.0  0.05654  0.90197  0.47884  1.0000
  H   H1068     1.0  0.48601  0.63676  0.37923  1.0000
  H   H1069     1.0  0.38498  0.50784  0.31847  1.0000
  C   C612      1.0  0.48759  0.54797  0.30204  1.0000
  H   H1070     1.0  0.03503  0.92632  0.45349  1.0000
  C   C613      1.0  0.12545  0.85019  0.49121  1.0000
  H   H1071     1.0  0.10784  0.51799  0.26835  1.0000
  H   H1072     1.0  0.08496  0.52539  0.30143  1.0000
  N   N35       1.0  0.45011  0.49868  0.29626  1.0000
  H   H1073     1.0  0.48122  0.57030  0.40601  1.0000
  H   H1074     1.0  0.04786  0.89009  0.44723  1.0000
  H   H1075     1.0  0.06149  0.84788  0.49882  1.0000
  H   H1076     1.0  0.42444  0.84119  0.25068  1.0000
  H   H1077     1.0  0.29408  0.49570  0.33459  1.0000
  H   H1078     1.0  0.99970  0.81602  0.49978  1.0000
  H   H1079     1.0  0.13495  0.49409  0.43371  1.0000
  H   H1080     1.0  0.06063  0.49480  0.40410  1.0000
  H   H1081     1.0  0.30904  0.96325  0.56736  1.0000
  C   C614      1.0  0.22978  0.87877  0.53562  1.0000
  C   C615      1.0  0.23223  0.96741  0.58647  1.0000
  H   H1082     1.0  0.21355  0.93618  0.56417  1.0000
  H   H1083     1.0  0.28294  0.90686  0.54761  1.0000
  N   N36       1.0  0.25493  0.91753  0.56224  1.0000
  C   C616      1.0  0.01129  0.82753  0.51333  1.0000
  C   C617      1.0  0.22834  0.94098  0.57675  1.0000
  H   H1084     1.0  0.26141  0.95811  0.55665  1.0000
  H   H1085     1.0  0.25623  0.87005  0.61095  1.0000
  H   H1086     1.0  0.22368  0.86183  0.54596  1.0000
  Fe  Fe69      1.0  0.21554  0.95058  0.51038  1.0000
  H   H1087     1.0  0.33416  0.95443  0.54081  1.0000
  H   H1088     1.0  0.28262  0.93616  0.53856  1.0000
  C   C618      1.0  0.25519  0.94349  0.56904  1.0000
  C   C619      1.0  0.28131  0.92497  0.55250  1.0000
  C   C620      1.0  0.10499  0.83582  0.50467  1.0000
  H   H1089     1.0  0.18816  0.86405  0.52557  1.0000
  C   C621      1.0  0.23222  0.90410  0.54693  1.0000
  C   C622      1.0  0.33216  0.94543  0.55576  1.0000
  H   H1090     1.0  0.22868  0.88864  0.58306  1.0000
  C   C623      1.0  0.13078  0.87042  0.53010  1.0000
  C   C624      1.0  0.30678  0.94272  0.56553  1.0000
  H   H1091     1.0  0.33174  0.92552  0.55421  1.0000
  H   H1092     1.0  0.28402  0.88994  0.58119  1.0000
  C   C625      1.0  0.10791  0.84614  0.52422  1.0000
  H   H1093     1.0  0.26006  0.84548  0.59562  1.0000
  H   H1094     1.0  0.99189  0.68122  0.59669  1.0000
  H   H1095     1.0  0.09254  0.83544  0.53484  1.0000
  H   H1096     1.0  0.22890  0.84721  0.59451  1.0000
  H   H1097     1.0  0.23351  0.91890  0.53560  1.0000
  C   C626      1.0  0.03002  0.85680  0.50845  1.0000
  H   H1098     1.0  0.21268  0.96508  0.59164  1.0000
  S   S137      1.0  0.25383  0.94981  0.50186  1.0000
  C   C627      1.0  0.25051  0.89995  0.58013  1.0000
  H   H1099     1.0  0.25961  0.91250  0.59395  1.0000
  H   H1100     1.0  0.21249  0.89764  0.55394  1.0000
  H   H1101     1.0  0.34999  0.95896  0.56516  1.0000
  C   C628      1.0  0.20799  0.86955  0.51909  1.0000
  C   C629      1.0  0.25104  0.85936  0.59617  1.0000
  H   H1102     1.0  0.25709  0.86791  0.56506  1.0000
  H   H1103     1.0  0.30580  0.93475  0.58070  1.0000
  C   C630      1.0  0.08720  0.90101  0.50476  1.0000
  H   H1104     1.0  0.24866  0.88247  0.52839  1.0000
  H   H1105     1.0  0.21975  0.92500  0.58794  1.0000
  C   C631      1.0  0.26187  0.87944  0.57934  1.0000
  H   H1106     1.0  0.27037  0.95342  0.58136  1.0000
  H   H1107     1.0  0.13273  0.87804  0.54529  1.0000
  C   C632      1.0  0.15099  0.88506  0.51654  1.0000
  S   S138      1.0  0.17944  0.91565  0.52504  1.0000
  Fe  Fe70      1.0  0.99798  0.71660  0.52534  1.0000
  Fe  Fe71      1.0  0.03481  0.77054  0.50411  1.0000
  S   S139      1.0  0.00398  0.75924  0.52811  1.0000
  H   H1108     1.0  0.07501  0.90529  0.51573  1.0000
  H   H1109     1.0  0.02301  0.81779  0.51946  1.0000
  H   H1110     1.0  0.09037  0.74379  0.50226  1.0000
  H   H1111     1.0  0.04028  0.86722  0.52265  1.0000
  H   H1112     1.0  0.99105  0.56636  0.64499  1.0000
  C   C633      1.0  0.12681  0.94162  0.52095  1.0000
  H   H1113     1.0  0.24003  0.98381  0.57552  1.0000
  H   H1114     1.0  0.00472  0.58541  0.62288  1.0000
  H   H1115     1.0  0.11379  0.94670  0.53046  1.0000
  H   H1116     1.0  0.21251  0.88569  0.50814  1.0000
  H   H1117     1.0  0.20677  0.85156  0.51106  1.0000
  H   H1118     1.0  0.13276  0.92807  0.52917  1.0000
  H   H1119     1.0  0.14531  0.96047  0.51797  1.0000
  S   S140      1.0  0.23821  0.98941  0.52850  1.0000
  H   H1120     1.0  0.09448  0.88811  0.51258  1.0000
  H   H1121     1.0  0.99681  0.82668  0.52467  1.0000
  Fe  Fe72      1.0  0.27613  0.99043  0.51789  1.0000
  S   S141      1.0  0.03146  0.72885  0.50318  1.0000
  H   H1122     1.0  0.24643  0.97311  0.59954  1.0000
  S   S142      1.0  0.99497  0.69621  0.55560  1.0000
  H   H1123     1.0  0.11024  0.72642  0.49997  1.0000
  H   H1124     1.0  0.01738  0.86579  0.50282  1.0000
  C   C634      1.0  0.11231  0.92836  0.50119  1.0000
  H   H1125     1.0  0.33502  0.96885  0.84798  1.0000
  C   C635      1.0  0.33679  0.97903  0.88851  1.0000
  H   H1126     1.0  0.04637  0.62905  0.98622  1.0000
  S   S143      1.0  0.99486  0.77239  0.98611  1.0000
  H   H1127     1.0  0.33836  0.96037  0.88520  1.0000
  H   H1128     1.0  0.23221  0.96419  0.84302  1.0000
  H   H1129     1.0  0.06564  0.71621  0.98214  1.0000
  H   H1130     1.0  0.24649  0.94141  0.84159  1.0000
  H   H1131     1.0  0.29312  0.98001  0.81262  1.0000
  C   C636      1.0  0.13882  0.86329  0.98725  1.0000
  H   H1132     1.0  0.14923  0.85715  0.97659  1.0000
  H   H1133     1.0  0.35900  0.96002  0.78551  1.0000
  H   H1134     1.0  0.32598  0.97647  0.90266  1.0000
  C   C637      1.0  0.15186  0.88958  0.99569  1.0000
  C   C638      1.0  0.15755  0.96105  0.97073  1.0000
  S   S144      1.0  0.99592  0.71867  0.94630  1.0000
  C   C639      1.0  0.11231  0.84485  0.99226  1.0000
  Fe  Fe73      1.0  0.21944  0.95487  0.99544  1.0000
  C   C640      1.0  0.24752  0.96021  0.83558  1.0000
  C   C641      1.0  0.32164  0.98471  0.87158  1.0000
  H   H1135     1.0  0.00187  0.67661  0.97363  1.0000
  C   C642      1.0  0.00037  0.62248  0.96609  1.0000
  C   C643      1.0  0.05695  0.70963  0.96679  1.0000
  C   C644      1.0  0.29725  0.97945  0.82891  1.0000
  H   H1136     1.0  0.07363  0.71576  0.95625  1.0000
  S   S145      1.0  0.18532  0.91199  0.98834  1.0000
  H   H1137     1.0  0.13018  0.95402  0.99414  1.0000
  H   H1138     1.0  0.17891  0.97402  0.96729  1.0000
  H   H1139     1.0  0.27882  0.98641  0.85603  1.0000
  C   C645      1.0  0.27535  0.98387  0.83967  1.0000
  H   H1140     1.0  0.32384  0.95776  0.80817  1.0000
  H   H1141     1.0  0.29343  0.95840  0.83147  1.0000
  H   H1142     1.0  0.15370  0.93975  0.97017  1.0000
  H   H1143     1.0  0.01085  0.62432  0.92473  1.0000
  H   H1144     1.0  0.30143  0.96708  0.87012  1.0000
  C   C646      1.0  0.03960  0.67915  0.96550  1.0000
  C   C647      1.0  0.34428  0.97496  0.80990  1.0000
  S   S146      1.0  0.23834  0.98923  0.97396  1.0000
  H   H1145     1.0  0.02075  0.62761  0.96105  1.0000
  H   H1146     1.0  0.10267  0.82488  0.98545  1.0000
  S   S147      1.0  0.03926  0.75150  0.99667  1.0000
  H   H1147     1.0  0.24267  0.95739  0.81928  1.0000
  Fe  Fe74      1.0  0.00056  0.73602  0.97832  1.0000
  H   H1148     1.0  0.99173  0.60096  0.97028  1.0000
  H   H1149     1.0  0.05292  0.67001  0.96846  1.0000
  H   H1150     1.0  0.03190  0.67376  0.94984  1.0000
  H   H1151     1.0  0.14454  0.96356  0.95917  1.0000
  C   C648      1.0  0.33636  0.98879  0.85167  1.0000
  H   H1152     1.0  0.34687  0.98327  0.77801  1.0000
  C   C649      1.0  0.35809  0.97872  0.78991  1.0000
  H   H1153     1.0  0.04491  0.71990  0.96261  1.0000
  H   H1154     1.0  0.35612  0.96982  0.82087  1.0000
  C   C650      1.0  0.15153  0.96806  0.99152  1.0000
  N   N37       1.0  0.00127  0.63966  0.98394  1.0000
  C   C651      1.0  0.01585  0.66952  0.98002  1.0000
  H   H1155     1.0  0.02338  0.68119  0.99439  1.0000
  C   C652      1.0  0.98961  0.61204  0.92880  1.0000
  H   H1156     1.0  0.98960  0.69759  0.90608  1.0000
  H   H1157     1.0  0.74060  0.06937  0.00408  1.0000
  H   H1158     1.0  0.86519  0.13871  0.02583  1.0000
  C   C653      1.0  0.86900  0.12684  0.01471  1.0000
  H   H1159     1.0  0.82899  0.09315  0.01587  1.0000
  S   S148      1.0  0.91982  0.17048  0.01421  1.0000
  C   C654      1.0  0.64513  0.99865  0.01581  1.0000
  C   C655      1.0  0.89454  0.13750  0.00625  1.0000
  H   H1160     1.0  0.68076  0.04989  0.01123  1.0000
  Fe  Fe75      1.0  0.96143  0.20294  0.00431  1.0000
  C   C656      1.0  0.84835  0.10090  0.00910  1.0000
  H   H1161     1.0  0.65504  0.03328  0.03622  1.0000
  C   C657      1.0  0.89381  0.22214  0.00146  1.0000
  H   H1162     1.0  0.69824  0.03055  0.01362  1.0000
  H   H1163     1.0  0.62778  0.02669  0.01863  1.0000
  H   H1164     1.0  0.61271  0.01530  0.05345  1.0000
  C   C658      1.0  0.68564  0.03548  0.00306  1.0000
  C   C659      1.0  0.63717  0.01723  0.02824  1.0000
  H   H1165     1.0  0.88002  0.22484  0.01179  1.0000
  H   H1166     1.0  0.90607  0.21498  0.01026  1.0000
  C   C660      1.0  0.61740  0.00145  0.04429  1.0000
  H   H1167     1.0  0.72403  0.09023  0.00271  1.0000
  S   S149      1.0  0.81464  0.06683  0.47834  1.0000
  C   C661      1.0  0.84929  0.09086  0.48286  1.0000
  C   C662      1.0  0.64964  0.00500  0.42045  1.0000
  Fe  Fe76      1.0  0.78418  0.02267  0.48497  1.0000
  S   S150      1.0  0.96488  0.23689  0.48163  1.0000
  H   H1168     1.0  0.86179  0.06358  0.49597  1.0000
  H   H1169     1.0  0.61123  0.01597  0.39064  1.0000
  C   C663      1.0  0.56852  0.01325  0.41244  1.0000
  C   C664      1.0  0.85819  0.11780  0.47736  1.0000
  H   H1170     1.0  0.84402  0.12344  0.47052  1.0000
  C   C665      1.0  0.90416  0.13074  0.48896  1.0000
  H   H1171     1.0  0.67691  0.02507  0.44566  1.0000
  H   H1172     1.0  0.66674  0.00698  0.41137  1.0000
  C   C666      1.0  0.89523  0.10382  0.49457  1.0000
  C   C667      1.0  0.94938  0.11886  0.44980  1.0000
  S   S151      1.0  0.74196  0.01586  0.49089  1.0000
  C   C668      1.0  0.86809  0.08409  0.49164  1.0000
  H   H1173     1.0  0.93448  0.10816  0.46135  1.0000
  H   H1174     1.0  0.60261  0.01187  0.42601  1.0000
  C   C669      1.0  0.88528  0.13758  0.48045  1.0000
  H   H1175     1.0  0.56136  0.01639  0.42709  1.0000
  H   H1176     1.0  0.89158  0.15805  0.47599  1.0000
  C   C670      1.0  0.97676  0.12117  0.45573  1.0000
  H   H1177     1.0  0.65429  0.01958  0.34653  1.0000
  C   C671      1.0  0.64378  0.99758  0.34320  1.0000
  H   H1178     1.0  0.97396  0.10037  0.45718  1.0000
  H   H1179     1.0  0.55072  0.00073  0.40265  1.0000
  Fe  Fe77      1.0  0.96884  0.20026  0.49094  1.0000
  C   C672      1.0  0.65816  0.00616  0.44240  1.0000
  C   C673      1.0  0.58589  0.99917  0.41545  1.0000
  H   H1180     1.0  0.64607  0.02251  0.41754  1.0000
  H   H1181     1.0  0.94206  0.10738  0.43542  1.0000
  H   H1182     1.0  0.97248  0.12446  0.48695  1.0000
  H   H1183     1.0  0.64571  0.00847  0.38180  1.0000
  H   H1184     1.0  0.95081  0.13914  0.44794  1.0000
  S   S152      1.0  0.93895  0.15468  0.49304  1.0000
  C   C674      1.0  0.98728  0.13690  0.47583  1.0000
  H   H1185     1.0  0.64236  0.00564  0.45230  1.0000
  H   H1186     1.0  0.77037  0.08102  0.49303  1.0000
  H   H1187     1.0  0.98550  0.15580  0.47486  1.0000
  H   H1188     1.0  0.58022  0.03318  0.40564  1.0000
  C   C675      1.0  0.59708  0.99529  0.39533  1.0000
  H   H1189     1.0  0.63570  0.99418  0.32757  1.0000
  H   H1190     1.0  0.89045  0.44833  0.69874  1.0000
  C   C676      1.0  0.52551  0.04644  0.58219  1.0000
  C   C677      1.0  0.66835  0.47995  0.70445  1.0000
  Fe  Fe78      1.0  0.91538  0.31358  0.63219  1.0000
  S   S153      1.0  0.88954  0.32496  0.61278  1.0000
  S   S154      1.0  0.93820  0.29216  0.61905  1.0000
  Fe  Fe79      1.0  0.89326  0.32600  0.67127  1.0000
  S   S155      1.0  0.86565  0.33717  0.65349  1.0000
  S   S156      1.0  0.88462  0.33006  0.70398  1.0000
  Fe  Fe80      1.0  0.85706  0.30104  0.63409  1.0000
  S   S157      1.0  0.81543  0.27128  0.62250  1.0000
  Fe  Fe81      1.0  0.90067  0.36017  0.63429  1.0000
  S   S158      1.0  0.91462  0.40390  0.62542  1.0000
  S   S159      1.0  0.88225  0.28834  0.65292  1.0000
  S   S160      1.0  0.92914  0.35060  0.65265  1.0000
  Fe  Fe82      1.0  0.68020  0.08051  0.62574  1.0000
  S   S161      1.0  0.68812  0.12380  0.62868  1.0000
  S   S162      1.0  0.67976  0.06527  0.59347  1.0000
  Fe  Fe83      1.0  0.67125  0.07274  0.67123  1.0000
  S   S163      1.0  0.67938  0.11517  0.67691  1.0000
  S   S164      1.0  0.65779  0.04131  0.69536  1.0000
  Fe  Fe84      1.0  0.65326  0.10884  0.64942  1.0000
  S   S165      1.0  0.62283  0.12494  0.65119  1.0000
  Fe  Fe85      1.0  0.71322  0.12616  0.65580  1.0000
  S   S166      1.0  0.75507  0.15865  0.66456  1.0000
  S   S167      1.0  0.64329  0.06563  0.64460  1.0000
  S   S168      1.0  0.70719  0.08371  0.65200  1.0000
  C   C678      1.0  0.79564  0.08755  0.56571  1.0000
  C   C679      1.0  0.60943  0.05758  0.59342  1.0000
  C   C680      1.0  0.76973  0.10381  0.58780  1.0000
  C   C681      1.0  0.58758  0.10696  0.64694  1.0000
  C   C682      1.0  0.57216  0.12045  0.64975  1.0000
  C   C683      1.0  0.54419  0.10723  0.64613  1.0000
  C   C684      1.0  0.53131  0.08035  0.63945  1.0000
  C   C685      1.0  0.54670  0.06673  0.63683  1.0000
  C   C686      1.0  0.57467  0.07990  0.64066  1.0000
  H   H1191     1.0  0.58196  0.14138  0.65461  1.0000
  H   H1192     1.0  0.53266  0.11798  0.64818  1.0000
  H   H1193     1.0  0.53688  0.04586  0.63184  1.0000
  H   H1194     1.0  0.58624  0.06921  0.63872  1.0000
  C   C687      1.0  0.69639  0.04839  0.58199  1.0000
  C   C688      1.0  0.69499  0.04518  0.56101  1.0000
  C   C689      1.0  0.70783  0.03202  0.55119  1.0000
  C   C690      1.0  0.72219  0.02170  0.56225  1.0000
  C   C691      1.0  0.72369  0.02503  0.58321  1.0000
  C   C692      1.0  0.71091  0.03824  0.59303  1.0000
  H   H1195     1.0  0.76236  0.10471  0.50614  1.0000
  H   H1196     1.0  0.57943  0.01608  0.58411  1.0000
  H   H1197     1.0  0.71225  0.04048  0.60914  1.0000
  C   C693      1.0  0.79821  0.24028  0.63458  1.0000
  C   C694      1.0  0.81111  0.23258  0.64921  1.0000
  C   C695      1.0  0.79768  0.20736  0.65795  1.0000
  C   C696      1.0  0.77094  0.18975  0.65255  1.0000
  C   C697      1.0  0.75776  0.19742  0.63805  1.0000
  C   C698      1.0  0.77144  0.22262  0.62904  1.0000
  H   H1198     1.0  0.83158  0.24582  0.65360  1.0000
  H   H1199     1.0  0.80812  0.20134  0.66885  1.0000
  H   H1200     1.0  0.73710  0.18400  0.63381  1.0000
  H   H1201     1.0  0.76124  0.22843  0.61776  1.0000
  C   C699      1.0  0.49018  0.19284  0.74860  1.0000
  H   H1202     1.0  0.83469  0.21738  0.61711  1.0000
  C   C700      1.0  0.52903  0.11390  0.72869  1.0000
  C   C701      1.0  0.84705  0.44735  0.73959  1.0000
  C   C702      1.0  0.96188  0.28339  0.55444  1.0000
  C   C703      1.0  0.96082  0.26560  0.56926  1.0000
  C   C704      1.0  0.95351  0.26856  0.58886  1.0000
  C   C705      1.0  0.94641  0.28886  0.59386  1.0000
  C   C706      1.0  0.94678  0.30620  0.57892  1.0000
  C   C707      1.0  0.95464  0.30359  0.55943  1.0000
  H   H1203     1.0  0.67047  0.08636  0.72502  1.0000
  C   C708      1.0  0.58137  0.46652  0.70174  1.0000
  H   H1204     1.0  0.94152  0.32200  0.58246  1.0000
  H   H1205     1.0  0.60051  0.05873  0.60784  1.0000
  C   C709      1.0  0.55427  0.45251  0.64981  1.0000
  C   C710      1.0  0.52748  0.43923  0.65578  1.0000
  C   C711      1.0  0.51281  0.41093  0.65500  1.0000
  C   C712      1.0  0.52434  0.39550  0.64738  1.0000
  C   C713      1.0  0.55109  0.40876  0.64130  1.0000
  C   C714      1.0  0.56610  0.43708  0.64271  1.0000
  H   H1206     1.0  0.51802  0.45088  0.66113  1.0000
  H   H1207     1.0  0.96553  0.24951  0.56561  1.0000
  H   H1208     1.0  0.56028  0.39704  0.63545  1.0000
  C   C715      1.0  0.87620  0.45658  0.64632  1.0000
  C   C716      1.0  0.90250  0.46837  0.63963  1.0000
  C   C717      1.0  0.91393  0.45205  0.63307  1.0000
  C   C718      1.0  0.89933  0.42378  0.63338  1.0000
  C   C719      1.0  0.87300  0.41206  0.63992  1.0000
  C   C720      1.0  0.86155  0.42836  0.64637  1.0000
  H   H1209     1.0  0.60968  0.45621  0.71731  1.0000
  H   H1210     1.0  0.93431  0.46132  0.62801  1.0000
  H   H1211     1.0  0.86136  0.39038  0.63985  1.0000
  H   H1212     1.0  0.84113  0.41900  0.65137  1.0000
  C   C721      1.0  0.64574  0.01929  0.73195  1.0000
  C   C722      1.0  0.65574  0.04347  0.72175  1.0000
  H   H1213     1.0  0.50393  0.39574  0.58583  1.0000
  C   C723      1.0  0.61229  0.10201  0.70074  1.0000
  H   H1214     1.0  0.88191  0.22816  0.69113  1.0000
  C   C724      1.0  0.91193  0.31267  0.73045  1.0000
  C   C725      1.0  0.89273  0.32162  0.72767  1.0000
  H   H1215     1.0  0.90866  0.25033  0.70800  1.0000
  H   H1216     1.0  0.92232  0.31035  0.71776  1.0000
  H   H1217     1.0  0.85375  0.12617  0.52102  1.0000
  H   H1218     1.0  0.50393  0.19455  0.66668  1.0000
  H   H1219     1.0  0.95087  0.46620  0.57250  1.0000
  H   H1220     1.0  0.87093  0.31703  0.54677  1.0000
  C   C726      1.0  0.94572  0.47440  0.55901  1.0000
  H   H1221     1.0  0.63136  0.06724  0.59685  1.0000
  H   H1222     1.0  0.89299  0.23720  0.63193  1.0000
  H   H1223     1.0  0.86324  0.10255  0.53175  1.0000
  H   H1224     1.0  0.98226  0.43745  0.68161  1.0000
  H   H1225     1.0  0.64206  0.06318  0.56121  1.0000
  H   H1226     1.0  0.58980  0.05842  0.67937  1.0000
  H   H1227     1.0  0.81022  0.09563  0.51565  1.0000
  H   H1228     1.0  0.61703  0.14819  0.61142  1.0000
  H   H1229     1.0  0.56569  0.01311  0.72430  1.0000
  H   H1230     1.0  0.61060  0.04849  0.69304  1.0000
  C   C727      1.0  0.62402  0.10212  0.57874  1.0000
  H   H1231     1.0  0.50027  0.40552  0.61008  1.0000
  N   N38       1.0  0.60292  0.07291  0.57764  1.0000
  H   H1232     1.0  0.57238  0.08463  0.57007  1.0000
  H   H1233     1.0  0.79403  0.04809  0.54320  1.0000
  H   H1234     1.0  0.61569  0.05132  0.51896  1.0000
  C   C728      1.0  0.86564  0.22648  0.59468  1.0000
  H   H1235     1.0  0.62135  0.11333  0.56599  1.0000
  C   C729      1.0  0.87316  0.30832  0.56104  1.0000
  H   H1236     1.0  0.53685  0.47163  0.58654  1.0000
  H   H1237     1.0  0.80838  0.27376  0.74203  1.0000
  H   H1238     1.0  0.54726  0.05399  0.72437  1.0000
  H   H1239     1.0  0.86426  0.33101  0.74233  1.0000
  H   H1240     1.0  0.88823  0.27465  0.58095  1.0000
  C   C730      1.0  0.49115  0.47233  0.69049  1.0000
  H   H1241     1.0  0.56165  0.45956  0.73009  1.0000
  H   H1242     1.0  0.51591  0.12381  0.72807  1.0000
  S   S169      1.0  0.78736  0.00247  0.51277  1.0000
  C   C731      1.0  0.53629  0.47957  0.70464  1.0000
  C   C732      1.0  0.51583  0.05336  0.69109  1.0000
  H   H1243     1.0  0.83250  0.35095  0.69244  1.0000
  H   H1244     1.0  0.64031  0.00065  0.72374  1.0000
  H   H1245     1.0  0.91299  0.47702  0.57245  1.0000
  C   C733      1.0  0.50519  0.21417  0.67146  1.0000
  S   S170      1.0  0.49625  0.06315  0.63394  1.0000
  H   H1246     1.0  0.52772  0.45745  0.70677  1.0000
  C   C734      1.0  0.89621  0.39318  0.73496  1.0000
  H   H1247     1.0  0.60115  0.03171  0.72531  1.0000
  H   H1248     1.0  0.80901  0.18264  0.56488  1.0000
  H   H1249     1.0  0.86368  0.22601  0.64687  1.0000
  H   H1250     1.0  0.62579  0.09747  0.69138  1.0000
  C   C735      1.0  0.88771  0.14352  0.54139  1.0000
  H   H1251     1.0  0.77509  0.09466  0.60060  1.0000
  H   H1252     1.0  0.81718  0.28380  0.67217  1.0000
  H   H1253     1.0  0.76844  0.12183  0.59345  1.0000
  N   N39       1.0  0.81240  0.09130  0.54759  1.0000
  H   H1254     1.0  0.51166  0.06654  0.68091  1.0000
  H   H1255     1.0  0.87314  0.26397  0.70600  1.0000
  H   H1256     1.0  0.82336  0.05769  0.57449  1.0000
  H   H1257     1.0  0.88199  0.37722  0.69592  1.0000
  H   H1258     1.0  0.61673  0.02676  0.53581  1.0000
  H   H1259     1.0  0.48885  0.44152  0.59193  1.0000
  H   H1260     1.0  0.88614  0.16221  0.54452  1.0000
  H   H1261     1.0  0.83920  0.03308  0.53917  1.0000
  H   H1262     1.0  0.75732  0.07959  0.53747  1.0000
  H   H1263     1.0  0.53241  0.45403  0.60953  1.0000
  C   C736      1.0  0.90293  0.42002  0.72451  1.0000
  H   H1264     1.0  0.89586  0.13823  0.55489  1.0000
  C   C737      1.0  0.58250  0.03380  0.72669  1.0000
  H   H1265     1.0  0.68391  0.05296  0.55226  1.0000
  H   H1266     1.0  0.50632  0.05286  0.70555  1.0000
  H   H1267     1.0  0.88758  0.23499  0.52165  1.0000
  H   H1268     1.0  0.74973  0.08928  0.58156  1.0000
  C   C738      1.0  0.66265  0.06750  0.73271  1.0000
  H   H1269     1.0  0.55394  0.06294  0.67920  1.0000
  N   N40       1.0  0.58126  0.05243  0.71103  1.0000
  H   H1270     1.0  0.86208  0.31315  0.57260  1.0000
  C   C739      1.0  0.55141  0.04401  0.58113  1.0000
  C   C740      1.0  0.60084  0.08102  0.71738  1.0000
  C   C741      1.0  0.59228  0.44685  0.70662  1.0000
  C   C742      1.0  0.89088  0.23557  0.55418  1.0000
  H   H1271     1.0  0.78302  0.11866  0.55868  1.0000
  C   C743      1.0  0.79978  0.09679  0.52930  1.0000
  H   H1272     1.0  0.95518  0.31740  0.54813  1.0000
  C   C744      1.0  0.81439  0.06570  0.54374  1.0000
  S   S171      1.0  0.50592  0.35986  0.64458  1.0000
  C   C745      1.0  0.60550  0.01363  0.60679  1.0000
  H   H1273     1.0  0.76676  0.16122  0.58217  1.0000
  H   H1274     1.0  0.81872  0.23239  0.59119  1.0000
  H   H1275     1.0  0.91680  0.23346  0.53144  1.0000
  H   H1276     1.0  0.61739  0.10432  0.61116  1.0000
  H   H1277     1.0  0.85288  0.41196  0.68977  1.0000
  N   N41       1.0  0.90607  0.41988  0.70220  1.0000
  C   C746      1.0  0.90794  0.44565  0.69413  1.0000
  C   C747      1.0  0.88240  0.39656  0.69205  1.0000
  C   C748      1.0  0.82538  0.24579  0.74069  1.0000
  C   C749      1.0  0.93100  0.41720  0.69817  1.0000
  H   H1278     1.0  0.89482  0.31777  0.56540  1.0000
  H   H1279     1.0  0.90047  0.22815  0.56542  1.0000
  H   H1280     1.0  0.85068  0.39396  0.71227  1.0000
  C   C750      1.0  0.85450  0.39457  0.69608  1.0000
  C   C751      1.0  0.83211  0.36905  0.68633  1.0000
  H   H1281     1.0  0.91204  0.38699  0.73271  1.0000
  C   C752      1.0  0.86624  0.26512  0.57761  1.0000
  H   H1282     1.0  0.53674  0.08711  0.74724  1.0000
  H   H1283     1.0  0.59510  0.07250  0.54582  1.0000
  C   C753      1.0  0.88734  0.23467  0.70704  1.0000
  H   H1284     1.0  0.88448  0.39747  0.67561  1.0000
  H   H1285     1.0  0.50809  0.02613  0.58322  1.0000
  H   H1286     1.0  0.55464  0.08563  0.69882  1.0000
  H   H1287     1.0  0.59653  0.10213  0.69077  1.0000
  H   H1288     1.0  0.50029  0.43191  0.56992  1.0000
  H   H1289     1.0  0.92846  0.39728  0.70302  1.0000
  H   H1290     1.0  0.53846  0.02663  0.70764  1.0000
  C   C754      1.0  0.79925  0.26080  0.69866  1.0000
  C   C755      1.0  0.87944  0.32451  0.74434  1.0000
  H   H1291     1.0  0.84017  0.26957  0.55437  1.0000
  C   C756      1.0  0.96606  0.41926  0.67407  1.0000
  H   H1292     1.0  0.83836  0.20936  0.72537  1.0000
  H   H1293     1.0  0.90647  0.44465  0.67753  1.0000
  H   H1294     1.0  0.86727  0.20238  0.63036  1.0000
  H   H1295     1.0  0.58666  0.44695  0.63802  1.0000
  H   H1296     1.0  0.80249  0.11773  0.52979  1.0000
  H   H1297     1.0  0.92174  0.43556  0.73190  1.0000
  H   H1298     1.0  0.77605  0.06897  0.56394  1.0000
  C   C757      1.0  0.86178  0.27788  0.55837  1.0000
  H   H1299     1.0  0.90158  0.25784  0.55480  1.0000
  H   H1300     1.0  0.81552  0.18415  0.59141  1.0000
  N   N42       1.0  0.85414  0.23479  0.57716  1.0000
  H   H1301     1.0  0.52452  0.10095  0.71505  1.0000
  H   H1302     1.0  0.64787  0.13025  0.60281  1.0000
  H   H1303     1.0  0.83975  0.27691  0.71104  1.0000
  H   H1304     1.0  0.91410  0.49003  0.63981  1.0000
  C   C758      1.0  0.61433  0.13736  0.59687  1.0000
  H   H1305     1.0  0.52477  0.22668  0.67930  1.0000
  C   C759      1.0  0.83967  0.11496  0.55154  1.0000
  C   C760      1.0  0.62884  0.13043  0.70955  1.0000
  H   H1306     1.0  0.62480  0.15254  0.58540  1.0000
  H   H1307     1.0  0.59259  0.12672  0.59302  1.0000
  Fe  Fe86      1.0  0.74512  0.99503  0.51844  1.0000
  H   H1308     1.0  0.70646  0.02970  0.53509  1.0000
  C   C761      1.0  0.62630  0.11788  0.59859  1.0000
  H   H1309     1.0  0.68908  0.49121  0.73281  1.0000
  H   H1310     1.0  0.64573  0.13156  0.71908  1.0000
  C   C762      1.0  0.57619  0.07213  0.58123  1.0000
  H   H1311     1.0  0.75098  0.14866  0.73630  1.0000
  H   H1312     1.0  0.64217  0.08781  0.54444  1.0000
  H   H1313     1.0  0.80927  0.12869  0.57759  1.0000
  H   H1314     1.0  0.76984  0.19160  0.57123  1.0000
  C   C763      1.0  0.86964  0.24634  0.71511  1.0000
  C   C764      1.0  0.83119  0.03264  0.55426  1.0000
  H   H1315     1.0  0.54983  0.03201  0.56745  1.0000
  H   H1316     1.0  0.82248  0.06567  0.52869  1.0000
  N   N43       1.0  0.81978  0.23501  0.71941  1.0000
  H   H1317     1.0  0.78885  0.20396  0.70071  1.0000
  H   H1318     1.0  0.84844  0.11289  0.56606  1.0000
  C   C765      1.0  0.87106  0.22357  0.63212  1.0000
  H   H1319     1.0  0.64432  0.10370  0.57690  1.0000
  H   H1320     1.0  0.49960  0.48084  0.67586  1.0000
  H   H1321     1.0  0.57626  0.08118  0.59611  1.0000
  H   H1322     1.0  0.73470  0.01717  0.59197  1.0000
  C   C766      1.0  0.79049  0.11160  0.57156  1.0000
  H   H1323     1.0  0.85258  0.07510  0.55977  1.0000
  C   C767      1.0  0.83136  0.05934  0.55931  1.0000
  H   H1324     1.0  0.80538  0.08400  0.57911  1.0000
  H   H1325     1.0  0.77629  0.21808  0.71867  1.0000
  H   H1326     1.0  0.95178  0.47166  0.69545  1.0000
  H   H1327     1.0  0.94065  0.43759  0.66907  1.0000
  H   H1328     1.0  0.83788  0.13380  0.55324  1.0000
  H   H1329     1.0  0.52591  0.05856  0.59557  1.0000
  C   C768      1.0  0.54613  0.06420  0.69395  1.0000
  H   H1330     1.0  0.61899  0.08150  0.72479  1.0000
  H   H1331     1.0  0.54413  0.44358  0.58780  1.0000
  C   C769      1.0  0.60263  0.06250  0.55667  1.0000
  C   C770      1.0  0.80796  0.19221  0.57921  1.0000
  H   H1332     1.0  0.82175  0.30404  0.69456  1.0000
  H   H1333     1.0  0.85052  0.22821  0.54504  1.0000
  H   H1334     1.0  0.70716  0.48510  0.71298  1.0000
  H   H1335     1.0  0.86107  0.20500  0.59304  1.0000
  H   H1336     1.0  0.50249  0.47749  0.72161  1.0000
  H   H1337     1.0  0.85801  0.27199  0.59013  1.0000
  H   H1338     1.0  0.87195  0.27428  0.54553  1.0000
  H   H1339     1.0  0.78492  0.24318  0.68939  1.0000
  C   C771      1.0  0.82409  0.22332  0.57825  1.0000
  H   H1340     1.0  0.86064  0.25171  0.61794  1.0000
  C   C772      1.0  0.76952  0.07753  0.52543  1.0000
  C   C773      1.0  0.82400  0.25716  0.70499  1.0000
  C   C774      1.0  0.89507  0.22637  0.53356  1.0000
  S   S172      1.0  0.97192  0.28147  0.52954  1.0000
  H   H1341     1.0  0.81047  0.01579  0.55480  1.0000
  H   H1342     1.0  0.57643  0.42838  0.71318  1.0000
  H   H1343     1.0  0.61609  0.13655  0.71849  1.0000
  C   C775      1.0  0.80751  0.28570  0.68598  1.0000
  C   C776      1.0  0.85648  0.23055  0.61553  1.0000
  C   C777      1.0  0.86038  0.12043  0.53504  1.0000
  H   H1344     1.0  0.81235  0.36801  0.68936  1.0000
  C   C778      1.0  0.77837  0.18349  0.58278  1.0000
  H   H1345     1.0  0.93481  0.47459  0.71715  1.0000
  H   H1346     1.0  0.77600  0.19070  0.59776  1.0000
  H   H1347     1.0  0.78954  0.28791  0.68156  1.0000
  H   H1348     1.0  0.92394  0.40137  0.66739  1.0000
  H   H1349     1.0  0.81590  0.22902  0.56498  1.0000
  C   C779      1.0  0.53048  0.45152  0.59299  1.0000
  C   C780      1.0  0.60085  0.02740  0.58872  1.0000
  C   C781      1.0  0.86059  0.22446  0.55821  1.0000
  C   C782      1.0  0.79195  0.21166  0.71648  1.0000
  H   H1350     1.0  0.65835  0.45824  0.70794  1.0000
  H   H1351     1.0  0.59882  0.44097  0.69268  1.0000
  S   S173      1.0  0.73885  0.00479  0.55085  1.0000
  H   H1352     1.0  0.85234  0.20223  0.55848  1.0000
  H   H1353     1.0  0.88796  0.23804  0.59508  1.0000
  C   C783      1.0  0.75560  0.16601  0.72652  1.0000
  C   C784      1.0  0.58950  0.04507  0.69153  1.0000
  H   H1354     1.0  0.83472  0.21463  0.69960  1.0000
  H   H1355     1.0  0.58139  0.02482  0.65238  1.0000
  H   H1356     1.0  0.49255  0.40103  0.66024  1.0000
  H   H1357     1.0  0.62714  0.02329  0.61120  1.0000
  H   H1358     1.0  0.65452  0.48840  0.70787  1.0000
  H   H1359     1.0  0.59686  0.48326  0.69346  1.0000
  C   C785      1.0  0.63026  0.06673  0.54924  1.0000
  H   H1360     1.0  0.93228  0.45720  0.54904  1.0000
  H   H1361     1.0  0.84395  0.02892  0.56533  1.0000
  H   H1362     1.0  0.84428  0.47947  0.59104  1.0000
  C   C786      1.0  0.49251  0.40385  0.59440  1.0000
  H   H1363     1.0  0.88733  0.42605  0.72834  1.0000
  H   H1364     1.0  0.86751  0.46991  0.60287  1.0000
  C   C787      1.0  0.57206  0.01578  0.68362  1.0000
  H   H1365     1.0  0.87666  0.25355  0.73070  1.0000
  H   H1366     1.0  0.96552  0.40097  0.68068  1.0000
  H   H1367     1.0  0.61278  0.02530  0.57650  1.0000
  H   H1368     1.0  0.52260  0.05607  0.56863  1.0000
  H   H1369     1.0  0.87685  0.37670  0.72924  1.0000
  H   H1370     1.0  0.59375  0.01462  0.61957  1.0000
  C   C788      1.0  0.93902  0.41912  0.67603  1.0000
  H   H1371     1.0  0.83434  0.36903  0.66989  1.0000
  H   H1372     1.0  0.79741  0.17736  0.72705  1.0000
  C   C789      1.0  0.62716  0.04814  0.53141  1.0000
  H   H1373     1.0  0.58823  0.04082  0.55496  1.0000
  H   H1374     1.0  0.83185  0.25386  0.69063  1.0000
  H   H1375     1.0  0.64730  0.05250  0.52609  1.0000
  H   H1376     1.0  0.76568  0.05630  0.52459  1.0000
  H   H1377     1.0  0.50658  0.03279  0.68422  1.0000
  H   H1378     1.0  0.59180  0.08880  0.72873  1.0000
  H   H1379     1.0  0.95319  0.25492  0.60023  1.0000
  C   C790      1.0  0.83963  0.22481  0.71463  1.0000
  H   H1380     1.0  0.55241  0.03292  0.59446  1.0000
  H   H1381     1.0  0.63733  0.14477  0.69722  1.0000
  C   C791      1.0  0.86403  0.48726  0.59903  1.0000
  H   H1382     1.0  0.88521  0.21728  0.71595  1.0000
  C   C792      1.0  0.55279  0.04836  0.70990  1.0000
  H   H1383     1.0  0.98255  0.14711  0.51597  1.0000
  H   H1384     1.0  0.56357  0.45562  0.69168  1.0000
  C   C793      1.0  0.93148  0.49085  0.56482  1.0000
  H   H1385     1.0  0.60315  0.01421  0.66564  1.0000
  H   H1386     1.0  0.78864  0.26294  0.71175  1.0000
  C   C794      1.0  0.93330  0.47187  0.70066  1.0000
  H   H1387     1.0  0.55037  0.12946  0.72856  1.0000
  H   H1388     1.0  0.88460  0.20408  0.53200  1.0000
  H   H1389     1.0  0.90204  0.14753  0.52920  1.0000
  S   S174      1.0  0.86090  0.47597  0.65524  1.0000
  H   H1390     1.0  0.97063  0.41942  0.65800  1.0000
  H   H1391     1.0  0.50402  0.22469  0.65783  1.0000
  H   H1392     1.0  0.50150  0.21144  0.71271  1.0000
  H   H1393     1.0  0.74173  0.17442  0.73002  1.0000
  H   H1394     1.0  0.83485  0.45796  0.73700  1.0000
  H   H1395     1.0  0.67251  0.48185  0.68823  1.0000
  H   H1396     1.0  0.57276  0.00108  0.69421  1.0000
  C   C795      1.0  0.75950  0.08375  0.50581  1.0000
  C   C796      1.0  0.78478  0.18729  0.73014  1.0000
  C   C797      1.0  0.57442  0.47730  0.72106  1.0000
  H   H1397     1.0  0.94843  0.43230  0.70722  1.0000
  C   C798      1.0  0.52361  0.09686  0.74731  1.0000
  C   C799      1.0  0.58220  0.01100  0.66376  1.0000
  H   H1398     1.0  0.55093  0.01153  0.68106  1.0000
  H   H1399     1.0  0.75207  0.15857  0.71073  1.0000
  C   C800      1.0  0.50145  0.43256  0.58650  1.0000
  H   H1400     1.0  0.50257  0.08076  0.74584  1.0000
  H   H1401     1.0  0.84556  0.26360  0.74219  1.0000
  H   H1402     1.0  0.78729  0.19353  0.74615  1.0000
  H   H1403     1.0  0.54197  0.48267  0.68869  1.0000
  H   H1404     1.0  0.59369  0.48843  0.72966  1.0000
  H   H1405     1.0  0.86225  0.45335  0.72783  1.0000
  H   H1406     1.0  0.96431  0.48696  0.55093  1.0000
  H   H1407     1.0  0.83389  0.42528  0.73817  1.0000
  H   H1408     1.0  0.50875  0.19586  0.74110  1.0000
  C   C801      1.0  0.51230  0.48565  0.70728  1.0000
  S   S175      1.0  0.57175  0.48828  0.65141  1.0000
  H   H1409     1.0  0.53862  0.48073  0.74504  1.0000
  H   H1410     1.0  0.73778  0.06978  0.50348  1.0000
  H   H1411     1.0  0.78454  0.23947  0.74739  1.0000
  H   H1412     1.0  0.98573  0.19615  0.58374  1.0000
  H   H1413     1.0  0.97766  0.21289  0.56403  1.0000
  C   C802      1.0  0.58195  0.04226  0.74882  1.0000
  Fe  Fe87      1.0  0.98672  0.25621  0.51089  1.0000
  H   H1414     1.0  0.90946  0.09812  0.50120  1.0000
  C   C803      1.0  0.80569  0.25509  0.74935  1.0000
  H   H1415     1.0  0.51967  0.45306  0.87877  1.0000
  C   C804      1.0  0.75671  0.05212  0.87513  1.0000
  H   H1416     1.0  0.85955  0.18053  0.92559  1.0000
  H   H1417     1.0  0.67709  0.17361  0.89305  1.0000
  H   H1418     1.0  0.90654  0.18798  0.97890  1.0000
  H   H1419     1.0  0.88980  0.23473  0.94888  1.0000
  C   C805      1.0  0.88563  0.31913  0.76367  1.0000
  Fe  Fe88      1.0  0.89589  0.35796  0.84424  1.0000
  S   S176      1.0  0.92530  0.34109  0.84326  1.0000
  S   S177      1.0  0.91411  0.40395  0.84457  1.0000
  Fe  Fe89      1.0  0.84813  0.30138  0.84269  1.0000
  S   S178      1.0  0.87389  0.28057  0.84153  1.0000
  S   S179      1.0  0.80286  0.28042  0.84449  1.0000
  Fe  Fe90      1.0  0.89965  0.31058  0.86555  1.0000
  S   S180      1.0  0.91108  0.30214  0.89700  1.0000
  Fe  Fe91      1.0  0.89730  0.31255  0.81933  1.0000
  S   S181      1.0  0.91308  0.30314  0.79073  1.0000
  S   S182      1.0  0.87215  0.32960  0.86794  1.0000
  S   S183      1.0  0.86968  0.33124  0.81901  1.0000
  Fe  Fe92      1.0  0.65664  0.07164  0.81420  1.0000
  S   S184      1.0  0.65961  0.11231  0.80973  1.0000
  S   S185      1.0  0.64290  0.03908  0.78977  1.0000
  Fe  Fe93      1.0  0.67766  0.08391  0.85836  1.0000
  S   S186      1.0  0.68145  0.12565  0.85653  1.0000
  S   S187      1.0  0.69906  0.07794  0.88621  1.0000
  Fe  Fe94      1.0  0.64122  0.10639  0.84009  1.0000
  S   S188      1.0  0.61151  0.12270  0.84591  1.0000
  Fe  Fe95      1.0  0.69913  0.12800  0.82657  1.0000
  S   S189      1.0  0.73974  0.15804  0.81573  1.0000
  S   S190      1.0  0.63596  0.06435  0.84388  1.0000
  S   S191      1.0  0.69732  0.08747  0.82898  1.0000
  C   C806      1.0  0.64911  0.04243  0.76373  1.0000
  H   H1420     1.0  0.94600  0.35719  0.90898  1.0000
  C   C807      1.0  0.89902  0.12168  0.99196  1.0000
  H   H1421     1.0  0.69679  0.18719  0.87135  1.0000
  H   H1422     1.0  0.66470  0.08546  0.76213  1.0000
  C   C808      1.0  0.90493  0.31035  0.76656  1.0000
  C   C809      1.0  0.52143  0.29539  0.84104  1.0000
  C   C810      1.0  0.72100  0.03966  0.92878  1.0000
  H   H1423     1.0  0.67788  0.00060  0.85986  1.0000
  H   H1424     1.0  0.87539  0.32169  0.77632  1.0000
  C   C811      1.0  0.78527  0.24662  0.83600  1.0000
  C   C812      1.0  0.79849  0.23395  0.82663  1.0000
  C   C813      1.0  0.78418  0.20681  0.82042  1.0000
  C   C814      1.0  0.75664  0.19205  0.82372  1.0000
  C   C815      1.0  0.74332  0.20469  0.83301  1.0000
  C   C816      1.0  0.75761  0.23199  0.83901  1.0000
  H   H1425     1.0  0.81970  0.24509  0.82401  1.0000
  H   H1426     1.0  0.79453  0.19717  0.81309  1.0000
  H   H1427     1.0  0.72201  0.19352  0.83537  1.0000
  H   H1428     1.0  0.74724  0.24177  0.84612  1.0000
  C   C817      1.0  0.93019  0.28713  0.90764  1.0000
  C   C818      1.0  0.94151  0.27431  0.89604  1.0000
  C   C819      1.0  0.95619  0.26253  0.90528  1.0000
  C   C820      1.0  0.95977  0.26329  0.92622  1.0000
  C   C821      1.0  0.94845  0.27612  0.93782  1.0000
  C   C822      1.0  0.93384  0.28797  0.92857  1.0000
  H   H1429     1.0  0.93897  0.27345  0.87995  1.0000
  H   H1430     1.0  0.76162  0.04551  0.88950  1.0000
  H   H1431     1.0  0.50248  0.34924  0.78012  1.0000
  H   H1432     1.0  0.58978  0.01051  0.76078  1.0000
  H   H1433     1.0  0.67735  0.02965  0.85002  1.0000
  H   H1434     1.0  0.61268  0.01804  0.94969  1.0000
  C   C823      1.0  0.70179  0.01262  0.92659  1.0000
  H   H1435     1.0  0.62143  0.00235  0.98455  1.0000
  C   C824      1.0  0.71953  0.05928  0.91651  1.0000
  C   C825      1.0  0.69886  0.05227  0.90188  1.0000
  C   C826      1.0  0.67925  0.02534  0.90003  1.0000
  H   H1436     1.0  0.90925  0.47698  0.80959  1.0000
  H   H1437     1.0  0.60198  0.08613  0.78286  1.0000
  H   H1438     1.0  0.79025  0.21288  0.86734  1.0000
  C   C827      1.0  0.67711  0.01025  0.84566  1.0000
  C   C828      1.0  0.51947  0.07732  0.85068  1.0000
  C   C829      1.0  0.53345  0.10538  0.85264  1.0000
  C   C830      1.0  0.56161  0.11886  0.85131  1.0000
  C   C831      1.0  0.57615  0.10451  0.84807  1.0000
  C   C832      1.0  0.56219  0.07643  0.84619  1.0000
  C   C833      1.0  0.53401  0.06295  0.84750  1.0000
  H   H1439     1.0  0.52260  0.11667  0.85535  1.0000
  H   H1440     1.0  0.57223  0.14056  0.85288  1.0000
  H   H1441     1.0  0.57309  0.06511  0.84377  1.0000
  H   H1442     1.0  0.52341  0.04123  0.84610  1.0000
  C   C834      1.0  0.87776  0.46100  0.85781  1.0000
  C   C835      1.0  0.86284  0.43325  0.86114  1.0000
  C   C836      1.0  0.87368  0.41549  0.85741  1.0000
  C   C837      1.0  0.89962  0.42533  0.85026  1.0000
  C   C838      1.0  0.91470  0.45313  0.84729  1.0000
  C   C839      1.0  0.90388  0.47089  0.85106  1.0000
  H   H1443     1.0  0.84263  0.42540  0.86644  1.0000
  H   H1444     1.0  0.86188  0.39419  0.85990  1.0000
  H   H1445     1.0  0.93479  0.46099  0.84178  1.0000
  H   H1446     1.0  0.96485  0.25272  0.89611  1.0000
  C   C840      1.0  0.55497  0.45379  0.86627  1.0000
  C   C841      1.0  0.56561  0.43819  0.85753  1.0000
  C   C842      1.0  0.54930  0.41039  0.85408  1.0000
  C   C843      1.0  0.52221  0.39789  0.85927  1.0000
  C   C844      1.0  0.51166  0.41333  0.86839  1.0000
  C   C845      1.0  0.52801  0.44115  0.87189  1.0000
  H   H1447     1.0  0.53050  0.33083  0.85850  1.0000
  H   H1448     1.0  0.55767  0.39860  0.84706  1.0000
  H   H1449     1.0  0.58404  0.48178  0.79861  1.0000
  H   H1450     1.0  0.49516  0.33607  0.92448  1.0000
  C   C846      1.0  0.55247  0.10488  0.79415  1.0000
  H   H1451     1.0  0.73723  0.04541  0.93974  1.0000
  H   H1452     1.0  0.54790  0.13252  0.76566  1.0000
  C   C847      1.0  0.95327  0.37175  0.89675  1.0000
  C   C848      1.0  0.87841  0.09568  0.98642  1.0000
  C   C849      1.0  0.56621  0.09171  0.78159  1.0000
  H   H1453     1.0  0.80416  0.45748  0.84356  1.0000
  C   C850      1.0  0.79482  0.45640  0.82857  1.0000
  H   H1454     1.0  0.64337  0.04968  0.95124  1.0000
  H   H1455     1.0  0.97648  0.48132  0.87177  1.0000
  H   H1456     1.0  0.56730  0.12655  0.79538  1.0000
  H   H1457     1.0  0.55051  0.09712  0.80958  1.0000
  S   S192      1.0  0.74569  0.02120  0.99124  1.0000
  C   C851      1.0  0.68082  0.00569  0.91222  1.0000
  H   H1458     1.0  0.79309  0.24597  0.89417  1.0000
  C   C852      1.0  0.75611  0.16200  0.87691  1.0000
  H   H1459     1.0  0.50708  0.06242  0.80036  1.0000
  H   H1460     1.0  0.55205  0.14666  0.81626  1.0000
  H   H1461     1.0  0.89595  0.17281  0.92309  1.0000
  H   H1462     1.0  0.95568  0.40671  0.87080  1.0000
  C   C853      1.0  0.85288  0.08495  0.99495  1.0000
  H   H1463     1.0  0.86493  0.35103  0.92836  1.0000
  H   H1464     1.0  0.87670  0.38567  0.92178  1.0000
  N   N44       1.0  0.88265  0.18030  0.95166  1.0000
  C   C854      1.0  0.72255  0.04540  0.80214  1.0000
  H   H1465     1.0  0.92210  0.41035  0.90740  1.0000
  C   C855      1.0  0.51260  0.34905  0.91547  1.0000
  C   C856      1.0  0.57564  0.01897  0.76285  1.0000
  H   H1466     1.0  0.97870  0.34014  0.90612  1.0000
  S   S193      1.0  0.86234  0.48208  0.86130  1.0000
  N   N45       1.0  0.85127  0.45142  0.79803  1.0000
  C   C857      1.0  0.86238  0.43198  0.80188  1.0000
  C   C858      1.0  0.63462  0.02788  0.94735  1.0000
  C   C859      1.0  0.82816  0.44442  0.81188  1.0000
  C   C860      1.0  0.84059  0.44894  0.77687  1.0000
  H   H1467     1.0  0.71680  0.17814  0.91230  1.0000
  C   C861      1.0  0.84329  0.40181  0.79704  1.0000
  C   C862      1.0  0.81577  0.46405  0.81245  1.0000
  N   N46       1.0  0.66041  0.01019  0.99706  1.0000
  H   H1468     1.0  0.68056  0.99722  0.97558  1.0000
  C   C863      1.0  0.86107  0.45492  0.76021  1.0000
  C   C864      1.0  0.85589  0.38418  0.80377  1.0000
  C   C865      1.0  0.92343  0.39175  0.90332  1.0000
  H   H1469     1.0  0.86911  0.43386  0.81782  1.0000
  H   H1470     1.0  0.88061  0.43694  0.79327  1.0000
  H   H1471     1.0  0.49046  0.44536  0.78770  1.0000
  N   N47       1.0  0.95237  0.39748  0.90226  1.0000
  H   H1472     1.0  0.83452  0.44287  0.82747  1.0000
  H   H1473     1.0  0.81119  0.42442  0.80786  1.0000
  H   H1474     1.0  0.82339  0.42859  0.77397  1.0000
  H   H1475     1.0  0.51161  0.27597  0.87832  1.0000
  H   H1476     1.0  0.77828  0.43574  0.82571  1.0000
  H   H1477     1.0  0.73713  0.03752  0.80043  1.0000
  H   H1478     1.0  0.82405  0.39444  0.80475  1.0000
  H   H1479     1.0  0.83901  0.39848  0.78071  1.0000
  H   H1480     1.0  0.50377  0.15747  0.80922  1.0000
  C   C866      1.0  0.89388  0.39597  0.75745  1.0000
  H   H1481     1.0  0.93229  0.15877  0.91691  1.0000
  H   H1482     1.0  0.53886  0.45253  0.78475  1.0000
  H   H1483     1.0  0.97387  0.45392  0.85595  1.0000
  C   C867      1.0  0.72559  0.03679  0.84437  1.0000
  H   H1484     1.0  0.62789  0.00811  0.85390  1.0000
  H   H1485     1.0  0.87374  0.14397  0.96770  1.0000
  H   H1486     1.0  0.71628  0.02105  0.87499  1.0000
  H   H1487     1.0  0.51313  0.12232  0.76499  1.0000
  H   H1488     1.0  0.98251  0.39284  0.96852  1.0000
  H   H1489     1.0  0.88944  0.37666  0.76461  1.0000
  H   H1490     1.0  0.52122  0.27557  0.84233  1.0000
  H   H1491     1.0  0.70431  0.03269  0.77217  1.0000
  C   C868      1.0  0.97959  0.46316  0.87122  1.0000
  C   C869      1.0  0.64243  0.01877  0.75263  1.0000
  N   N48       1.0  0.51690  0.30944  0.89798  1.0000
  C   C870      1.0  0.53025  0.31124  0.86089  1.0000
  H   H1492     1.0  0.96859  0.45308  0.90170  1.0000
  H   H1493     1.0  0.90720  0.24195  0.99510  1.0000
  C   C871      1.0  0.54539  0.31858  0.90528  1.0000
  C   C872      1.0  0.55462  0.29666  0.90713  1.0000
  H   H1494     1.0  0.92679  0.17026  0.96119  1.0000
  H   H1495     1.0  0.64566  0.00033  0.82189  1.0000
  H   H1496     1.0  0.86496  0.20937  0.97733  1.0000
  C   C873      1.0  0.58510  0.30924  0.90981  1.0000
  C   C874      1.0  0.96769  0.41047  0.92157  1.0000
  H   H1497     1.0  0.63799  0.02578  0.93127  1.0000
  H   H1498     1.0  0.84885  0.18846  0.94819  1.0000
  H   H1499     1.0  0.80562  0.46354  0.79797  1.0000
  H   H1500     1.0  0.86253  0.13127  0.92925  1.0000
  H   H1501     1.0  0.52926  0.34957  0.88680  1.0000
  H   H1502     1.0  0.55959  0.33464  0.89559  1.0000
  H   H1503     1.0  0.54884  0.32830  0.92036  1.0000
  H   H1504     1.0  0.54878  0.28303  0.89381  1.0000
  H   H1505     1.0  0.54599  0.28475  0.92061  1.0000
  H   H1506     1.0  0.54301  0.15650  0.79293  1.0000
  H   H1507     1.0  0.85707  0.38399  0.82033  1.0000
  H   H1508     1.0  0.90507  0.48234  0.78381  1.0000
  C   C875      1.0  0.53499  0.14487  0.80662  1.0000
  H   H1509     1.0  0.87643  0.39154  0.79809  1.0000
  C   C876      1.0  0.90599  0.37070  0.91852  1.0000
  H   H1510     1.0  0.59215  0.32289  0.92321  1.0000
  H   H1511     1.0  0.94126  0.43908  0.88346  1.0000
  H   H1512     1.0  0.79742  0.26895  0.77759  1.0000
  H   H1513     1.0  0.49026  0.29026  0.87266  1.0000
  H   H1514     1.0  0.72445  0.99422  0.80327  1.0000
  C   C877      1.0  0.59154  0.09440  0.79242  1.0000
  H   H1515     1.0  0.50535  0.25638  0.91140  1.0000
  Fe  Fe96      1.0  0.78419  0.01791  0.99144  1.0000
  H   H1516     1.0  0.51320  0.14752  0.83243  1.0000
  H   H1517     1.0  0.83211  0.27714  0.77482  1.0000
  C   C878      1.0  0.81112  0.26145  0.77177  1.0000
  H   H1518     1.0  0.51084  0.10376  0.81565  1.0000
  S   S194      1.0  0.50235  0.36327  0.85319  1.0000
  H   H1519     1.0  0.68502  0.03638  0.81461  1.0000
  H   H1520     1.0  0.63445  0.99973  0.76007  1.0000
  C   C879      1.0  0.50599  0.07158  0.78589  1.0000
  C   C880      1.0  0.51312  0.33429  0.89580  1.0000
  C   C881      1.0  0.90209  0.48764  0.79916  1.0000
  C   C882      1.0  0.49689  0.29144  0.91281  1.0000
  H   H1521     1.0  0.51565  0.45531  0.81683  1.0000
  C   C883      1.0  0.69714  0.02554  0.81311  1.0000
  C   C884      1.0  0.96227  0.44325  0.88669  1.0000
  H   H1522     1.0  0.51129  0.06056  0.77444  1.0000
  H   H1523     1.0  0.91379  0.37781  0.93393  1.0000
  H   H1524     1.0  0.91263  0.21725  0.96611  1.0000
  H   H1525     1.0  0.58641  0.08307  0.80650  1.0000
  H   H1526     1.0  0.87223  0.48463  0.81928  1.0000
  H   H1527     1.0  0.90362  0.14183  0.94631  1.0000
  H   H1528     1.0  0.66294  0.01964  0.88918  1.0000
  H   H1529     1.0  0.84333  0.36317  0.79817  1.0000
  H   H1530     1.0  0.74867  0.16421  0.91668  1.0000
  C   C885      1.0  0.87761  0.20169  0.98490  1.0000
  H   H1531     1.0  0.83220  0.46317  0.77459  1.0000
  H   H1532     1.0  0.90519  0.35085  0.91549  1.0000
  C   C886      1.0  0.84851  0.13176  0.94042  1.0000
  C   C887      1.0  0.98096  0.40672  0.95750  1.0000
  C   C888      1.0  0.64805  0.01475  0.95993  1.0000
  S   S195      1.0  0.96455  0.24350  0.99652  1.0000
  H   H1533     1.0  0.87268  0.44365  0.76207  1.0000
  H   H1534     1.0  0.81991  0.08954  0.93574  1.0000
  C   C889      1.0  0.51907  0.43770  0.81338  1.0000
  H   H1535     1.0  0.91331  0.38508  0.88829  1.0000
  H   H1536     1.0  0.60187  0.05884  0.75355  1.0000
  H   H1537     1.0  0.74381  0.04373  0.83539  1.0000
  H   H1538     1.0  0.80758  0.24307  0.77999  1.0000
  S   S196      1.0  0.82748  0.05199  0.98691  1.0000
  H   H1539     1.0  0.95045  0.15500  0.93812  1.0000
  H   H1540     1.0  0.80946  0.23285  0.91097  1.0000
  C   C890      1.0  0.51022  0.37452  0.91103  1.0000
  H   H1541     1.0  0.77467  0.05994  0.86574  1.0000
  C   C891      1.0  0.91797  0.16358  0.94595  1.0000
  H   H1542     1.0  0.98264  0.38302  0.93281  1.0000
  C   C892      1.0  0.96468  0.41681  0.88549  1.0000
  N   N49       1.0  0.70111  0.01555  0.83321  1.0000
  H   H1543     1.0  0.55100  0.31491  0.86452  1.0000
  H   H1544     1.0  0.49099  0.21276  0.75122  1.0000
  H   H1545     1.0  0.84648  0.09567  0.95355  1.0000
  H   H1546     1.0  0.92021  0.20116  0.93659  1.0000
  C   C893      1.0  0.49036  0.18097  0.76901  1.0000
  N   N50       1.0  0.76648  0.18691  0.89047  1.0000
  H   H1547     1.0  0.73272  0.06491  0.81060  1.0000
  H   H1548     1.0  0.84749  0.15260  0.96717  1.0000
  H   H1549     1.0  0.52798  0.38900  0.90293  1.0000
  H   H1550     1.0  0.74544  0.20434  0.87390  1.0000
  H   H1551     1.0  0.93900  0.36124  0.88403  1.0000
  H   H1552     1.0  0.69256  0.06048  0.97673  1.0000
  H   H1553     1.0  0.87594  0.25233  0.92027  1.0000
  H   H1554     1.0  0.84676  0.22701  0.93175  1.0000
  C   C894      1.0  0.56691  0.47411  0.80882  1.0000
  C   C895      1.0  0.76851  0.17994  0.91187  1.0000
  C   C896      1.0  0.73306  0.02839  0.86460  1.0000
  H   H1555     1.0  0.75457  0.11208  0.86886  1.0000
  C   C897      1.0  0.83260  0.10327  0.94806  1.0000
  C   C898      1.0  0.65941  0.06699  0.75373  1.0000
  H   H1556     1.0  0.55158  0.43333  0.79871  1.0000
  H   H1557     1.0  0.80877  0.18233  0.91163  1.0000
  H   H1558     1.0  0.74932  0.12552  0.84579  1.0000
  H   H1559     1.0  0.94961  0.37435  0.94057  1.0000
  H   H1560     1.0  0.85851  0.21934  0.90869  1.0000
  H   H1561     1.0  0.81941  0.10270  0.96035  1.0000
  H   H1562     1.0  0.78710  0.17019  0.85484  1.0000
  H   H1563     1.0  0.53512  0.17933  0.82190  1.0000
  S   S197      1.0  0.57428  0.48907  0.87006  1.0000
  H   H1564     1.0  0.51530  0.39776  0.78815  1.0000
  H   H1565     1.0  0.73477  0.08001  0.91819  1.0000
  C   C899      1.0  0.64309  0.01633  0.98261  1.0000
  C   C900      1.0  0.71533  0.05147  0.78136  1.0000
  C   C901      1.0  0.70341  0.05211  0.98592  1.0000
  H   H1566     1.0  0.86437  0.18256  0.99218  1.0000
  C   C902      1.0  0.87233  0.48003  0.80306  1.0000
  H   H1567     1.0  0.49035  0.33806  0.80491  1.0000
  C   C903      1.0  0.52795  0.11443  0.76650  1.0000
  H   H1568     1.0  0.84199  0.27423  0.89539  1.0000
  H   H1569     1.0  0.80263  0.15455  0.94176  1.0000
  H   H1570     1.0  0.83111  0.48498  0.81585  1.0000
  H   H1571     1.0  0.66955  0.02457  0.95644  1.0000
  H   H1572     1.0  0.92523  0.29782  0.93775  1.0000
  H   H1573     1.0  0.73387  0.06497  0.77361  1.0000
  C   C904      1.0  0.87719  0.36666  0.91767  1.0000
  C   C905      1.0  0.86341  0.15225  0.95782  1.0000
  H   H1574     1.0  0.87735  0.40087  0.76056  1.0000
  H   H1575     1.0  0.82981  0.25968  0.87087  1.0000
  C   C906      1.0  0.90405  0.18021  0.93849  1.0000
  H   H1576     1.0  0.90024  0.22564  0.92599  1.0000
  H   H1577     1.0  0.59505  0.32075  0.89642  1.0000
  C   C907      1.0  0.86476  0.23052  0.92324  1.0000
  H   H1578     1.0  0.50913  0.38438  0.92522  1.0000
  C   C908      1.0  0.86709  0.19163  0.94014  1.0000
  H   H1579     1.0  0.70295  0.20818  0.89361  1.0000
  H   H1580     1.0  0.53558  0.30688  0.82929  1.0000
  H   H1581     1.0  0.59111  0.29313  0.91179  1.0000
  C   C909      1.0  0.88269  0.22180  0.93514  1.0000
  H   H1582     1.0  0.83406  0.13704  0.93267  1.0000
  H   H1583     1.0  0.49667  0.11405  0.79577  1.0000
  H   H1584     1.0  0.49060  0.16139  0.76726  1.0000
  H   H1585     1.0  0.50859  0.19493  0.77784  1.0000
  H   H1586     1.0  0.95565  0.18802  0.93147  1.0000
  C   C910      1.0  0.94044  0.16656  0.93221  1.0000
  H   H1587     1.0  0.70936  0.03989  0.97611  1.0000
  H   H1588     1.0  0.84689  0.24640  0.88659  1.0000
  H   H1589     1.0  0.74599  0.00727  0.82537  1.0000
  H   H1590     1.0  0.57249  0.10207  0.76721  1.0000
  S   S198      1.0  0.98226  0.20018  0.97680  1.0000
  H   H1591     1.0  0.95102  0.27699  0.95391  1.0000
  C   C911      1.0  0.80581  0.23572  0.89507  1.0000
  H   H1592     1.0  0.60561  0.11586  0.79606  1.0000
  C   C912      1.0  0.51112  0.29546  0.87771  1.0000
  H   H1593     1.0  0.53116  0.35518  0.92470  1.0000
  C   C913      1.0  0.69746  0.18752  0.88795  1.0000
  C   C914      1.0  0.72898  0.07612  0.99414  1.0000
  C   C915      1.0  0.74649  0.19779  0.88933  1.0000
  H   H1594     1.0  0.76958  0.15115  0.94452  1.0000
  H   H1595     1.0  0.50929  0.38720  0.81328  1.0000
  H   H1596     1.0  0.57772  0.02628  0.77860  1.0000
  H   H1597     1.0  0.74222  0.14380  0.88505  1.0000
  C   C916      1.0  0.79287  0.20848  0.88319  1.0000
  C   C917      1.0  0.54388  0.44825  0.79994  1.0000
  H   H1598     1.0  0.72300  0.05508  0.84719  1.0000
  C   C918      1.0  0.52081  0.15800  0.81821  1.0000
  C   C919      1.0  0.71759  0.17842  0.89574  1.0000
  C   C920      1.0  0.83276  0.25507  0.88647  1.0000
  H   H1599     1.0  0.75146  0.06851  0.87848  1.0000
  H   H1600     1.0  0.91849  0.12929  0.98538  1.0000
  H   H1601     1.0  0.79856  0.18402  0.94723  1.0000
  H   H1602     1.0  0.86801  0.35994  0.90249  1.0000
  H   H1603     1.0  0.80832  0.20151  0.88303  1.0000
  S   S199      1.0  0.97837  0.24782  0.93695  1.0000
  H   H1604     1.0  0.58637  0.44762  0.85330  1.0000
  C   C921      1.0  0.77730  0.15568  0.86689  1.0000
  H   H1605     1.0  0.50442  0.29865  0.92837  1.0000
  H   H1606     1.0  0.68496  0.00827  0.80268  1.0000
  H   H1607     1.0  0.75289  0.21601  0.89907  1.0000
  H   H1608     1.0  0.55296  0.06996  0.77876  1.0000
  C   C922      1.0  0.76442  0.12744  0.85740  1.0000
  H   H1609     1.0  0.78109  0.14862  0.90894  1.0000
  C   C923      1.0  0.78828  0.16861  0.91647  1.0000
  C   C924      1.0  0.78984  0.16442  0.93887  1.0000
  H   H1610     1.0  0.77342  0.19759  0.92200  1.0000
  H   H1611     1.0  0.77996  0.12360  0.85022  1.0000
  H   H1612     1.0  0.79313  0.15707  0.87759  1.0000
  C   C925      1.0  0.89622  0.19726  0.97015  1.0000
  H   H1613     1.0  0.74375  0.16343  0.86418  1.0000
  H   H1614     1.0  0.71080  0.15752  0.89033  1.0000
  H   H1615     1.0  0.73895  0.01225  0.86224  1.0000
  H   H1616     1.0  0.95928  0.42292  0.92861  1.0000
  C   C926      1.0  0.50010  0.39175  0.79991  1.0000
  N   N51       1.0  0.52558  0.10124  0.78644  1.0000
  C   C927      1.0  0.51573  0.11482  0.80140  1.0000
  H   H1617     1.0  0.91297  0.41187  0.76417  1.0000
  H   H1618     1.0  0.74181  0.08705  0.98158  1.0000
  H   H1619     1.0  0.64511  0.03666  0.98614  1.0000
  H   H1620     1.0  0.50110  0.29218  0.83637  1.0000
  H   H1621     1.0  0.91566  0.49218  0.84856  1.0000
  H   H1622     1.0  0.87504  0.47683  0.76023  1.0000
  H   H1623     1.0  0.78626  0.47070  0.82866  1.0000
  H   H1624     1.0  0.98646  0.42292  0.88470  1.0000
  H   H1625     1.0  0.52503  0.43227  0.82783  1.0000
  H   H1626     1.0  0.49088  0.40395  0.87256  1.0000
  H   H1627     1.0  0.70273  0.06185  0.78257  1.0000
  H   H1628     1.0  0.57397  0.47023  0.82341  1.0000
  H   H1629     1.0  0.56681  0.04931  0.75106  1.0000
  C   C928      1.0  0.98217  0.34843  0.89087  1.0000
  N   N52       1.0  0.49363  0.41439  0.80495  1.0000
  H   H1630     1.0  0.93281  0.30008  0.75192  1.0000
  H   H1631     1.0  0.49401  0.32913  0.88741  1.0000
  H   H1632     1.0  0.88233  0.08367  0.97550  1.0000
  H   H1633     1.0  0.49180  0.36956  0.90182  1.0000
  H   H1634     1.0  0.96775  0.41467  0.96359  1.0000
  C   C929      1.0  0.96934  0.39152  0.93767  1.0000
  H   H1635     1.0  0.49508  0.42135  0.77321  1.0000
  H   H1636     1.0  0.98525  0.38266  0.87518  1.0000
  H   H1637     1.0  0.55483  0.00278  0.76004  1.0000
  H   H1638     1.0  0.56063  0.48998  0.81112  1.0000
  H   H1639     1.0  0.96677  0.33362  0.88029  1.0000
  Fe  Fe97      1.0  0.98664  0.24120  0.96969  1.0000
  C   C930      1.0  0.98110  0.37513  0.89064  1.0000
  H   H1640     1.0  0.82649  0.23077  0.75084  1.0000
  C   C931      1.0  0.91788  0.30693  0.74983  1.0000
  C   C932      1.0  0.90097  0.74518  0.01291  1.0000
  H   H1641     1.0  0.60629  0.78977  0.14142  1.0000
  S   S200      1.0  0.76494  0.76924  0.01434  1.0000
  H   H1642     1.0  0.56783  0.71408  0.09588  1.0000
  N   N53       1.0  0.63753  0.64490  0.00219  1.0000
  H   H1643     1.0  0.56338  0.96149  0.18606  1.0000
  Fe  Fe98      1.0  0.73062  0.72822  0.02065  1.0000
  S   S201      1.0  0.70878  0.72588  0.05005  1.0000
  Fe  Fe99      1.0  0.53613  0.89261  0.13544  1.0000
  S   S202      1.0  0.58055  0.92160  0.13804  1.0000
  Fe  Fe100     1.0  0.97096  0.74804  0.01174  1.0000
  Fe  Fe101     1.0  0.54573  0.84384  0.14126  1.0000
  S   S203      1.0  0.59028  0.86910  0.14402  1.0000
  S   S204      1.0  0.52405  0.79883  0.14632  1.0000
  Fe  Fe102     1.0  0.58070  0.89605  0.16387  1.0000
  S   S205      1.0  0.60294  0.90986  0.19406  1.0000
  Fe  Fe103     1.0  0.58640  0.89220  0.11781  1.0000
  S   S206      1.0  0.61153  0.89683  0.08968  1.0000
  S   S207      1.0  0.53640  0.86955  0.16244  1.0000
  S   S208      1.0  0.54170  0.86462  0.11386  1.0000
  Fe  Fe104     1.0  0.57900  0.64675  0.17282  1.0000
  S   S209      1.0  0.54728  0.66023  0.17052  1.0000
  S   S210      1.0  0.59715  0.64163  0.20218  1.0000
  Fe  Fe105     1.0  0.58736  0.64924  0.12685  1.0000
  S   S211      1.0  0.55549  0.66217  0.12169  1.0000
  S   S212      1.0  0.61095  0.64287  0.10134  1.0000
  Fe  Fe106     1.0  0.57405  0.68978  0.14850  1.0000
  S   S213      1.0  0.59196  0.73515  0.14901  1.0000
  Fe  Fe107     1.0  0.53120  0.63080  0.14415  1.0000
  H   H1644     1.0  0.66226  0.62018  0.02747  1.0000
  S   S214      1.0  0.60700  0.67832  0.15250  1.0000
  S   S215      1.0  0.56182  0.61579  0.14754  1.0000
  H   H1645     1.0  0.61274  0.63512  0.24219  1.0000
  H   H1646     1.0  0.62118  0.61435  0.02453  1.0000
  H   H1647     1.0  0.50004  0.56601  0.08026  1.0000
  H   H1648     1.0  0.76003  0.84226  0.07190  1.0000
  H   H1649     1.0  0.60245  0.77106  0.08046  1.0000
  C   C933      1.0  0.58343  0.64223  0.22573  1.0000
  C   C934      1.0  0.85328  0.73405  0.01477  1.0000
  C   C935      1.0  0.56110  0.64672  0.22735  1.0000
  C   C936      1.0  0.87481  0.72844  0.01930  1.0000
  H   H1650     1.0  0.55146  0.64926  0.21403  1.0000
  C   C937      1.0  0.58754  0.90139  0.21763  1.0000
  H   H1651     1.0  0.51075  0.71770  0.11806  1.0000
  C   C938      1.0  0.55996  0.89200  0.21958  1.0000
  H   H1652     1.0  0.66448  0.71215  0.15860  1.0000
  H   H1653     1.0  0.54740  0.88923  0.20646  1.0000
  C   C939      1.0  0.63736  0.92332  0.07617  1.0000
  C   C940      1.0  0.64561  0.91684  0.05804  1.0000
  C   C941      1.0  0.66646  0.93668  0.04706  1.0000
  C   C942      1.0  0.67936  0.96349  0.05390  1.0000
  H   H1654     1.0  0.76832  0.97054  0.05900  1.0000
  C   C943      1.0  0.65007  0.95024  0.08291  1.0000
  H   H1655     1.0  0.63566  0.89628  0.05239  1.0000
  H   H1656     1.0  0.67234  0.93140  0.03314  1.0000
  H   H1657     1.0  0.54075  0.75773  0.10795  1.0000
  H   H1658     1.0  0.64408  0.95574  0.09675  1.0000
  C   C944      1.0  0.54305  0.78127  0.14758  1.0000
  C   C945      1.0  0.53067  0.75407  0.15273  1.0000
  C   C946      1.0  0.54550  0.73967  0.15373  1.0000
  C   C947      1.0  0.57277  0.75249  0.14953  1.0000
  C   C948      1.0  0.58519  0.77975  0.14471  1.0000
  C   C949      1.0  0.57036  0.79403  0.14359  1.0000
  H   H1659     1.0  0.58831  0.72580  0.19688  1.0000
  H   H1660     1.0  0.53580  0.71863  0.15748  1.0000
  H   H1661     1.0  0.71875  0.90481  0.08094  1.0000
  H   H1662     1.0  0.58007  0.81483  0.13942  1.0000
  C   C950      1.0  0.66851  0.74734  0.14380  1.0000
  H   H1663     1.0  0.56810  0.75294  0.05699  1.0000
  C   C951      1.0  0.62171  0.63381  0.02072  1.0000
  H   H1664     1.0  0.64045  0.76263  0.09135  1.0000
  H   H1665     1.0  0.69242  0.85632  0.08321  1.0000
  H   H1666     1.0  0.67265  0.88909  0.03366  1.0000
  H   H1667     1.0  0.62224  0.75769  0.22194  1.0000
  C   C952      1.0  0.68021  0.70206  0.06284  1.0000
  C   C953      1.0  0.67214  0.67440  0.06214  1.0000
  C   C954      1.0  0.65066  0.65662  0.07373  1.0000
  C   C955      1.0  0.63701  0.66615  0.08631  1.0000
  C   C956      1.0  0.64487  0.69374  0.08687  1.0000
  C   C957      1.0  0.66645  0.71155  0.07538  1.0000
  H   H1668     1.0  0.68308  0.66678  0.05328  1.0000
  H   H1669     1.0  0.64497  0.63535  0.07328  1.0000
  H   H1670     1.0  0.63463  0.70141  0.09646  1.0000
  H   H1671     1.0  0.67266  0.73290  0.07632  1.0000
  H   H1672     1.0  0.81976  0.86158  0.02889  1.0000
  H   H1673     1.0  0.68914  0.85243  0.02946  1.0000
  H   H1674     1.0  0.57262  0.74289  0.11000  1.0000
  H   H1675     1.0  0.76093  0.83180  0.00788  1.0000
  C   C958      1.0  0.52212  0.70905  0.08866  1.0000
  S   S216      1.0  0.75307  0.70681  0.00840  1.0000
  H   H1676     1.0  0.62138  0.62438  0.14193  1.0000
  H   H1677     1.0  0.59703  0.69984  0.20426  1.0000
  N   N54       1.0  0.69570  0.69530  0.13636  1.0000
  C   C959      1.0  0.70508  0.68860  0.11710  1.0000
  C   C960      1.0  0.66929  0.67200  0.14212  1.0000
  C   C961      1.0  0.69085  0.71921  0.13268  1.0000
  C   C962      1.0  0.71638  0.70293  0.15314  1.0000
  C   C963      1.0  0.72614  0.68206  0.15821  1.0000
  C   C964      1.0  0.73086  0.71127  0.10835  1.0000
  C   C965      1.0  0.68025  0.72900  0.15062  1.0000
  C   C966      1.0  0.66425  0.64308  0.13638  1.0000
  C   C967      1.0  0.63925  0.62194  0.14628  1.0000
  C   C968      1.0  0.74890  0.69340  0.17401  1.0000
  C   C969      1.0  0.74101  0.70050  0.09122  1.0000
  H   H1678     1.0  0.68897  0.68264  0.10534  1.0000
  H   H1679     1.0  0.70846  0.67076  0.11862  1.0000
  H   H1680     1.0  0.66640  0.67268  0.15849  1.0000
  H   H1681     1.0  0.65213  0.67364  0.13487  1.0000
  H   H1682     1.0  0.67657  0.71466  0.11976  1.0000
  H   H1683     1.0  0.70958  0.73705  0.12843  1.0000
  H   H1684     1.0  0.73418  0.72244  0.15019  1.0000
  H   H1685     1.0  0.70832  0.70666  0.16722  1.0000
  H   H1686     1.0  0.73383  0.67615  0.14495  1.0000
  H   H1687     1.0  0.70957  0.66397  0.16453  1.0000
  H   H1688     1.0  0.72668  0.72725  0.10217  1.0000
  H   H1689     1.0  0.74732  0.72038  0.11978  1.0000
  H   H1690     1.0  0.69696  0.74061  0.16154  1.0000
  H   H1691     1.0  0.66088  0.63967  0.11995  1.0000
  H   H1692     1.0  0.68130  0.63943  0.14074  1.0000
  H   H1693     1.0  0.63552  0.60148  0.14141  1.0000
  H   H1694     1.0  0.64189  0.62368  0.16282  1.0000
  H   H1695     1.0  0.74219  0.69913  0.18794  1.0000
  H   H1696     1.0  0.75524  0.67789  0.17765  1.0000
  H   H1697     1.0  0.76650  0.71129  0.16838  1.0000
  H   H1698     1.0  0.75869  0.71735  0.08465  1.0000
  H   H1699     1.0  0.74710  0.68547  0.09667  1.0000
  H   H1700     1.0  0.72528  0.69106  0.07925  1.0000
  H   H1701     1.0  0.65087  0.73613  0.13354  1.0000
  N   N55       1.0  0.54591  0.80348  0.21166  1.0000
  C   C970      1.0  0.52836  0.77361  0.20822  1.0000
  C   C971      1.0  0.57099  0.81147  0.19987  1.0000
  H   H1702     1.0  0.50420  0.71947  0.21973  1.0000
  H   H1703     1.0  0.55091  0.75625  0.02356  1.0000
  C   C972      1.0  0.54132  0.75515  0.21288  1.0000
  H   H1704     1.0  0.76145  0.92511  0.06466  1.0000
  H   H1705     1.0  0.70199  0.91122  0.06086  1.0000
  C   C973      1.0  0.76029  0.86970  0.00349  1.0000
  H   H1706     1.0  0.58817  0.76880  0.24851  1.0000
  C   C974      1.0  0.67160  0.62812  0.01300  1.0000
  H   H1707     1.0  0.58390  0.80348  0.20679  1.0000
  C   C975      1.0  0.54473  0.94241  0.18298  1.0000
  H   H1708     1.0  0.52743  0.87986  0.24000  1.0000
  C   C976      1.0  0.68991  0.89103  0.02509  1.0000
  H   H1709     1.0  0.54939  0.80717  0.10716  1.0000
  H   H1710     1.0  0.55833  0.75937  0.20299  1.0000
  C   C977      1.0  0.60348  0.90461  0.23491  1.0000
  C   C978      1.0  0.75250  0.83839  0.05613  1.0000
  H   H1711     1.0  0.59520  0.85312  0.21198  1.0000
  H   H1712     1.0  0.64878  0.84534  0.09806  1.0000
  H   H1713     1.0  0.48965  0.94244  0.22494  1.0000
  H   H1714     1.0  0.82730  0.83697  0.04051  1.0000
  C   C979      1.0  0.62108  0.75338  0.09908  1.0000
  H   H1715     1.0  0.66346  0.69939  0.01872  1.0000
  C   C980      1.0  0.59198  0.62806  0.01958  1.0000
  H   H1716     1.0  0.55782  0.61546  0.03881  1.0000
  H   H1717     1.0  0.98260  0.66530  0.01054  1.0000
  H   H1718     1.0  0.50358  0.70863  0.08223  1.0000
  H   H1719     1.0  0.74638  0.92588  0.04091  1.0000
  H   H1720     1.0  0.79575  0.82628  0.02728  1.0000
  H   H1721     1.0  0.71954  0.83620  0.03807  1.0000
  H   H1722     1.0  0.57003  0.78883  0.07103  1.0000
  H   H1723     1.0  0.62485  0.91194  0.23360  1.0000
  H   H1724     1.0  0.58988  0.64588  0.01497  1.0000
  H   H1725     1.0  0.54847  0.75786  0.22867  1.0000
  C   C981      1.0  0.60454  0.72193  0.20325  1.0000
  H   H1726     1.0  0.73916  0.87442  0.07555  1.0000
  H   H1727     1.0  0.63180  0.64741  0.03381  1.0000
  C   C982      1.0  0.83022  0.83771  0.00825  1.0000
  C   C983      1.0  0.57917  0.61986  0.03994  1.0000
  H   H1728     1.0  0.62709  0.84042  0.19602  1.0000
  H   H1729     1.0  0.72093  0.87943  0.02508  1.0000
  C   C984      1.0  0.61408  0.73570  0.22384  1.0000
  H   H1730     1.0  0.49958  0.84322  0.21222  1.0000
  H   H1731     1.0  0.76840  0.85254  0.04644  1.0000
  H   H1732     1.0  0.53403  0.65164  0.24729  1.0000
  H   H1733     1.0  0.62883  0.68451  0.02485  1.0000
  C   C985      1.0  0.72697  0.84145  0.05381  1.0000
  H   H1734     1.0  0.65036  0.85676  0.05329  1.0000
  H   H1735     1.0  0.58035  0.61131  0.00872  1.0000
  H   H1736     1.0  0.87121  0.71107  0.02803  1.0000
  H   H1737     1.0  0.54070  0.83925  0.21074  1.0000
  C   C986      1.0  0.61494  0.84737  0.18688  1.0000
  H   H1738     1.0  0.64638  0.73204  0.01614  1.0000
  C   C987      1.0  0.53215  0.80481  0.24843  1.0000
  N   N56       1.0  0.54659  0.73500  0.08390  1.0000
  H   H1739     1.0  0.50294  0.96081  0.07870  1.0000
  H   H1740     1.0  0.57878  0.85092  0.18825  1.0000
  C   C988      1.0  0.55451  0.81074  0.23335  1.0000
  C   C989      1.0  0.55120  0.64796  0.24625  1.0000
  H   H1741     1.0  0.58004  0.60154  0.04510  1.0000
  H   H1742     1.0  0.58967  0.63638  0.05125  1.0000
  H   H1743     1.0  0.74988  0.88411  0.05078  1.0000
  H   H1744     1.0  0.57451  0.72840  0.23144  1.0000
  H   H1745     1.0  0.58247  0.79172  0.09653  1.0000
  S   S217      1.0  0.50660  0.90977  0.13181  1.0000
  H   H1746     1.0  0.62219  0.84498  0.08255  1.0000
  H   H1747     1.0  0.53431  0.82161  0.18747  1.0000
  C   C990      1.0  0.56443  0.78679  0.08689  1.0000
  H   H1748     1.0  0.73295  0.95887  0.05473  1.0000
  H   H1749     1.0  0.50740  0.71654  0.05049  1.0000
  H   H1750     1.0  0.82848  0.81719  0.00792  1.0000
  H   H1751     1.0  0.71056  0.65354  0.02750  1.0000
  H   H1752     1.0  0.53101  0.71268  0.21203  1.0000
  C   C991      1.0  0.71739  0.90467  0.06430  1.0000
  C   C992      1.0  0.81739  0.84085  0.02735  1.0000
  H   H1753     1.0  0.62617  0.98015  0.01206  1.0000
  S   S218      1.0  0.92734  0.73712  0.01966  1.0000
  C   C993      1.0  0.74460  0.92706  0.05731  1.0000
  H   H1754     1.0  0.49791  0.56056  0.14660  1.0000
  H   H1755     1.0  0.54813  0.92559  0.18833  1.0000
  H   H1756     1.0  0.67504  0.66733  0.01878  1.0000
  H   H1757     1.0  0.50949  0.74405  0.15579  1.0000
  H   H1758     1.0  0.93759  0.64884  0.02436  1.0000
  H   H1759     1.0  0.74811  0.81756  0.05169  1.0000
  C   C994      1.0  0.53156  0.81869  0.20386  1.0000
  H   H1760     1.0  0.51560  0.73694  0.01763  1.0000
  H   H1761     1.0  0.66537  0.88155  0.07348  1.0000
  H   H1762     1.0  0.62145  0.72983  0.19284  1.0000
  H   H1763     1.0  0.61024  0.83696  0.17202  1.0000
  C   C995      1.0  0.74803  0.95497  0.06297  1.0000
  H   H1764     1.0  0.85176  0.85245  0.00948  1.0000
  H   H1765     1.0  0.62261  0.76640  0.11221  1.0000
  H   H1766     1.0  0.70463  0.61995  0.02091  1.0000
  S   S219      1.0  0.76989  0.98719  0.01576  1.0000
  H   H1767     1.0  0.61744  0.73335  0.10442  1.0000
  C   C996      1.0  0.54866  0.88662  0.23861  1.0000
  N   N57       1.0  0.70916  0.87669  0.05594  1.0000
  H   H1768     1.0  0.74576  0.95677  0.07928  1.0000
  C   C997      1.0  0.68576  0.85668  0.06747  1.0000
  H   H1769     1.0  0.68044  0.99080  0.07728  1.0000
  C   C998      1.0  0.64015  0.84162  0.08258  1.0000
  H   H1770     1.0  0.56810  0.83269  0.23523  1.0000
  H   H1771     1.0  0.51308  0.72181  0.19373  1.0000
  H   H1772     1.0  0.53797  0.80488  0.08149  1.0000
  C   C999      1.0  0.58920  0.84209  0.19741  1.0000
  H   H1773     1.0  0.68376  0.76507  0.13609  1.0000
  H   H1774     1.0  0.66166  0.75452  0.15694  1.0000
  H   H1775     1.0  0.71203  0.82654  0.06369  1.0000
  Fe  Fe108     1.0  0.73003  0.98767  0.01358  1.0000
  H   H1776     1.0  0.77096  0.87865  0.01742  1.0000
  H   H1777     1.0  0.55208  0.71746  0.05663  1.0000
  H   H1778     1.0  0.62706  0.86934  0.18467  1.0000
  C   C1000     1.0  0.67080  0.97013  0.07181  1.0000
  H   H1779     1.0  0.63381  0.82041  0.07795  1.0000
  H   H1780     1.0  0.70493  0.91263  0.02531  1.0000
  H   H1781     1.0  0.53453  0.70465  0.11949  1.0000
  H   H1782     1.0  0.56663  0.80093  0.23849  1.0000
  C   C1001     1.0  0.54228  0.75815  0.09143  1.0000
  C   C1002     1.0  0.66051  0.86096  0.06821  1.0000
  C   C1003     1.0  0.73232  0.87049  0.05954  1.0000
  H   H1783     1.0  0.56560  0.80239  0.18453  1.0000
  H   H1784     1.0  0.67851  0.83597  0.06114  1.0000
  C   C1004     1.0  0.70255  0.87388  0.03375  1.0000
  C   C1005     1.0  0.59551  0.63868  0.24328  1.0000
  C   C1006     1.0  0.59071  0.72515  0.23859  1.0000
  H   H1785     1.0  0.63054  0.73153  0.22913  1.0000
  H   H1786     1.0  0.52129  0.76962  0.19225  1.0000
  C   C1007     1.0  0.64289  0.69209  0.01239  1.0000
  H   H1787     1.0  0.57190  0.82844  0.08891  1.0000
  H   H1788     1.0  0.88412  0.65855  0.01336  1.0000
  C   C1008     1.0  0.66644  0.65184  0.00660  1.0000
  H   H1789     1.0  0.51936  0.96060  0.18761  1.0000
  C   C1009     1.0  0.70156  0.63714  0.01595  1.0000
  H   H1790     1.0  0.63653  0.94492  0.01286  1.0000
  H   H1791     1.0  0.83346  0.72107  0.02003  1.0000
  H   H1792     1.0  0.52692  0.94703  0.20971  1.0000
  H   H1793     1.0  0.58234  0.70291  0.23911  1.0000
  C   C1010     1.0  0.59838  0.75061  0.08479  1.0000
  H   H1794     1.0  0.54084  0.94003  0.16657  1.0000
  C   C1011     1.0  0.52133  0.94326  0.19357  1.0000
  H   H1795     1.0  0.59915  0.73946  0.07117  1.0000
  C   C1012     1.0  0.57066  0.73502  0.09444  1.0000
  H   H1796     1.0  0.49888  0.65947  0.10798  1.0000
  H   H1797     1.0  0.52355  0.69159  0.08171  1.0000
  C   C1013     1.0  0.68026  0.88275  0.00341  1.0000
  C   C1014     1.0  0.55528  0.80799  0.09140  1.0000
  H   H1798     1.0  0.49067  0.78833  0.19520  1.0000
  S   S220      1.0  0.70555  0.98945  0.04034  1.0000
  C   C1015     1.0  0.54959  0.73523  0.06153  1.0000
  C   C1016     1.0  0.93986  0.64021  0.00993  1.0000
  H   H1799     1.0  0.66352  0.61147  0.00166  1.0000
  C   C1017     1.0  0.50065  0.80541  0.20616  1.0000
  C   C1018     1.0  0.64084  0.71635  0.00414  1.0000
  H   H1800     1.0  0.49440  0.79738  0.22118  1.0000
  C   C1019     1.0  0.51670  0.70326  0.11118  1.0000
  H   H1801     1.0  0.92497  0.61856  0.00895  1.0000
  C   C1020     1.0  0.96836  0.64364  0.00883  1.0000
  C   C1021     1.0  0.85766  0.75688  0.00403  1.0000
  H   H1802     1.0  0.52259  0.75596  0.08588  1.0000
  H   H1803     1.0  0.49122  0.91306  0.17369  1.0000
  C   C1022     1.0  0.52110  0.72552  0.20939  1.0000
  H   H1804     1.0  0.50991  0.76619  0.21699  1.0000
  H   H1805     1.0  0.49277  0.83152  0.18634  1.0000
  H   H1806     1.0  0.97153  0.63309  0.02174  1.0000
  H   H1807     1.0  0.66490  0.86129  0.00225  1.0000
  H   H1808     1.0  0.71206  0.64428  0.00173  1.0000
  H   H1809     1.0  0.50109  0.90195  0.22749  1.0000
  S   S221      1.0  0.97547  0.71141  0.00293  1.0000
  H   H1810     1.0  0.53560  0.71987  0.02144  1.0000
  C   C1023     1.0  0.53262  0.73720  0.02650  1.0000
  H   H1811     1.0  0.49967  0.90031  0.19499  1.0000
  C   C1024     1.0  0.52637  0.73531  0.04870  1.0000
  H   H1812     1.0  0.52312  0.75278  0.05277  1.0000
  C   C1025     1.0  0.90519  0.76755  0.00162  1.0000
  C   C1026     1.0  0.49504  0.91653  0.19010  1.0000
  H   H1813     1.0  0.51634  0.78360  0.24725  1.0000
  H   H1814     1.0  0.52320  0.81852  0.24595  1.0000
  H   H1815     1.0  0.59841  0.98565  0.03737  1.0000
  C   C1027     1.0  0.49382  0.67499  0.11413  1.0000
  H   H1816     1.0  0.65693  0.99233  0.02607  1.0000
  H   H1817     1.0  0.62624  0.99183  0.05434  1.0000
  H   H1818     1.0  0.49039  0.67147  0.13035  1.0000
  C   C1028     1.0  0.48968  0.82522  0.20211  1.0000
  H   H1819     1.0  0.78989  0.75809  0.41714  1.0000
  Fe  Fe109     1.0  0.72201  0.71280  0.48095  1.0000
  S   S222      1.0  0.68483  0.68507  0.46155  1.0000
  N   N58       1.0  0.74756  0.66607  0.43517  1.0000
  H   H1820     1.0  0.81259  0.89990  0.49020  1.0000
  S   S223      1.0  0.75851  0.75049  0.47261  1.0000
  H   H1821     1.0  0.68184  0.78854  0.44079  1.0000
  H   H1822     1.0  0.73445  0.68858  0.41568  1.0000
  C   C1029     1.0  0.63142  0.98674  0.37942  1.0000
  H   H1823     1.0  0.80084  0.96111  0.44400  1.0000
  Fe  Fe110     1.0  0.56413  0.88019  0.31059  1.0000
  S   S224      1.0  0.53421  0.84055  0.32240  1.0000
  S   S225      1.0  0.54942  0.88512  0.27950  1.0000
  Fe  Fe111     1.0  0.59746  0.89494  0.35097  1.0000
  S   S226      1.0  0.56882  0.85616  0.36484  1.0000
  S   S227      1.0  0.63765  0.92569  0.36592  1.0000
  Fe  Fe112     1.0  0.56930  0.83694  0.33524  1.0000
  S   S228      1.0  0.57661  0.80149  0.32761  1.0000
  Fe  Fe113     1.0  0.53609  0.86370  0.35045  1.0000
  C   C1030     1.0  0.62019  0.70845  0.26927  1.0000
  S   S229      1.0  0.59944  0.87521  0.32177  1.0000
  S   S230      1.0  0.56463  0.90384  0.33844  1.0000
  Fe  Fe114     1.0  0.53716  0.60598  0.35451  1.0000
  S   S231      1.0  0.57511  0.61941  0.33710  1.0000
  H   H1824     1.0  0.78842  0.67464  0.49180  1.0000
  Fe  Fe115     1.0  0.54375  0.66297  0.35797  1.0000
  S   S232      1.0  0.58118  0.67982  0.34052  1.0000
  S   S233      1.0  0.52743  0.68980  0.37074  1.0000
  Fe  Fe116     1.0  0.55969  0.64393  0.31981  1.0000
  S   S234      1.0  0.55108  0.64876  0.28708  1.0000
  Fe  Fe117     1.0  0.59340  0.65446  0.35969  1.0000
  S   S235      1.0  0.63636  0.67894  0.37290  1.0000
  S   S236      1.0  0.52116  0.62868  0.33633  1.0000
  S   S237      1.0  0.55656  0.63909  0.37808  1.0000
  Fe  Fe118     1.0  0.76901  0.96323  0.49487  1.0000
  C   C1031     1.0  0.56017  0.77028  0.33924  1.0000
  C   C1032     1.0  0.54658  0.76695  0.35708  1.0000
  C   C1033     1.0  0.53589  0.74196  0.36657  1.0000
  C   C1034     1.0  0.53829  0.72022  0.35800  1.0000
  C   C1035     1.0  0.55063  0.72336  0.33967  1.0000
  C   C1036     1.0  0.56208  0.74842  0.33063  1.0000
  H   H1825     1.0  0.54487  0.78373  0.36378  1.0000
  H   H1826     1.0  0.52608  0.73961  0.38066  1.0000
  H   H1827     1.0  0.55150  0.70651  0.33246  1.0000
  H   H1828     1.0  0.57247  0.75088  0.31686  1.0000
  C   C1037     1.0  0.67486  0.94425  0.43039  1.0000
  C   C1038     1.0  0.78632  0.65761  0.48201  1.0000
  C   C1039     1.0  0.67792  0.95225  0.39456  1.0000
  C   C1040     1.0  0.65167  0.93137  0.39085  1.0000
  C   C1041     1.0  0.63725  0.91661  0.40707  1.0000
  C   C1042     1.0  0.64871  0.92317  0.42666  1.0000
  H   H1829     1.0  0.67076  0.59842  0.43673  1.0000
  C   C1043     1.0  0.71971  0.64608  0.44114  1.0000
  H   H1830     1.0  0.61707  0.90053  0.40459  1.0000
  H   H1831     1.0  0.63709  0.91197  0.43908  1.0000
  H   H1832     1.0  0.73654  0.81416  0.43748  1.0000
  H   H1833     1.0  0.55770  0.68456  0.40981  1.0000
  C   C1044     1.0  0.52520  0.70708  0.28091  1.0000
  H   H1834     1.0  0.52185  0.68604  0.28242  1.0000
  C   C1045     1.0  0.67115  0.68548  0.43730  1.0000
  C   C1046     1.0  0.68591  0.70387  0.42281  1.0000
  C   C1047     1.0  0.67486  0.70175  0.40330  1.0000
  C   C1048     1.0  0.64878  0.68153  0.39804  1.0000
  C   C1049     1.0  0.63377  0.66368  0.41270  1.0000
  C   C1050     1.0  0.64496  0.66556  0.43209  1.0000
  H   H1835     1.0  0.70603  0.71933  0.42649  1.0000
  H   H1836     1.0  0.68670  0.71568  0.39212  1.0000
  H   H1837     1.0  0.61376  0.64797  0.40896  1.0000
  H   H1838     1.0  0.63332  0.65115  0.44310  1.0000
  C   C1051     1.0  0.89147  0.73155  0.48613  1.0000
  H   H1839     1.0  0.53419  0.89437  0.40905  1.0000
  H   H1840     1.0  0.57529  0.93497  0.42031  1.0000
  C   C1052     1.0  0.78332  0.85896  0.49595  1.0000
  H   H1841     1.0  0.63759  0.72912  0.33172  1.0000
  H   H1842     1.0  0.61551  0.69816  0.25440  1.0000
  C   C1053     1.0  0.59040  0.94855  0.39009  1.0000
  C   C1054     1.0  0.73575  0.86347  0.43171  1.0000
  H   H1843     1.0  0.59508  0.63725  0.27561  1.0000
  C   C1055     1.0  0.68950  0.95855  0.41411  1.0000
  H   H1844     1.0  0.57854  0.72869  0.28820  1.0000
  H   H1845     1.0  0.66312  0.72227  0.26660  1.0000
  C   C1056     1.0  0.71046  0.87797  0.45371  1.0000
  H   H1846     1.0  0.60470  0.90192  0.26715  1.0000
  H   H1847     1.0  0.66489  0.62570  0.44589  1.0000
  H   H1848     1.0  0.66318  0.86772  0.38637  1.0000
  H   H1849     1.0  0.67236  0.90143  0.48040  1.0000
  C   C1057     1.0  0.56758  0.93405  0.40483  1.0000
  H   H1850     1.0  0.73760  0.61302  0.42408  1.0000
  H   H1851     1.0  0.78120  0.63461  0.39262  1.0000
  H   H1852     1.0  0.60472  0.69568  0.27979  1.0000
  C   C1058     1.0  0.54700  0.72197  0.26592  1.0000
  H   H1853     1.0  0.64666  0.76000  0.31879  1.0000
  C   C1059     1.0  0.76736  0.67254  0.45260  1.0000
  H   H1854     1.0  0.61060  0.97284  0.42753  1.0000
  H   H1855     1.0  0.73836  0.84882  0.46162  1.0000
  H   H1856     1.0  0.76217  0.90730  0.45921  1.0000
  H   H1857     1.0  0.74534  0.61609  0.38765  1.0000
  S   S238      1.0  0.68739  0.95257  0.45569  1.0000
  H   H1858     1.0  0.71981  0.87507  0.46761  1.0000
  H   H1859     1.0  0.50459  0.90036  0.34107  1.0000
  H   H1860     1.0  0.77512  0.92838  0.41628  1.0000
  H   H1861     1.0  0.76267  0.60026  0.40025  1.0000
  C   C1060     1.0  0.74656  0.69168  0.42971  1.0000
  H   H1862     1.0  0.74461  0.64476  0.47602  1.0000
  N   N59       1.0  0.59726  0.73760  0.25939  1.0000
  C   C1061     1.0  0.62445  0.97807  0.41494  1.0000
  H   H1863     1.0  0.53088  0.71745  0.29578  1.0000
  H   H1864     1.0  0.74409  0.65538  0.40368  1.0000
  C   C1062     1.0  0.76269  0.64952  0.46716  1.0000
  H   H1865     1.0  0.73623  0.69738  0.44146  1.0000
  S   S239      1.0  0.51132  0.56196  0.36206  1.0000
  H   H1866     1.0  0.75758  0.74522  0.42829  1.0000
  C   C1063     1.0  0.76183  0.61952  0.39855  1.0000
  C   C1064     1.0  0.68004  0.88694  0.47665  1.0000
  H   H1867     1.0  0.56895  0.70042  0.27216  1.0000
  H   H1868     1.0  0.66269  0.86730  0.47236  1.0000
  H   H1869     1.0  0.78282  0.64040  0.49163  1.0000
  S   S240      1.0  0.81827  0.73066  0.48051  1.0000
  H   H1870     1.0  0.60101  0.93620  0.38821  1.0000
  H   H1871     1.0  0.69768  0.88821  0.38019  1.0000
  H   H1872     1.0  0.69485  0.79352  0.41593  1.0000
  H   H1873     1.0  0.75955  0.63084  0.45926  1.0000
  H   H1874     1.0  0.76028  0.73456  0.40322  1.0000
  C   C1065     1.0  0.68302  0.88319  0.39228  1.0000
  C   C1066     1.0  0.85092  0.73731  0.48998  1.0000
  C   C1067     1.0  0.75571  0.83246  0.44099  1.0000
  C   C1068     1.0  0.54345  0.81013  0.26992  1.0000
  H   H1875     1.0  0.71373  0.65430  0.45427  1.0000
  H   H1876     1.0  0.57363  0.97992  0.42278  1.0000
  C   C1069     1.0  0.79218  0.88694  0.49436  1.0000
  C   C1070     1.0  0.69182  0.87268  0.41043  1.0000
  H   H1877     1.0  0.81069  0.93711  0.45395  1.0000
  H   H1878     1.0  0.60142  0.81496  0.26520  1.0000
  H   H1879     1.0  0.50336  0.59638  0.39019  1.0000
  H   H1880     1.0  0.56372  0.89389  0.39960  1.0000
  H   H1881     1.0  0.78495  0.90464  0.42649  1.0000
  H   H1882     1.0  0.80530  0.66359  0.47406  1.0000
  H   H1883     1.0  0.61832  0.77895  0.28958  1.0000
  H   H1884     1.0  0.68122  0.90145  0.39652  1.0000
  H   H1885     1.0  0.69311  0.85797  0.45009  1.0000
  C   C1071     1.0  0.60322  0.76670  0.25830  1.0000
  H   H1886     1.0  0.55176  0.79627  0.27387  1.0000
  C   C1072     1.0  0.86522  0.72606  0.47981  1.0000
  C   C1073     1.0  0.75651  0.65634  0.41711  1.0000
  C   C1074     1.0  0.57363  0.72192  0.27227  1.0000
  C   C1075     1.0  0.80464  0.94390  0.44014  1.0000
  H   H1887     1.0  0.77729  0.67101  0.41340  1.0000
  H   H1888     1.0  0.69277  0.85418  0.40555  1.0000
  H   H1889     1.0  0.65201  0.71965  0.29210  1.0000
  H   H1890     1.0  0.68826  0.90068  0.44673  1.0000
  H   H1891     1.0  0.62524  0.74452  0.28408  1.0000
  H   H1892     1.0  0.53511  0.61784  0.41957  1.0000
  H   H1893     1.0  0.77027  0.87264  0.45244  1.0000
  H   H1894     1.0  0.63115  0.96227  0.41485  1.0000
  H   H1895     1.0  0.64495  0.68976  0.27753  1.0000
  H   H1896     1.0  0.76725  0.68873  0.46229  1.0000
  H   H1897     1.0  0.82150  0.95094  0.42971  1.0000
  H   H1898     1.0  0.52027  0.58872  0.30211  1.0000
  C   C1076     1.0  0.59211  0.89887  0.25396  1.0000
  C   C1077     1.0  0.77401  0.71684  0.42667  1.0000
  H   H1899     1.0  0.70953  0.97490  0.41663  1.0000
  C   C1078     1.0  0.51956  0.59643  0.41940  1.0000
  H   H1900     1.0  0.78652  0.71264  0.41609  1.0000
  C   C1079     1.0  0.67019  0.61725  0.43261  1.0000
  C   C1080     1.0  0.51145  0.57058  0.29208  1.0000
  H   H1901     1.0  0.63542  0.82107  0.27065  1.0000
  H   H1902     1.0  0.79689  0.85071  0.49301  1.0000
  H   H1903     1.0  0.73366  0.89893  0.40646  1.0000
  H   H1904     1.0  0.49509  0.54432  0.31652  1.0000
  H   H1905     1.0  0.61430  0.82090  0.29055  1.0000
  H   H1906     1.0  0.75166  0.92844  0.44697  1.0000
  S   S241      1.0  0.78727  0.93382  0.49519  1.0000
  C   C1081     1.0  0.75555  0.91096  0.44439  1.0000
  C   C1082     1.0  0.58548  0.63977  0.26224  1.0000
  Fe  Fe119     1.0  0.78234  0.73566  0.49216  1.0000
  C   C1083     1.0  0.77009  0.74004  0.41832  1.0000
  H   H1907     1.0  0.78550  0.72398  0.44107  1.0000
  H   H1908     1.0  0.51011  0.93515  0.25531  1.0000
  H   H1909     1.0  0.68933  0.96387  0.38221  1.0000
  H   H1910     1.0  0.66208  0.98893  0.44575  1.0000
  H   H1911     1.0  0.55938  0.83130  0.27205  1.0000
  S   S242      1.0  0.74579  0.69649  0.49857  1.0000
  C   C1084     1.0  0.60460  0.78120  0.27857  1.0000
  H   H1912     1.0  0.50608  0.70649  0.27572  1.0000
  H   H1913     1.0  0.54265  0.90217  0.38339  1.0000
  H   H1914     1.0  0.77346  0.63128  0.42909  1.0000
  C   C1085     1.0  0.69937  0.89768  0.45947  1.0000
  C   C1086     1.0  0.75682  0.62903  0.41880  1.0000
  C   C1087     1.0  0.56467  0.89029  0.25592  1.0000
  H   H1915     1.0  0.55363  0.94294  0.40439  1.0000
  H   H1916     1.0  0.76647  0.82758  0.45306  1.0000
  H   H1917     1.0  0.74726  0.86754  0.41776  1.0000
  H   H1918     1.0  0.67605  0.86720  0.42166  1.0000
  S   S243      1.0  0.76871  0.98398  0.46613  1.0000
  H   H1919     1.0  0.57997  0.94719  0.37552  1.0000
  Fe  Fe120     1.0  0.72695  0.97567  0.47442  1.0000
  H   H1920     1.0  0.78824  0.68103  0.44720  1.0000
  H   H1921     1.0  0.58449  0.77298  0.28514  1.0000
  H   H1922     1.0  0.71821  0.91325  0.42180  1.0000
  H   H1923     1.0  0.49987  0.63138  0.41087  1.0000
  C   C1088     1.0  0.77967  0.92083  0.43031  1.0000
  H   H1924     1.0  0.54942  0.74265  0.26483  1.0000
  H   H1925     1.0  0.67910  0.76016  0.42615  1.0000
  H   H1926     1.0  0.58012  0.70095  0.43112  1.0000
  H   H1927     1.0  0.85603  0.71323  0.46675  1.0000
  H   H1928     1.0  0.76831  0.83819  0.42760  1.0000
  H   H1929     1.0  0.69046  0.88462  0.49017  1.0000
  H   H1930     1.0  0.64000  0.75027  0.26048  1.0000
  H   H1931     1.0  0.65427  0.61232  0.42086  1.0000
  H   H1932     1.0  0.57999  0.67202  0.41905  1.0000
  N   N60       1.0  0.73028  0.88664  0.43713  1.0000
  H   H1933     1.0  0.70151  0.62823  0.41162  1.0000
  H   H1934     1.0  0.61198  0.73833  0.32398  1.0000
  H   H1935     1.0  0.71661  0.84504  0.42819  1.0000
  H   H1936     1.0  0.71908  0.62715  0.44635  1.0000
  H   H1937     1.0  0.52725  0.56451  0.28913  1.0000
  H   H1938     1.0  0.71580  0.91754  0.46441  1.0000
  S   S244      1.0  0.49678  0.85455  0.36545  1.0000
  C   C1089     1.0  0.64678  0.71032  0.27685  1.0000
  C   C1090     1.0  0.69720  0.63768  0.42475  1.0000
  C   C1091     1.0  0.75054  0.85557  0.44810  1.0000
  H   H1939     1.0  0.52874  0.58386  0.41399  1.0000
  H   H1940     1.0  0.52723  0.80689  0.28039  1.0000
  C   C1092     1.0  0.61455  0.81133  0.27596  1.0000
  C   C1093     1.0  0.71948  0.89426  0.41887  1.0000
  C   C1094     1.0  0.56336  0.64464  0.26379  1.0000
  H   H1941     1.0  0.90212  0.72290  0.47796  1.0000
  C   C1095     1.0  0.55112  0.90433  0.39882  1.0000
  C   C1096     1.0  0.62159  0.73667  0.26841  1.0000
  H   H1942     1.0  0.50504  0.57604  0.27781  1.0000
  H   H1943     1.0  0.69476  0.65516  0.41974  1.0000
  N   N61       1.0  0.61917  0.75542  0.38594  1.0000
  C   C1097     1.0  0.59733  0.73464  0.39819  1.0000
  C   C1098     1.0  0.61396  0.77928  0.38256  1.0000
  C   C1099     1.0  0.61820  0.74248  0.36580  1.0000
  C   C1100     1.0  0.64669  0.76423  0.39524  1.0000
  C   C1101     1.0  0.65123  0.77525  0.41703  1.0000
  C   C1102     1.0  0.59964  0.70866  0.40239  1.0000
  C   C1103     1.0  0.63669  0.76137  0.34974  1.0000
  C   C1104     1.0  0.60015  0.78717  0.39938  1.0000
  C   C1105     1.0  0.60038  0.81400  0.39524  1.0000
  C   C1106     1.0  0.67845  0.77965  0.42542  1.0000
  C   C1107     1.0  0.57797  0.69052  0.41647  1.0000
  C   C1108     1.0  0.63292  0.74618  0.32986  1.0000
  H   H1944     1.0  0.57745  0.72843  0.39063  1.0000
  H   H1945     1.0  0.59600  0.74310  0.41291  1.0000
  H   H1946     1.0  0.63291  0.79743  0.37902  1.0000
  H   H1947     1.0  0.60040  0.77541  0.36920  1.0000
  H   H1948     1.0  0.59732  0.73294  0.35949  1.0000
  H   H1949     1.0  0.62381  0.72598  0.36727  1.0000
  H   H1950     1.0  0.65208  0.74747  0.39448  1.0000
  H   H1951     1.0  0.66215  0.78047  0.38644  1.0000
  H   H1952     1.0  0.63582  0.76122  0.42703  1.0000
  H   H1953     1.0  0.65124  0.79502  0.41755  1.0000
  H   H1954     1.0  0.59698  0.69688  0.38837  1.0000
  H   H1955     1.0  0.61932  0.71334  0.40949  1.0000
  H   H1956     1.0  0.65809  0.76963  0.35445  1.0000
  H   H1957     1.0  0.63231  0.77839  0.34686  1.0000
  H   H1958     1.0  0.57881  0.77166  0.40013  1.0000
  H   H1959     1.0  0.60987  0.78889  0.41421  1.0000
  H   H1960     1.0  0.62121  0.83064  0.39586  1.0000
  H   H1961     1.0  0.59114  0.81342  0.38030  1.0000
  H   H1962     1.0  0.58873  0.81824  0.40667  1.0000
  H   H1963     1.0  0.51274  0.59055  0.43484  1.0000
  C   C1109     1.0  0.77496  0.89833  0.49802  1.0000
  H   H1964     1.0  0.49950  0.90167  0.26386  1.0000
  H   H1965     1.0  0.53954  0.71143  0.25123  1.0000
  H   H1966     1.0  0.61076  0.96168  0.35277  1.0000
  N   N62       1.0  0.61047  0.97734  0.39529  1.0000
  H   H1967     1.0  0.64386  0.97614  0.38059  1.0000
  H   H1968     1.0  0.90278  0.66076  0.49830  1.0000
  H   H1969     1.0  0.60642  0.99149  0.35553  1.0000
  C   C1110     1.0  0.49286  0.91461  0.25553  1.0000
  H   H1970     1.0  0.62272  0.77862  0.25103  1.0000
  C   C1111     1.0  0.49588  0.59194  0.40553  1.0000
  C   C1112     1.0  0.62082  0.98328  0.35745  1.0000
  H   H1971     1.0  0.58043  0.98786  0.38385  1.0000
  H   H1972     1.0  0.65834  0.98941  0.34446  1.0000
  H   H1973     1.0  0.49384  0.85654  0.30889  1.0000
  H   H1974     1.0  0.48922  0.88519  0.30272  1.0000
  H   H1975     1.0  0.49134  0.51614  0.28676  1.0000
  Fe  Fe121     1.0  0.87657  0.52157  0.65572  1.0000
  S   S245      1.0  0.91951  0.55282  0.65323  1.0000
  H   H1976     1.0  0.86760  0.58494  0.72275  1.0000
  Fe  Fe122     1.0  0.85763  0.56437  0.66223  1.0000
  S   S246      1.0  0.89942  0.59829  0.66018  1.0000
  S   S247      1.0  0.82690  0.57846  0.66924  1.0000
  Fe  Fe123     1.0  0.90374  0.57559  0.63381  1.0000
  S   S248      1.0  0.91406  0.59037  0.60153  1.0000
  Fe  Fe124     1.0  0.91090  0.57271  0.67986  1.0000
  S   S249      1.0  0.93937  0.59100  0.70686  1.0000
  S   S250      1.0  0.86088  0.54270  0.63492  1.0000
  S   S251      1.0  0.86901  0.54035  0.68333  1.0000
  Fe  Fe125     1.0  0.65883  0.56343  0.67382  1.0000
  S   S252      1.0  0.64571  0.51922  0.67318  1.0000
  S   S253      1.0  0.66579  0.58632  0.70356  1.0000
  Fe  Fe126     1.0  0.66015  0.56711  0.62762  1.0000
  S   S254      1.0  0.64583  0.52226  0.62443  1.0000
  S   S255      1.0  0.66814  0.58803  0.59721  1.0000
  Fe  Fe127     1.0  0.61672  0.51659  0.64866  1.0000
  H   H1977     1.0  0.74858  0.61775  0.70092  1.0000
  Fe  Fe128     1.0  0.67590  0.52881  0.64926  1.0000
  H   H1978     1.0  0.59235  0.53368  0.74830  1.0000
  S   S256      1.0  0.62860  0.56098  0.65018  1.0000
  S   S257      1.0  0.69141  0.57349  0.65149  1.0000
  H   H1979     1.0  0.69819  0.73553  0.55458  1.0000
  C   C1113     1.0  0.97186  0.66667  0.56800  1.0000
  H   H1980     1.0  0.58546  0.51601  0.69337  1.0000
  C   C1114     1.0  0.73496  0.54160  0.74479  1.0000
  S   S258      1.0  0.77884  0.75707  0.51989  1.0000
  H   H1981     1.0  0.74298  0.75895  0.55929  1.0000
  Fe  Fe129     1.0  0.74137  0.71820  0.52546  1.0000
  S   S259      1.0  0.73488  0.70353  0.55784  1.0000
  H   H1982     1.0  0.78889  0.55711  0.73379  1.0000
  C   C1115     1.0  0.94748  0.57199  0.53466  1.0000
  H   H1983     1.0  0.96785  0.55266  0.54928  1.0000
  H   H1984     1.0  0.67025  0.60633  0.74413  1.0000
  H   H1985     1.0  0.79602  0.52618  0.69776  1.0000
  N   N63       1.0  0.93864  0.53379  0.58481  1.0000
  H   H1986     1.0  0.95759  0.72258  0.55272  1.0000
  C   C1116     1.0  0.67521  0.82201  0.58612  1.0000
  H   H1987     1.0  0.54193  0.51205  0.73755  1.0000
  H   H1988     1.0  0.89675  0.55537  0.73443  1.0000
  H   H1989     1.0  0.73518  0.88953  0.50646  1.0000
  H   H1990     1.0  0.73961  0.81148  0.56718  1.0000
  H   H1991     1.0  0.82893  0.69471  0.52406  1.0000
  H   H1992     1.0  0.73383  0.78815  0.58632  1.0000
  H   H1993     1.0  0.55632  0.53605  0.69301  1.0000
  C   C1117     1.0  0.78469  0.54974  0.71803  1.0000
  H   H1994     1.0  0.68630  0.69976  0.60350  1.0000
  Fe  Fe130     1.0  0.75253  0.76929  0.50096  1.0000
  C   C1118     1.0  0.68715  0.62043  0.58675  1.0000
  C   C1119     1.0  0.68646  0.62283  0.56585  1.0000
  C   C1120     1.0  0.70099  0.64792  0.55673  1.0000
  C   C1121     1.0  0.71660  0.67108  0.56840  1.0000
  C   C1122     1.0  0.71749  0.66867  0.58930  1.0000
  C   C1123     1.0  0.70286  0.64359  0.59843  1.0000
  H   H1995     1.0  0.67434  0.60514  0.55663  1.0000
  H   H1996     1.0  0.69992  0.64934  0.54068  1.0000
  H   H1997     1.0  0.72937  0.68642  0.59853  1.0000
  H   H1998     1.0  0.70356  0.64223  0.61450  1.0000
  C   C1124     1.0  0.93645  0.62035  0.58926  1.0000
  C   C1125     1.0  0.93289  0.62219  0.56853  1.0000
  C   C1126     1.0  0.87986  0.61606  0.74680  1.0000
  H   H1999     1.0  0.79627  0.51829  0.72387  1.0000
  S   S260      1.0  0.71502  0.73166  0.50853  1.0000
  C   C1127     1.0  0.95784  0.64189  0.59928  1.0000
  H   H2000     1.0  0.66025  0.74541  0.53383  1.0000
  C   C1128     1.0  0.95678  0.56375  0.55376  1.0000
  H   H2001     1.0  0.66472  0.77168  0.57387  1.0000
  H   H2002     1.0  0.96102  0.64088  0.61516  1.0000
  C   C1129     1.0  0.79291  0.55914  0.66203  1.0000
  C   C1130     1.0  0.77545  0.57020  0.66500  1.0000
  C   C1131     1.0  0.74788  0.55493  0.66068  1.0000
  C   C1132     1.0  0.73758  0.52865  0.65308  1.0000
  C   C1133     1.0  0.75508  0.51761  0.64989  1.0000
  C   C1134     1.0  0.78273  0.53284  0.65433  1.0000
  H   H2003     1.0  0.78323  0.59051  0.67102  1.0000
  H   H2004     1.0  0.73449  0.56329  0.66371  1.0000
  C   C1135     1.0  0.68669  0.78484  0.57607  1.0000
  H   H2005     1.0  0.79607  0.52410  0.65208  1.0000
  H   H2006     1.0  0.67960  0.82027  0.60213  1.0000
  C   C1136     1.0  0.93605  0.58945  0.73332  1.0000
  C   C1137     1.0  0.70821  0.52510  0.71286  1.0000
  C   C1138     1.0  0.86332  0.75396  0.50679  1.0000
  H   H2007     1.0  0.60957  0.57716  0.71309  1.0000
  C   C1139     1.0  0.65110  0.54230  0.72781  1.0000
  C   C1140     1.0  0.65972  0.56995  0.72681  1.0000
  H   H2008     1.0  0.87095  0.64773  0.52631  1.0000
  H   H2009     1.0  0.64810  0.53052  0.71430  1.0000
  H   H2010     1.0  0.75848  0.62364  0.72722  1.0000
  H   H2011     1.0  0.97890  0.53641  0.61507  1.0000
  C   C1141     1.0  0.67066  0.77409  0.51067  1.0000
  S   S261      1.0  0.70291  0.50900  0.64813  1.0000
  H   H2012     1.0  0.89868  0.61434  0.74927  1.0000
  C   C1142     1.0  0.75429  0.53144  0.71395  1.0000
  H   H2013     1.0  0.91646  0.60570  0.56056  1.0000
  H   H2014     1.0  0.82761  0.60427  0.74740  1.0000
  H   H2015     1.0  0.68785  0.81740  0.55709  1.0000
  C   C1143     1.0  0.91382  0.51966  0.59712  1.0000
  H   H2016     1.0  0.68214  0.69433  0.57682  1.0000
  C   C1144     1.0  0.75041  0.78096  0.55912  1.0000
  H   H2017     1.0  0.68183  0.76572  0.50201  1.0000
  C   C1145     1.0  0.74866  0.88118  0.50344  1.0000
  H   H2018     1.0  0.77769  0.78810  0.58470  1.0000
  H   H2019     1.0  0.65843  0.70086  0.59058  1.0000
  C   C1146     1.0  0.75701  0.84181  0.50133  1.0000
  H   H2020     1.0  0.71045  0.80146  0.53852  1.0000
  H   H2021     1.0  0.70971  0.57432  0.70886  1.0000
  S   S262      1.0  0.93776  0.75752  0.51102  1.0000
  H   H2022     1.0  0.69406  0.53223  0.71831  1.0000
  H   H2023     1.0  0.65876  0.77584  0.54061  1.0000
  H   H2024     1.0  0.79199  0.56751  0.70830  1.0000
  H   H2025     1.0  0.64974  0.76504  0.50457  1.0000
  H   H2026     1.0  0.75250  0.78716  0.54334  1.0000
  H   H2027     1.0  0.72619  0.49931  0.74970  1.0000
  C   C1147     1.0  0.94817  0.72743  0.56544  1.0000
  H   H2028     1.0  0.69308  0.74671  0.59938  1.0000
  C   C1148     1.0  0.95043  0.64510  0.55797  1.0000
  S   S263      1.0  0.74427  0.80611  0.50321  1.0000
  N   N64       1.0  0.75067  0.59399  0.59442  1.0000
  C   C1149     1.0  0.75254  0.61540  0.60922  1.0000
  C   C1150     1.0  0.74601  0.60101  0.57339  1.0000
  C   C1151     1.0  0.72652  0.56795  0.59954  1.0000
  C   C1152     1.0  0.77495  0.58933  0.59571  1.0000
  C   C1153     1.0  0.80236  0.61407  0.59250  1.0000
  C   C1154     1.0  0.75936  0.61207  0.63118  1.0000
  C   C1155     1.0  0.71974  0.54355  0.58510  1.0000
  C   C1156     1.0  0.75927  0.63125  0.56807  1.0000
  C   C1157     1.0  0.75656  0.63485  0.54570  1.0000
  C   C1158     1.0  0.82538  0.60776  0.59777  1.0000
  C   C1159     1.0  0.75945  0.63423  0.64475  1.0000
  H   H2029     1.0  0.60492  0.56682  0.68703  1.0000
  H   H2030     1.0  0.73328  0.61655  0.60888  1.0000
  H   H2031     1.0  0.76807  0.63568  0.60522  1.0000
  H   H2032     1.0  0.75235  0.59036  0.56222  1.0000
  H   H2033     1.0  0.72412  0.59371  0.57028  1.0000
  H   H2034     1.0  0.70840  0.57106  0.60032  1.0000
  H   H2035     1.0  0.72903  0.56114  0.61458  1.0000
  H   H2036     1.0  0.77581  0.58039  0.61032  1.0000
  H   H2037     1.0  0.77329  0.57400  0.58431  1.0000
  H   H2038     1.0  0.80518  0.63166  0.60186  1.0000
  H   H2039     1.0  0.80409  0.61951  0.57654  1.0000
  H   H2040     1.0  0.74443  0.59272  0.63689  1.0000
  H   H2041     1.0  0.77945  0.61302  0.63263  1.0000
  H   H2042     1.0  0.73495  0.53632  0.58691  1.0000
  H   H2043     1.0  0.71892  0.54860  0.56926  1.0000
  H   H2044     1.0  0.74913  0.64137  0.57597  1.0000
  H   H2045     1.0  0.78083  0.64191  0.57238  1.0000
  H   H2046     1.0  0.76480  0.65662  0.54259  1.0000
  H   H2047     1.0  0.76778  0.62657  0.53702  1.0000
  H   H2048     1.0  0.73512  0.62459  0.54068  1.0000
  H   H2049     1.0  0.70885  0.52767  0.69632  1.0000
  C   C1160     1.0  0.95779  0.60831  0.74489  1.0000
  H   H2050     1.0  0.84482  0.62532  0.59460  1.0000
  H   H2051     1.0  0.73949  0.63376  0.64414  1.0000
  H   H2052     1.0  0.76397  0.63107  0.66042  1.0000
  H   H2053     1.0  0.77496  0.65432  0.64019  1.0000
  H   H2054     1.0  0.93424  0.55399  0.52531  1.0000
  H   H2055     1.0  0.68859  0.50259  0.57946  1.0000
  Fe  Fe131     1.0  0.97135  0.74612  0.50395  1.0000
  N   N65       1.0  0.90107  0.68795  0.55683  1.0000
  C   C1161     1.0  0.87200  0.68178  0.55545  1.0000
  C   C1162     1.0  0.90466  0.67188  0.57343  1.0000
  C   C1163     1.0  0.91794  0.71777  0.56079  1.0000
  C   C1164     1.0  0.90984  0.68042  0.53763  1.0000
  C   C1165     1.0  0.89179  0.65138  0.52933  1.0000
  C   C1166     1.0  0.86409  0.69453  0.53774  1.0000
  H   H2056     1.0  0.95138  0.71797  0.57895  1.0000
  C   C1167     1.0  0.89937  0.67887  0.59483  1.0000
  C   C1168     1.0  0.90557  0.66263  0.61034  1.0000
  C   C1169     1.0  0.69711  0.73616  0.58685  1.0000
  C   C1170     1.0  0.83385  0.68494  0.53668  1.0000
  H   H2057     1.0  0.95483  0.76380  0.58210  1.0000
  H   H2058     1.0  0.86648  0.68919  0.56919  1.0000
  H   H2059     1.0  0.85869  0.65966  0.55494  1.0000
  H   H2060     1.0  0.89106  0.65004  0.57087  1.0000
  H   H2061     1.0  0.92519  0.67373  0.57347  1.0000
  H   H2062     1.0  0.90977  0.72491  0.57316  1.0000
  H   H2063     1.0  0.91696  0.72914  0.54759  1.0000
  H   H2064     1.0  0.91180  0.69482  0.52569  1.0000
  H   H2065     1.0  0.93035  0.68240  0.53966  1.0000
  H   H2066     1.0  0.97553  0.58500  0.63402  1.0000
  H   H2067     1.0  0.89140  0.63628  0.54002  1.0000
  H   H2068     1.0  0.87409  0.71675  0.53965  1.0000
  H   H2069     1.0  0.86976  0.68943  0.52316  1.0000
  C   C1171     1.0  0.59478  0.56915  0.70037  1.0000
  C   C1172     1.0  0.66349  0.58489  0.74470  1.0000
  H   H2070     1.0  0.91205  0.70045  0.59879  1.0000
  H   H2071     1.0  0.87804  0.67409  0.59623  1.0000
  H   H2072     1.0  0.90010  0.66663  0.62540  1.0000
  H   H2073     1.0  0.97078  0.58263  0.56191  1.0000
  C   C1173     1.0  0.67063  0.76764  0.53277  1.0000
  C   C1174     1.0  0.86949  0.60536  0.72515  1.0000
  H   H2074     1.0  0.82537  0.60329  0.61390  1.0000
  H   H2075     1.0  0.95342  0.57191  0.60089  1.0000
  C   C1175     1.0  0.96770  0.54797  0.61774  1.0000
  H   H2076     1.0  0.82714  0.69047  0.55068  1.0000
  C   C1176     1.0  0.69101  0.74481  0.56626  1.0000
  C   C1177     1.0  0.69241  0.81436  0.57274  1.0000
  H   H2077     1.0  0.71960  0.57953  0.73501  1.0000
  H   H2078     1.0  0.94759  0.64595  0.54204  1.0000
  C   C1178     1.0  0.88973  0.75979  0.51291  1.0000
  H   H2079     1.0  0.96137  0.76848  0.55568  1.0000
  C   C1179     1.0  0.67991  0.70594  0.58955  1.0000
  H   H2080     1.0  0.78724  0.81660  0.56851  1.0000
  H   H2081     1.0  0.96955  0.52576  0.57242  1.0000
  C   C1180     1.0  0.77845  0.79434  0.56896  1.0000
  H   H2082     1.0  0.79170  0.78809  0.56080  1.0000
  C   C1181     1.0  0.69966  0.77957  0.54165  1.0000
  C   C1182     1.0  0.73143  0.78963  0.56992  1.0000
  H   H2083     1.0  0.68010  0.79618  0.50872  1.0000
  C   C1183     1.0  0.57129  0.54225  0.70559  1.0000
  H   H2084     1.0  0.70989  0.77061  0.53260  1.0000
  C   C1184     1.0  0.74580  0.57033  0.71559  1.0000
  H   H2085     1.0  0.69087  0.78357  0.59220  1.0000
  H   H2086     1.0  0.74936  0.57165  0.69932  1.0000
  N   N66       1.0  0.73586  0.54170  0.72220  1.0000
  H   H2087     1.0  0.89411  0.64068  0.60689  1.0000
  H   H2088     1.0  0.66882  0.73466  0.56403  1.0000
  H   H2089     1.0  0.71369  0.82866  0.57636  1.0000
  H   H2090     1.0  0.91240  0.53398  0.60818  1.0000
  H   H2091     1.0  0.88609  0.63801  0.74697  1.0000
  H   H2092     1.0  0.76553  0.58379  0.72298  1.0000
  C   C1185     1.0  0.58048  0.52044  0.70852  1.0000
  H   H2093     1.0  0.89916  0.77315  0.52568  1.0000
  H   H2094     1.0  0.59998  0.52961  0.71691  1.0000
  C   C1186     1.0  0.98588  0.57276  0.63063  1.0000
  C   C1187     1.0  0.97537  0.66479  0.58872  1.0000
  H   H2095     1.0  0.97893  0.56670  0.58952  1.0000
  C   C1188     1.0  0.74133  0.61341  0.71641  1.0000
  H   H2096     1.0  0.71848  0.74062  0.58808  1.0000
  H   H2097     1.0  0.75133  0.52852  0.69740  1.0000
  C   C1189     1.0  0.90413  0.74878  0.50262  1.0000
  C   C1190     1.0  0.72709  0.58309  0.71958  1.0000
  H   H2098     1.0  0.82363  0.59020  0.58876  1.0000
  H   H2099     1.0  0.82255  0.54888  0.71429  1.0000
  H   H2100     1.0  0.92734  0.66857  0.61075  1.0000
  H   H2101     1.0  0.65356  0.80885  0.58268  1.0000
  N   N67       1.0  0.70223  0.77473  0.56346  1.0000
  C   C1191     1.0  0.94947  0.51469  0.57903  1.0000
  H   H2102     1.0  0.95032  0.51514  0.69735  1.0000
  H   H2103     1.0  0.89188  0.64441  0.71143  1.0000
  H   H2104     1.0  0.72700  0.62162  0.71873  1.0000
  C   C1192     1.0  0.64570  0.52964  0.74633  1.0000
  C   C1193     1.0  0.88896  0.62349  0.70983  1.0000
  H   H2105     1.0  0.82276  0.66280  0.53410  1.0000
  H   H2106     1.0  0.94991  0.53540  0.62650  1.0000
  H   H2107     1.0  0.98463  0.76427  0.57232  1.0000
  H   H2108     1.0  0.92252  0.64810  0.51193  1.0000
  C   C1194     1.0  0.95988  0.55629  0.59760  1.0000
  H   H2109     1.0  0.92385  0.55951  0.57182  1.0000
  H   H2110     1.0  0.69215  0.51375  0.60517  1.0000
  H   H2111     1.0  0.96517  0.58502  0.52586  1.0000
  H   H2112     1.0  0.91713  0.53096  0.55680  1.0000
  H   H2113     1.0  0.63872  0.50817  0.74685  1.0000
  H   H2114     1.0  0.58745  0.58399  0.69711  1.0000
  H   H2115     1.0  0.71946  0.84036  0.50933  1.0000
  S   S264      1.0  0.96533  0.70360  0.50144  1.0000
  H   H2116     1.0  0.88060  0.61583  0.69459  1.0000
  C   C1195     1.0  0.91353  0.57032  0.74318  1.0000
  H   H2117     1.0  0.74926  0.51118  0.71947  1.0000
  C   C1196     1.0  0.80077  0.53477  0.71326  1.0000
  H   H2118     1.0  0.56257  0.54602  0.71917  1.0000
  H   H2119     1.0  0.90866  0.62356  0.71155  1.0000
  H   H2120     1.0  0.74721  0.49717  0.64411  1.0000
  H   H2121     1.0  0.56941  0.98996  0.65833  1.0000
  C   C1197     1.0  0.55300  0.50014  0.73851  1.0000
  C   C1198     1.0  0.96305  0.75788  0.56911  1.0000
  H   H2122     1.0  0.84975  0.60438  0.72171  1.0000
  H   H2123     1.0  0.67972  0.84319  0.58351  1.0000
  H   H2124     1.0  0.97535  0.62303  0.73760  1.0000
  H   H2125     1.0  0.93651  0.58352  0.53831  1.0000
  C   C1199     1.0  0.73981  0.85322  0.50510  1.0000
  C   C1200     1.0  0.93267  0.54637  0.56686  1.0000
  H   H2126     1.0  0.51857  0.50747  0.70739  1.0000
  H   H2127     1.0  0.85282  0.76291  0.51479  1.0000
  H   H2128     1.0  0.88091  0.52265  0.58129  1.0000
  H   H2129     1.0  0.71541  0.53991  0.74966  1.0000
  C   C1201     1.0  0.90214  0.64625  0.50967  1.0000
  H   H2130     1.0  0.86329  0.49762  0.61305  1.0000
  H   H2131     1.0  0.88861  0.62557  0.50390  1.0000
  S   S265      1.0  0.72716  0.95411  0.50279  1.0000
  H   H2132     1.0  0.91519  0.50385  0.60618  1.0000
  C   C1202     1.0  0.69252  0.52003  0.58949  1.0000
  H   H2133     1.0  0.91420  0.49774  0.69648  1.0000
  H   H2134     1.0  0.67631  0.52576  0.58687  1.0000
  C   C1203     1.0  0.88617  0.50664  0.58580  1.0000
  H   H2135     1.0  0.92613  0.49778  0.55083  1.0000
  H   H2136     1.0  0.95296  0.50533  0.59258  1.0000
  C   C1204     1.0  0.93248  0.49653  0.69192  1.0000
  H   H2137     1.0  0.88597  0.49523  0.57216  1.0000
  N   N68       1.0  0.56088  0.49485  0.71813  1.0000
  H   H2138     1.0  0.83163  0.56462  0.74962  1.0000
  H   H2139     1.0  0.93271  0.49567  0.67537  1.0000
  C   C1205     1.0  0.69441  0.49459  0.71687  1.0000
  H   H2140     1.0  0.59909  0.99215  0.60297  1.0000
  Fe  Fe132     1.0  0.67502  0.52738  0.85489  1.0000
  S   S266      1.0  0.68534  0.56388  0.83666  1.0000
  S   S267      1.0  0.70525  0.51310  0.86394  1.0000
  Fe  Fe133     1.0  0.61617  0.51487  0.85827  1.0000
  S   S268      1.0  0.62277  0.55110  0.84042  1.0000
  H   H2141     1.0  0.62832  0.97851  0.86389  1.0000
  Fe  Fe134     1.0  0.64638  0.53847  0.81982  1.0000
  S   S269      1.0  0.63897  0.52644  0.78659  1.0000
  Fe  Fe135     1.0  0.66122  0.57339  0.85916  1.0000
  S   S270      1.0  0.67723  0.61639  0.87242  1.0000
  C   C1206     1.0  0.73506  0.52044  0.77806  1.0000
  S   S271      1.0  0.65293  0.53801  0.87818  1.0000
  Fe  Fe136     1.0  0.90270  0.58460  0.87387  1.0000
  S   S272      1.0  0.86085  0.54955  0.87234  1.0000
  S   S273      1.0  0.91277  0.60561  0.90513  1.0000
  Fe  Fe137     1.0  0.91022  0.57491  0.82912  1.0000
  S   S274      1.0  0.86955  0.53970  0.82536  1.0000
  S   S275      1.0  0.93740  0.59149  0.80252  1.0000
  Fe  Fe138     1.0  0.85577  0.56512  0.84285  1.0000
  S   S276      1.0  0.82247  0.57280  0.83017  1.0000
  Fe  Fe139     1.0  0.87845  0.52691  0.85513  1.0000
  C   C1207     1.0  0.85607  0.86647  0.96962  1.0000
  S   S277      1.0  0.89616  0.60141  0.84518  1.0000
  S   S278      1.0  0.92063  0.56081  0.85815  1.0000
  H   H2142     1.0  0.89166  0.60428  0.78364  1.0000
  H   H2143     1.0  0.70184  0.98042  0.84550  1.0000
  H   H2144     1.0  0.74886  0.54044  0.78490  1.0000
  H   H2145     1.0  0.84944  0.81855  0.97589  1.0000
  Fe  Fe140     1.0  0.73293  0.70612  0.97853  1.0000
  S   S279      1.0  0.71559  0.66508  0.96166  1.0000
  H   H2146     1.0  0.83087  0.71397  0.94267  1.0000
  S   S280      1.0  0.76596  0.74595  0.96936  1.0000
  H   H2147     1.0  0.75030  0.56117  0.75142  1.0000
  C   C1208     1.0  0.62644  0.60939  0.94954  1.0000
  C   C1209     1.0  0.83811  0.78220  0.94661  1.0000
  H   H2148     1.0  0.73604  0.55794  0.92824  1.0000
  H   H2149     1.0  0.74140  0.59765  0.93813  1.0000
  H   H2150     1.0  0.68549  0.52151  0.90327  1.0000
  C   C1210     1.0  0.73357  0.84672  0.96741  1.0000
  H   H2151     1.0  0.80750  0.51982  0.76490  1.0000
  H   H2152     1.0  0.92313  0.75539  0.94025  1.0000
  H   H2153     1.0  0.81586  0.86158  0.99212  1.0000
  H   H2154     1.0  0.73222  0.88439  0.96329  1.0000
  H   H2155     1.0  0.62089  0.58851  0.95401  1.0000
  C   C1211     1.0  0.93523  0.58957  0.77586  1.0000
  C   C1212     1.0  0.85064  0.69436  0.95903  1.0000
  H   H2156     1.0  0.91812  0.69180  0.92860  1.0000
  H   H2157     1.0  0.63899  0.61385  0.93614  1.0000
  H   H2158     1.0  0.89614  0.55536  0.77200  1.0000
  C   C1213     1.0  0.93563  0.63764  0.91596  1.0000
  C   C1214     1.0  0.95583  0.65771  0.90512  1.0000
  H   H2159     1.0  0.75327  0.50941  0.87371  1.0000
  H   H2160     1.0  0.91652  0.67113  0.81024  1.0000
  C   C1215     1.0  0.79803  0.61243  0.77623  1.0000
  H   H2161     1.0  0.88672  0.72945  0.96791  1.0000
  H   H2162     1.0  0.95775  0.65410  0.88948  1.0000
  H   H2163     1.0  0.58512  0.50164  0.75872  1.0000
  C   C1216     1.0  0.64883  0.54439  0.76416  1.0000
  C   C1217     1.0  0.80562  0.86829  0.95354  1.0000
  H   H2164     1.0  0.58300  0.53129  0.78442  1.0000
  H   H2165     1.0  0.65477  0.72519  0.99169  1.0000
  H   H2166     1.0  0.66047  0.58377  0.77694  1.0000
  C   C1218     1.0  0.68813  0.62948  0.89733  1.0000
  C   C1219     1.0  0.69811  0.65728  0.90123  1.0000
  C   C1220     1.0  0.70673  0.66859  0.92069  1.0000
  C   C1221     1.0  0.70560  0.65224  0.93660  1.0000
  C   C1222     1.0  0.69589  0.62447  0.93268  1.0000
  C   C1223     1.0  0.68713  0.61314  0.91325  1.0000
  H   H2167     1.0  0.69897  0.67017  0.88911  1.0000
  H   H2168     1.0  0.71409  0.68995  0.92335  1.0000
  H   H2169     1.0  0.69479  0.61153  0.94483  1.0000
  H   H2170     1.0  0.67920  0.59171  0.91063  1.0000
  C   C1224     1.0  0.73756  0.52909  0.85399  1.0000
  C   C1225     1.0  0.74353  0.54739  0.83859  1.0000
  C   C1226     1.0  0.76966  0.56061  0.83142  1.0000
  C   C1227     1.0  0.78996  0.55549  0.83949  1.0000
  C   C1228     1.0  0.78398  0.53691  0.85469  1.0000
  C   C1229     1.0  0.75780  0.52370  0.86188  1.0000
  H   H2171     1.0  0.72804  0.55129  0.83212  1.0000
  H   H2172     1.0  0.77414  0.57486  0.81960  1.0000
  H   H2173     1.0  0.79949  0.53271  0.86091  1.0000
  H   H2174     1.0  0.87803  0.85697  0.94698  1.0000
  H   H2175     1.0  0.90617  0.66959  0.95926  1.0000
  H   H2176     1.0  0.97656  0.61238  0.91624  1.0000
  H   H2177     1.0  0.82099  0.51318  0.78754  1.0000
  H   H2178     1.0  0.87988  0.72650  0.94185  1.0000
  H   H2179     1.0  0.78068  0.62479  0.87500  1.0000
  C   C1230     1.0  0.73862  0.87311  0.97304  1.0000
  H   H2180     1.0  0.78836  0.60862  0.76109  1.0000
  H   H2181     1.0  0.83790  0.77488  0.93109  1.0000
  H   H2182     1.0  0.90717  0.90308  0.93680  1.0000
  C   C1231     1.0  0.97391  0.68238  0.91462  1.0000
  H   H2183     1.0  0.66060  0.62742  0.96948  1.0000
  H   H2184     1.0  0.81126  0.61193  0.88083  1.0000
  C   C1232     1.0  0.63649  0.67012  0.99579  1.0000
  H   H2185     1.0  0.97952  0.75988  0.94312  1.0000
  C   C1233     1.0  0.93875  0.75254  0.94860  1.0000
  C   C1234     1.0  0.83019  0.80484  0.94641  1.0000
  C   C1235     1.0  0.62554  0.62392  0.98556  1.0000
  C   C1236     1.0  0.74185  0.83161  0.97973  1.0000
  H   H2186     1.0  0.86344  0.60252  0.79585  1.0000
  H   H2187     1.0  0.84724  0.60610  0.89759  1.0000
  H   H2188     1.0  0.74863  0.62583  0.90975  1.0000
  C   C1237     1.0  0.75228  0.88493  0.99107  1.0000
  H   H2189     1.0  0.80914  0.63448  0.77931  1.0000
  C   C1238     1.0  0.80805  0.60499  0.89644  1.0000
  H   H2190     1.0  0.64671  0.97146  0.83231  1.0000
  H   H2191     1.0  0.85883  0.55879  0.78833  1.0000
  H   H2192     1.0  0.88753  0.69572  0.99185  1.0000
  C   C1239     1.0  0.73968  0.61549  0.86969  1.0000
  H   H2193     1.0  0.92511  0.78071  0.99660  1.0000
  S   S281      1.0  0.71289  0.95468  0.99017  1.0000
  H   H2194     1.0  0.85868  0.87261  0.93695  1.0000
  C   C1240     1.0  0.73964  0.51981  0.75566  1.0000
  H   H2195     1.0  0.84363  0.82031  0.93624  1.0000
  H   H2196     1.0  0.76025  0.59153  0.86528  1.0000
  C   C1241     1.0  0.75481  0.84316  0.99805  1.0000
  H   H2197     1.0  0.65095  0.67992  0.98376  1.0000
  C   C1242     1.0  0.64442  0.96163  0.98277  1.0000
  S   S282      1.0  0.70890  0.72529  0.99142  1.0000
  H   H2198     1.0  0.96051  0.60956  0.98952  1.0000
  H   H2199     1.0  0.82585  0.60435  0.79329  1.0000
  C   C1243     1.0  0.74418  0.62526  0.84824  1.0000
  C   C1244     1.0  0.57628  0.51484  0.75415  1.0000
  H   H2200     1.0  0.84904  0.68605  0.97416  1.0000
  H   H2201     1.0  0.74072  0.63230  0.87919  1.0000
  H   H2202     1.0  0.89074  0.91608  0.95324  1.0000
  H   H2203     1.0  0.87759  0.65143  0.78643  1.0000
  Fe  Fe141     1.0  0.74385  0.76553  0.98491  1.0000
  H   H2204     1.0  0.85855  0.78943  0.95335  1.0000
  C   C1245     1.0  0.97254  0.63187  0.98892  1.0000
  H   H2205     1.0  0.69737  0.88589  0.99391  1.0000
  C   C1246     1.0  0.90491  0.64899  0.80791  1.0000
  H   H2206     1.0  0.84077  0.72620  0.96813  1.0000
  H   H2207     1.0  0.88956  0.64097  0.81955  1.0000
  H   H2208     1.0  0.82016  0.57404  0.88983  1.0000
  C   C1247     1.0  0.88017  0.71478  0.95503  1.0000
  H   H2209     1.0  0.75792  0.64644  0.94447  1.0000
  H   H2210     1.0  0.82450  0.58486  0.91584  1.0000
  H   H2211     1.0  0.81493  0.62266  0.90680  1.0000
  C   C1248     1.0  0.77816  0.58489  0.89958  1.0000
  H   H2212     1.0  0.89608  0.66100  0.89926  1.0000
  H   H2213     1.0  0.72340  0.83807  0.95325  1.0000
  H   H2214     1.0  0.71609  0.58148  0.90317  1.0000
  H   H2215     1.0  0.71911  0.59860  0.87026  1.0000
  C   C1249     1.0  0.62676  0.98831  0.84998  1.0000
  H   H2216     1.0  0.84744  0.63320  0.76210  1.0000
  C   C1250     1.0  0.81696  0.59990  0.77794  1.0000
  C   C1251     1.0  0.72836  0.96459  0.82075  1.0000
  H   H2217     1.0  0.70969  0.94750  0.81451  1.0000
  H   H2218     1.0  0.79212  0.65155  0.94458  1.0000
  H   H2219     1.0  0.67118  0.89523  0.99766  1.0000
  C   C1252     1.0  0.88230  0.67017  0.89855  1.0000
  H   H2220     1.0  0.60802  0.61093  0.94539  1.0000
  H   H2221     1.0  0.86743  0.65709  0.92757  1.0000
  C   C1253     1.0  0.82627  0.52494  0.77366  1.0000
  H   H2222     1.0  0.78332  0.63595  0.90925  1.0000
  H   H2223     1.0  0.85850  0.64662  0.99381  1.0000
  H   H2224     1.0  0.79012  0.82500  0.95428  1.0000
  C   C1254     1.0  0.78804  0.86756  0.93562  1.0000
  C   C1255     1.0  0.89546  0.68208  0.98663  1.0000
  C   C1256     1.0  0.69613  0.53216  0.91732  1.0000
  Fe  Fe142     1.0  0.73040  0.98808  0.96781  1.0000
  H   H2225     1.0  0.82744  0.55941  0.78872  1.0000
  H   H2226     1.0  0.77563  0.60262  0.93827  1.0000
  H   H2227     1.0  0.78208  0.60346  0.78737  1.0000
  C   C1257     1.0  0.83261  0.70802  0.95816  1.0000
  S   S283      1.0  0.70302  0.98671  0.94117  1.0000
  H   H2228     1.0  0.91688  0.69086  0.99151  1.0000
  H   H2229     1.0  0.81225  0.69409  0.96322  1.0000
  H   H2230     1.0  0.96293  0.63822  0.97691  1.0000
  H   H2231     1.0  0.97461  0.62318  0.77430  1.0000
  C   C1258     1.0  0.83870  0.61091  0.76197  1.0000
  C   C1259     1.0  0.77106  0.63691  0.94746  1.0000
  C   C1260     1.0  0.89144  0.64246  0.78714  1.0000
  H   H2232     1.0  0.80446  0.57787  0.77568  1.0000
  C   C1261     1.0  0.96138  0.75705  0.93446  1.0000
  C   C1262     1.0  0.76362  0.61834  0.91197  1.0000
  C   C1263     1.0  0.72578  0.55023  0.91357  1.0000
  H   H2233     1.0  0.77273  0.56773  0.88877  1.0000
  H   H2234     1.0  0.54950  0.50461  0.77929  1.0000
  C   C1264     1.0  0.72989  0.57316  0.89905  1.0000
  C   C1265     1.0  0.92747  0.72498  0.95924  1.0000
  H   H2235     1.0  0.87244  0.66267  0.95966  1.0000
  H   H2236     1.0  0.71401  0.51602  0.78076  1.0000
  C   C1266     1.0  0.56635  0.52254  0.77302  1.0000
  H   H2237     1.0  0.82366  0.76503  0.95524  1.0000
  C   C1267     1.0  0.95738  0.60838  0.76581  1.0000
  H   H2238     1.0  0.60692  0.97550  0.84257  1.0000
  H   H2239     1.0  0.67899  0.66151  0.99357  1.0000
  N   N69       1.0  0.86056  0.60252  0.76334  1.0000
  H   H2240     1.0  0.96670  0.77557  0.92591  1.0000
  H   H2241     1.0  0.76390  0.64343  0.84716  1.0000
  S   S284      1.0  0.73676  0.79919  0.97101  1.0000
  H   H2242     1.0  0.91815  0.62748  0.94494  1.0000
  H   H2243     1.0  0.94229  0.71701  0.95851  1.0000
  H   H2244     1.0  0.79529  0.86941  0.96715  1.0000
  H   H2245     1.0  0.95014  0.67106  0.96154  1.0000
  H   H2246     1.0  0.62524  0.96240  0.98056  1.0000
  H   H2247     1.0  0.74552  0.96592  0.81208  1.0000
  H   H2248     1.0  0.96189  0.61148  0.95039  1.0000
  H   H2249     1.0  0.90755  0.65248  0.77628  1.0000
  C   C1268     1.0  0.76093  0.60673  0.87648  1.0000
  C   C1269     1.0  0.88374  0.77343  0.99737  1.0000
  H   H2250     1.0  0.94143  0.52266  0.80039  1.0000
  N   N70       1.0  0.82876  0.84218  0.96963  1.0000
  H   H2251     1.0  0.77728  0.57635  0.91452  1.0000
  H   H2252     1.0  0.73149  0.96061  0.83654  1.0000
  C   C1270     1.0  0.84906  0.57237  0.76032  1.0000
  H   H2253     1.0  0.72819  0.63053  0.84355  1.0000
  H   H2254     1.0  0.55966  0.53786  0.76969  1.0000
  C   C1271     1.0  0.64223  0.62948  0.96643  1.0000
  C   C1272     1.0  0.83100  0.81636  0.96781  1.0000
  C   C1273     1.0  0.89299  0.67852  0.96359  1.0000
  H   H2255     1.0  0.86344  0.65571  0.89066  1.0000
  H   H2256     1.0  0.80946  0.79630  0.93991  1.0000
  C   C1274     1.0  0.91315  0.57035  0.76445  1.0000
  H   H2257     1.0  0.90996  0.90038  0.96344  1.0000
  H   H2258     1.0  0.92736  0.73002  0.97535  1.0000
  C   C1275     1.0  0.88041  0.65525  0.99696  1.0000
  H   H2259     1.0  0.64828  0.64998  0.96092  1.0000
  C   C1276     1.0  0.82598  0.59162  0.90020  1.0000
  H   H2260     1.0  0.72197  0.56274  0.88432  1.0000
  C   C1277     1.0  0.95172  0.66752  0.94584  1.0000
  H   H2261     1.0  0.68444  0.97433  0.82228  1.0000
  C   C1278     1.0  0.72674  0.99096  0.81935  1.0000
  H   H2262     1.0  0.60545  0.62148  0.98087  1.0000
  C   C1279     1.0  0.81633  0.84221  0.98943  1.0000
  H   H2263     1.0  0.74338  0.60925  0.83789  1.0000
  H   H2264     1.0  0.76957  0.63162  0.96347  1.0000
  C   C1280     1.0  0.76236  0.61160  0.93434  1.0000
  H   H2265     1.0  0.73392  0.53732  0.90697  1.0000
  H   H2266     1.0  0.94702  0.76908  0.96012  1.0000
  N   N71       1.0  0.75819  0.59570  0.89724  1.0000
  H   H2267     1.0  0.84256  0.67730  0.94809  1.0000
  C   C1281     1.0  0.87626  0.67634  0.91961  1.0000
  H   H2268     1.0  0.61654  0.66518  0.98889  1.0000
  H   H2269     1.0  0.86123  0.68383  0.91812  1.0000
  S   S285      1.0  0.63761  0.50110  0.83694  1.0000
  N   N72       1.0  0.89992  0.70379  0.95213  1.0000
  C   C1282     1.0  0.84071  0.55494  0.77920  1.0000
  C   C1283     1.0  0.64020  0.93962  0.99765  1.0000
  H   H2270     1.0  0.81715  0.84155  0.93835  1.0000
  H   H2271     1.0  0.91895  0.64023  0.80954  1.0000
  C   C1284     1.0  0.93362  0.64284  0.93636  1.0000
  H   H2272     1.0  0.98545  0.59088  0.93095  1.0000
  H   H2273     1.0  0.86976  0.86449  0.98088  1.0000
  H   H2274     1.0  0.69407  0.51675  0.92832  1.0000
  C   C1285     1.0  0.87635  0.61162  0.78293  1.0000
  H   H2275     1.0  0.68659  0.54410  0.92330  1.0000
  C   C1286     1.0  0.65808  0.57219  0.76332  1.0000
  C   C1287     1.0  0.90202  0.69796  0.93036  1.0000
  H   H2276     1.0  0.89162  0.68878  0.88975  1.0000
  H   H2277     1.0  0.90830  0.71640  0.92150  1.0000
  H   H2278     1.0  0.78370  0.88493  0.93671  1.0000
  H   H2279     1.0  0.81405  0.79978  0.97537  1.0000
  H   H2280     1.0  0.66568  0.98491  0.91048  1.0000
  H   H2281     1.0  0.62264  0.92052  0.99265  1.0000
  H   H2282     1.0  0.83946  0.51923  0.76486  1.0000
  H   H2283     1.0  0.82487  0.88703  0.95279  1.0000
  H   H2284     1.0  0.88750  0.79116  0.98906  1.0000
  H   H2285     1.0  0.95562  0.73987  0.92375  1.0000
  C   C1288     1.0  0.87119  0.87229  0.94981  1.0000
  H   H2286     1.0  0.93576  0.65098  0.99763  1.0000
  H   H2287     1.0  0.76867  0.84874  0.93534  1.0000
  C   C1289     1.0  0.97209  0.68743  0.93503  1.0000
  H   H2288     1.0  0.79503  0.82622  0.98916  1.0000
  H   H2289     1.0  0.64879  0.95512  0.96813  1.0000
  C   C1290     1.0  0.81014  0.84303  0.95342  1.0000
  H   H2290     1.0  0.79840  0.86878  0.92145  1.0000
  H   H2291     1.0  0.88743  0.64075  0.99183  1.0000
  H   H2292     1.0  0.76059  0.52342  0.75399  1.0000
  C   C1291     1.0  0.89628  0.89964  0.95098  1.0000
  S   S286      1.0  0.76930  0.98549  0.96693  1.0000
  H   H2293     1.0  0.73890  0.50500  0.78560  1.0000
  H   H2294     1.0  0.85470  0.88486  0.97445  1.0000
  Fe  Fe143     1.0  0.75305  0.95491  0.99131  1.0000
  H   H2295     1.0  0.62177  0.60377  0.99084  1.0000
  C   C1292     1.0  0.92020  0.51779  0.80269  1.0000
  S   S287      1.0  0.83167  0.76606  0.99876  1.0000
  C   C1293     1.0  0.98365  0.62357  0.94771  1.0000
  H   H2296     1.0  0.86395  0.56736  0.75330  1.0000
  H   H2297     1.0  0.91854  0.52398  0.81821  1.0000
  H   H2298     1.0  0.62005  0.71042  0.99870  1.0000
  H   H2299     1.0  0.91472  0.52958  0.79208  1.0000
  H   H2300     1.0  0.65795  0.93606  0.99838  1.0000
  C   C1294     1.0  0.64907  0.99180  0.83586  1.0000
  C   C1295     1.0  0.70247  0.98948  0.83070  1.0000
  C   C1296     1.0  0.66814  0.98965  0.98887  1.0000
  Fe  Fe144     1.0  0.78543  0.74745  0.99952  1.0000
  H   H2301     1.0  0.63964  0.99348  0.95466  1.0000
  H   H2302     1.0  0.68178  0.98669  0.99970  1.0000
  S   S288      1.0  0.75970  0.91827  0.99918  1.0000
  H   H2303     1.0  0.98765  0.64447  0.94481  1.0000
  H   H2304     1.0  0.86744  0.49463  0.79517  1.0000
