data_image0
_chemical_formula_structural       FeS2HFeS2HFeCHCFeS2FeS2FeSFeS3FeS2CSHSCH3C7H4C6H4C2H3C2HCH2C6H7C2NC5HCH9CH7FeH3CHCH3C2H8SHC3H7CH2CH2CH2C2H2CH13CNH3NC2HC2HC4HSCH9CHCH5C2H4C4H22NHC4HCHC2H3FeHC3H3C2SHNH4SCFeHCH2CHCHCHC3H2S3HCH2CSH5CH4CHCHSC2HSH2FeHSFeS2CFeSFeS2FeS2FeSFeS3HS2C6H4C6H4C3HC2HC2SC7H4CH4NC10H22NHC8H20CHCNC7H15C2HCHCHCH4CHCH2CSH6CH3C2HC2H2CH3CH5CHSHC2H6CH4CHNH2CH3CH5C2HNH2CH3CH3FeC3H2CH5CHCH2C2HCH2CHSH3CHFeH2FeCH4CHC2H4CH2CHFeHCHFeCHSFeSC6H4CH6CH3C3H2CH5CH3SC3NH4SH3CH2CHCHSH5CH3CHSHSHC2H3CH3FeCH3CH3NCHCH3CHCH4CHC3FeCHFeSHC2H2SNHNHCH2SHC2H5CSH3CHCHC2H4CHCHCHC2S2H2FeH2SC2HSHC3HSCH2CH2SHFeCH2C2H4CH2CHC2SCH2CHNCHCH3CHSFeHCSCH2CH2FeH2C2H2C2H2SFeHS2H2SHCH2C3H5FeHC2SHCH4CHSH6CH4FeS2FeS2FeS2FeSFeS3CSHCSCFe2H2CHFeS2H10CHSCHC2H2CHC6H4C6H5CH2FeH2C7H4CNC11SH29SNC4H2C3HC2HCH6SCH9CH2CH6CH6CHCHCH4CH2C2HSH3NH2CHCHCH3CH3C4HCNCHCH4CHCHCH2C3HCH3CH2FeHCH3CH3S2H2NHC2H6CH3CH2C4HC2HCH8FeCH3CFeS2H2CFeHFe2S2FeSHCSCFeS2HS2C3HCHC6H4C3H6CSH5C2H2C6H3CH2C3HCH2C2H3CH3CH4CH2C2HCH3SCH4C2SH3CNC2H2CH3CH2FeH3CH9CH2C2HC2H5C2H3CH4NC2H3SCHCHC2H3CHCHSHCHC2H2CH3CH3CH3SHC2H3CHFeH2CHCHSHFeC2H2CHNCHCHCHCHCH2FeNH3C2H4SHC2HC3SH3C2H3NHC2HCHCHCH2S2FeSH3C2H2FeS2HFeS2C6H5CHC2HC2H2NHCHCH7CH2C4H6CH5SHSH2CHCHCH4CH5SCNCHC2SH3CSHCHFeCSHNCHC2SCHC2HC3H2CH2CFeH5CH2C4HCNH4CNC12H28CHCH5CH7C3H2CH3CHCH4C3SHCSHCHCHCFeH2FeH3C2H2CFeS2HS2HCHSH2CH2FeC2HC6H6CH8CH4S2HCH3CHCH2C4HSCHCH3C2HNH2CH3CH3C2H2FeCHFeHSH3CNC2H6CHCHC2H10CH2CH2CHSHFeS2FeSH2C6H8CHCHCH7C2NCH6CH2CH3C4HCH2C5H5FeHCSH5CH4CHCH2CH2CH3FeS2HCHCNCFeHSCHCH2C6H13CH5CHCHCH3CH2NHC2H6CH2CH3CH3CH7CNC5HC3H2CHSH3C2HCFeHSHSCHSH3CH3FeH3CH4CH5CH2CHFeS2HS2HFeC6H4SH2C2H3C2H5CHC2HCH2CH3C4HSH3C2HCH3NHCH4SHSH2C2HCH8CHCHCH3CHCH6CH3NHCH3CHCHCHC2FeNHC2H6FeS2FeHCHCS2FeCSH2CFeS2HFe2S2CFeS2CHC7H5CHCHCH3C4SH4C6H3C2HC3H2CHSH7CH2CH5C2H2CHCH2CH2FeC2H4NCHFeH4CNC2SCHCH3CH6CHSCH2NC8HC2H9CH5FeCH8NC10HCH29CH5C4HCHC2H5C2HC2HCH2C2H2CH2SCH6C2SHCH2C2SHCHCH2CH2CHCFeS2H2FeSHCFeS2HS2FeSH3CH5CHCH4CH2C3H5C6H4C6H3CH3CH2CH2C3SCH7CH2C2H2NH2CH3FeC2SCHNC2HC8SH4CH18CHCH2C2HCHC4H6CHCHSCH5CHNH2CHC3H9CH4C2HCHC2NSH6NCFeCHCHCH2FeS3HSHCHFeS2FeS2FeS2FeSFeS3FeS2CH4SCFeS2C3FeC6H4C6H5FeC8H4C6H2C2SCSHCNC11H28SCHC2HNH9CH7CH4CHCH12C2HCFeHSNH5CH8C2H2FeH3CH5FeHCH2SH3C2H7SH3C2HCHCHCHNFeH2CH7C3HC3HC5H4CH4NCHC2HCNHCHCH2SHCSH2FeC2H6CHS2FeS2FeS2FeS2FeS2FeSFeS3FeS2HCH2C6H4C6H8SC2HC2SH2C6H5C3H3CH3CH6CH3CHC2H6C2NC11H21CH4CH3FeH2CH7CH10C3HC2HNHC5HC2H2CHCH3CSH2SH2CH3NC2HCFeC3H6SCH9CHCHSCHC3H4CH3CHCH4C3H3C2H6CH2C4HCH3NHCHNH2CH2CHCH3C2HCH3CHCH4FeSC2FeCH3CH4CH8FeS2CSH3FeCSCH2CSFeS2FeS2FeSFeS3CHC2HFeS2FeS2H2CH2C6H4C6H4C6H4C5HCNH3CHCH4CH5SH8FeC2HNCH4CHCSCNC8H18CHCH2NC12H28CH3NHC4HC2HCHCSH3FeH3CHCH8CH7CH3C2HCH4CHFeHSH2C2HC2H2C2H2CH4FeNCHSHCHCH4CHC2FeC2HCHCHSH6CFeH4CHFeSHCH4CS3CH2C4FeS2FeS2FeS2FeSFeS3HCHFeHSFeS2HS2HCSHC7H3C6H4C6H6C2H2C2HCH2C6H4CH2SCH3CH3C2HFeHC2H2CHCH2CH3C2H3CH3CHCH2CHC2NHCH2FeH2CHCHNC11H25NHC4HC4H7CH2C2HSH2SH8CSCFeCHCH3SCH2C2HCHCSH2CHNCH7CH9C2H2C2H2CHCH7CHCH2NCHCFeHCNHSH7CHCH2CH5CHC2H2CHFeHC3H2NHCH4CHCH3CH4CHCHC2H6CSH2SH3CH5CH8
_chemical_formula_sum              "Fe144 S288 H2304 C1296 N72"
_cell_length_a       54.641
_cell_length_b       54.4167
_cell_length_c       68.8923
_cell_angle_alpha    91.2902
_cell_angle_beta     93.0186
_cell_angle_gamma    118.153

_space_group_name_H-M_alt    "P 1"
_space_group_IT_number       1

loop_
  _space_group_symop_operation_xyz
  'x, y, z'

loop_
  _atom_site_type_symbol
  _atom_site_label
  _atom_site_symmetry_multiplicity
  _atom_site_fract_x
  _atom_site_fract_y
  _atom_site_fract_z
  _atom_site_occupancy
  Fe  Fe1       1.0  0.31014  0.36612  0.22461  1.0000
  S   S1        1.0  0.32014  0.41049  0.21920  1.0000
  S   S2        1.0  0.31264  0.33566  0.20216  1.0000
  H   H1        1.0  0.37893  0.36412  0.23186  1.0000
  Fe  Fe2       1.0  0.06571  0.37085  0.22858  1.0000
  S   S3        1.0  0.09918  0.41562  0.23538  1.0000
  S   S4        1.0  0.06348  0.34540  0.20068  1.0000
  H   H2        1.0  0.11861  0.34539  0.21575  1.0000
  Fe  Fe3       1.0  0.34682  0.42312  0.24753  1.0000
  C   C1        1.0  0.05428  0.24856  0.02597  1.0000
  H   H3        1.0  0.18144  0.21542  0.17091  1.0000
  C   C2        1.0  0.13585  0.32505  0.24736  1.0000
  Fe  Fe4       1.0  0.23038  0.24696  0.09963  1.0000
  S   S5        1.0  0.19846  0.20394  0.10697  1.0000
  S   S6        1.0  0.23936  0.28356  0.12136  1.0000
  Fe  Fe5       1.0  0.23555  0.22572  0.05860  1.0000
  S   S7        1.0  0.20418  0.18164  0.06372  1.0000
  S   S8        1.0  0.25585  0.22767  0.03014  1.0000
  Fe  Fe6       1.0  0.17966  0.20047  0.07666  1.0000
  S   S9        1.0  0.13343  0.17889  0.06850  1.0000
  Fe  Fe7       1.0  0.22580  0.18880  0.09331  1.0000
  S   S10       1.0  0.23976  0.15901  0.10633  1.0000
  S   S11       1.0  0.20939  0.24429  0.06964  1.0000
  S   S12       1.0  0.25915  0.23207  0.08786  1.0000
  Fe  Fe8       1.0  0.02105  0.21728  0.10071  1.0000
  S   S13       1.0  0.00744  0.24768  0.08933  1.0000
  S   S14       1.0  0.06735  0.23424  0.10726  1.0000
  C   C3        1.0  0.23680  0.15780  0.20602  1.0000
  S   S15       1.0  0.17684  0.02815  0.08513  1.0000
  H   H4        1.0  0.44311  0.37439  0.17150  1.0000
  S   S16       1.0  0.25201  0.41449  0.22657  1.0000
  C   C4        1.0  0.08612  0.22779  0.02354  1.0000
  H   H5        1.0  0.15276  0.13531  0.03829  1.0000
  H   H6        1.0  0.38327  0.43479  0.18577  1.0000
  H   H7        1.0  0.32223  0.48434  0.19337  1.0000
  C   C5        1.0  0.16156  0.01166  0.02722  1.0000
  C   C6        1.0  0.22249  0.12285  0.09960  1.0000
  C   C7        1.0  0.19573  0.10983  0.09029  1.0000
  C   C8        1.0  0.18216  0.08083  0.08586  1.0000
  C   C9        1.0  0.19535  0.06466  0.09037  1.0000
  C   C10       1.0  0.22242  0.07780  0.09918  1.0000
  C   C11       1.0  0.23582  0.10675  0.10393  1.0000
  H   H8        1.0  0.18523  0.12198  0.08694  1.0000
  H   H9        1.0  0.16116  0.07077  0.07915  1.0000
  H   H10       1.0  0.23277  0.06557  0.10275  1.0000
  H   H11       1.0  0.25656  0.11668  0.11107  1.0000
  C   C12       1.0  0.11498  0.19340  0.08026  1.0000
  C   C13       1.0  0.08581  0.18027  0.07776  1.0000
  C   C14       1.0  0.07091  0.19231  0.08636  1.0000
  C   C15       1.0  0.08514  0.21770  0.09723  1.0000
  C   C16       1.0  0.11425  0.23059  0.09995  1.0000
  C   C17       1.0  0.12914  0.21842  0.09158  1.0000
  H   H12       1.0  0.07475  0.16076  0.06919  1.0000
  H   H13       1.0  0.04848  0.18209  0.08465  1.0000
  H   H14       1.0  0.12537  0.25021  0.10840  1.0000
  H   H15       1.0  0.15162  0.22871  0.09357  1.0000
  C   C18       1.0  0.11104  0.28063  0.15399  1.0000
  C   C19       1.0  0.03720  0.32221  0.18287  1.0000
  H   H16       1.0  0.39785  0.37280  0.17789  1.0000
  H   H17       1.0  0.10456  0.30640  0.18641  1.0000
  H   H18       1.0  0.18420  0.18792  0.14605  1.0000
  C   C20       1.0  0.30106  0.47196  0.19848  1.0000
  C   C21       1.0  0.13272  0.36196  0.18239  1.0000
  H   H19       1.0  0.25878  0.17393  0.20949  1.0000
  C   C22       1.0  0.13013  0.40727  0.18030  1.0000
  H   H20       1.0  0.22358  0.15975  0.21702  1.0000
  H   H21       1.0  0.15006  0.31818  0.15754  1.0000
  C   C23       1.0  0.29226  0.32163  0.17962  1.0000
  C   C24       1.0  0.27333  0.33032  0.17242  1.0000
  C   C25       1.0  0.25763  0.31866  0.15452  1.0000
  C   C26       1.0  0.26048  0.29808  0.14356  1.0000
  C   C27       1.0  0.27971  0.28969  0.15062  1.0000
  C   C28       1.0  0.29543  0.30134  0.16854  1.0000
  H   H22       1.0  0.27090  0.34614  0.18057  1.0000
  H   H23       1.0  0.24303  0.32554  0.14914  1.0000
  H   H24       1.0  0.28262  0.27444  0.14214  1.0000
  H   H25       1.0  0.31024  0.29468  0.17379  1.0000
  H   H26       1.0  0.23562  0.13690  0.20685  1.0000
  H   H27       1.0  0.37406  0.41083  0.21478  1.0000
  H   H28       1.0  0.13329  0.30028  0.19042  1.0000
  C   C29       1.0  0.29338  0.07387  0.06413  1.0000
  C   C30       1.0  0.03828  0.19958  0.03466  1.0000
  N   N1        1.0  0.14336  0.34409  0.19252  1.0000
  C   C31       1.0  0.13836  0.34448  0.21390  1.0000
  C   C32       1.0  0.17403  0.35646  0.18955  1.0000
  C   C33       1.0  0.18939  0.34114  0.19833  1.0000
  C   C34       1.0  0.14202  0.39140  0.19212  1.0000
  C   C35       1.0  0.13517  0.31910  0.22550  1.0000
  H   H29       1.0  0.99487  0.25147  0.24426  1.0000
  C   C36       1.0  0.21803  0.35153  0.19038  1.0000
  H   H30       1.0  0.15518  0.36376  0.22156  1.0000
  H   H31       1.0  0.17759  0.35871  0.17378  1.0000
  H   H32       1.0  0.18550  0.37813  0.19610  1.0000
  H   H33       1.0  0.17786  0.31833  0.19499  1.0000
  H   H34       1.0  0.19277  0.34544  0.21436  1.0000
  H   H35       1.0  0.16498  0.40412  0.19325  1.0000
  H   H36       1.0  0.13453  0.39001  0.20692  1.0000
  H   H37       1.0  0.11483  0.30063  0.22106  1.0000
  H   H38       1.0  0.15166  0.31333  0.22305  1.0000
  C   C37       1.0  0.38106  0.41344  0.18416  1.0000
  H   H39       1.0  0.41584  0.33953  0.17459  1.0000
  H   H40       1.0  0.28554  0.47057  0.18683  1.0000
  H   H41       1.0  0.23054  0.37455  0.19267  1.0000
  H   H42       1.0  0.22941  0.34183  0.19807  1.0000
  H   H43       1.0  0.21592  0.34576  0.17457  1.0000
  H   H44       1.0  0.17804  0.16996  0.16780  1.0000
  H   H45       1.0  0.02228  0.27799  0.21454  1.0000
  Fe  Fe9       1.0  0.06806  0.42062  0.25361  1.0000
  H   H46       1.0  0.33563  0.39289  0.18289  1.0000
  H   H47       1.0  0.20711  0.42645  0.21731  1.0000
  H   H48       1.0  0.28087  0.09652  0.03143  1.0000
  C   C38       1.0  0.45967  0.46002  0.22133  1.0000
  H   H49       1.0  0.20508  0.14382  0.18270  1.0000
  C   C39       1.0  0.02318  0.28576  0.15661  1.0000
  H   H50       1.0  0.24990  0.06093  0.06540  1.0000
  H   H51       1.0  0.21382  0.30043  0.25442  1.0000
  H   H52       1.0  0.13677  0.42804  0.18766  1.0000
  C   C40       1.0  0.99967  0.27330  0.24134  1.0000
  C   C41       1.0  0.15147  0.11936  0.02733  1.0000
  H   H53       1.0  0.03432  0.30926  0.22982  1.0000
  H   H54       1.0  0.12945  0.22155  0.04295  1.0000
  H   H55       1.0  0.29676  0.07421  0.08020  1.0000
  H   H56       1.0  0.99691  0.16564  0.16804  1.0000
  H   H57       1.0  0.39709  0.41443  0.17451  1.0000
  H   H58       1.0  0.14645  0.07726  0.02860  1.0000
  H   H59       1.0  0.05210  0.28911  0.06543  1.0000
  H   H60       1.0  0.01663  0.19676  0.03324  1.0000
  S   S17       1.0  0.27216  0.35634  0.24089  1.0000
  H   H61       1.0  0.37244  0.38042  0.20428  1.0000
  C   C42       1.0  0.16979  0.21882  0.00978  1.0000
  C   C43       1.0  0.01134  0.32150  0.17974  1.0000
  C   C44       1.0  0.04295  0.30430  0.17111  1.0000
  H   H62       1.0  0.27194  0.09808  0.06623  1.0000
  H   H63       1.0  0.43656  0.41535  0.23980  1.0000
  H   H64       1.0  0.05688  0.17144  0.03514  1.0000
  H   H65       1.0  0.43092  0.45119  0.19618  1.0000
  H   H66       1.0  0.47994  0.48841  0.19851  1.0000
  H   H67       1.0  0.24744  0.20610  0.19081  1.0000
  H   H68       1.0  0.35033  0.40274  0.15975  1.0000
  C   C45       1.0  0.18175  0.41561  0.24192  1.0000
  H   H69       1.0  0.18674  0.22808  0.02157  1.0000
  H   H70       1.0  0.14286  0.25311  0.05812  1.0000
  C   C46       1.0  0.01466  0.14852  0.04292  1.0000
  H   H71       1.0  0.26397  0.05979  0.03010  1.0000
  H   H72       1.0  0.19599  0.14245  0.02531  1.0000
  C   C47       1.0  0.10237  0.24073  0.04335  1.0000
  H   H73       1.0  0.34991  0.37304  0.17104  1.0000
  H   H74       1.0  0.06515  0.25280  0.05805  1.0000
  C   C48       1.0  0.13125  0.24273  0.04404  1.0000
  C   C49       1.0  0.20430  0.41804  0.23159  1.0000
  H   H75       1.0  0.24602  0.00113  0.22135  1.0000
  H   H76       1.0  0.23356  0.26513  0.01774  1.0000
  C   C50       1.0  0.03653  0.17050  0.03097  1.0000
  H   H77       1.0  0.16793  0.99618  0.02208  1.0000
  H   H78       1.0  0.09130  0.22810  0.05547  1.0000
  H   H79       1.0  0.10550  0.26230  0.04569  1.0000
  H   H80       1.0  0.14668  0.14170  0.13065  1.0000
  H   H81       1.0  0.20489  0.26448  0.16071  1.0000
  H   H82       1.0  0.39717  0.35670  0.20023  1.0000
  H   H83       1.0  0.27607  0.47323  0.22103  1.0000
  H   H84       1.0  0.47121  0.44833  0.21841  1.0000
  H   H85       1.0  0.14333  0.25513  0.03207  1.0000
  H   H86       1.0  0.03576  0.24755  0.01778  1.0000
  H   H87       1.0  0.25060  0.13670  0.02513  1.0000
  H   H88       1.0  0.19692  0.13883  0.15071  1.0000
  H   H89       1.0  0.16978  0.10167  0.04789  1.0000
  C   C51       1.0  0.20303  0.22964  0.17682  1.0000
  N   N2        1.0  0.22183  0.19684  0.16386  1.0000
  H   H90       1.0  0.15626  0.34279  0.25262  1.0000
  H   H91       1.0  0.10700  0.39567  0.17918  1.0000
  H   H92       1.0  0.31879  0.46755  0.23450  1.0000
  N   N3        1.0  0.23567  0.07723  0.02990  1.0000
  C   C52       1.0  0.42959  0.44495  0.21152  1.0000
  C   C53       1.0  0.23110  0.09855  0.04129  1.0000
  H   H93       1.0  0.13273  0.08788  0.04842  1.0000
  C   C54       1.0  0.21223  0.04851  0.03312  1.0000
  C   C55       1.0  0.18335  0.04118  0.02304  1.0000
  H   H94       1.0  0.15541  0.16634  0.01815  1.0000
  C   C56       1.0  0.12833  0.31120  0.16125  1.0000
  C   C57       1.0  0.25336  0.12945  0.03962  1.0000
  C   C58       1.0  0.25073  0.14860  0.05492  1.0000
  C   C59       1.0  0.22345  0.41006  0.23973  1.0000
  H   H95       1.0  0.28998  0.05336  0.05795  1.0000
  S   S18       1.0  0.24011  0.00932  0.08580  1.0000
  C   C60       1.0  0.38472  0.40350  0.20458  1.0000
  H   H96       1.0  0.21088  0.09739  0.03639  1.0000
  H   H97       1.0  0.22909  0.09378  0.05694  1.0000
  H   H98       1.0  0.11888  0.26742  0.16123  1.0000
  H   H99       1.0  0.21136  0.18888  0.19372  1.0000
  H   H100      1.0  0.21751  0.03193  0.02849  1.0000
  H   H101      1.0  0.20925  0.04577  0.04895  1.0000
  H   H102      1.0  0.16727  0.42209  0.23564  1.0000
  H   H103      1.0  0.17603  0.05575  0.02835  1.0000
  H   H104      1.0  0.41762  0.45417  0.21852  1.0000
  C   C61       1.0  0.26801  0.07794  0.05906  1.0000
  H   H105      1.0  0.22831  0.27459  0.18248  1.0000
  C   C62       1.0  0.19236  0.17699  0.15581  1.0000
  H   H106      1.0  0.27483  0.13233  0.04150  1.0000
  H   H107      1.0  0.04536  0.20560  0.05025  1.0000
  H   H108      1.0  0.22884  0.14446  0.05527  1.0000
  H   H109      1.0  0.25810  0.14537  0.06947  1.0000
  H   H110      1.0  0.26382  0.17079  0.05163  1.0000
  C   C63       1.0  0.15015  0.09504  0.03870  1.0000
  C   C64       1.0  0.35248  0.39434  0.17391  1.0000
  H   H111      1.0  0.98833  0.25669  0.02616  1.0000
  H   H112      1.0  0.06288  0.30478  0.17312  1.0000
  H   H113      1.0  0.34129  0.01850  0.22342  1.0000
  H   H114      1.0  0.31231  0.09080  0.05842  1.0000
  C   C65       1.0  0.24284  0.19735  0.15023  1.0000
  C   C66       1.0  0.22484  0.22596  0.16520  1.0000
  C   C67       1.0  0.27398  0.21521  0.15735  1.0000
  C   C68       1.0  0.29282  0.21587  0.14151  1.0000
  H   H115      1.0  0.23947  0.20472  0.13588  1.0000
  H   H116      1.0  0.24014  0.17615  0.14695  1.0000
  H   H117      1.0  0.11242  0.27868  0.13804  1.0000
  H   H118      1.0  0.22399  0.23333  0.15029  1.0000
  H   H119      1.0  0.24545  0.24114  0.17226  1.0000
  H   H120      1.0  0.27938  0.23707  0.16126  1.0000
  H   H121      1.0  0.27915  0.20627  0.17027  1.0000
  H   H122      1.0  0.19705  0.15697  0.12933  1.0000
  H   H123      1.0  0.07253  0.26696  0.02067  1.0000
  H   H124      1.0  0.28887  0.22521  0.12831  1.0000
  H   H125      1.0  0.31498  0.22869  0.14687  1.0000
  H   H126      1.0  0.02806  0.27218  0.14775  1.0000
  H   H127      1.0  0.20501  0.22563  0.19238  1.0000
  H   H128      1.0  0.19720  0.32196  0.25105  1.0000
  H   H129      1.0  0.08877  0.27278  0.15673  1.0000
  H   H130      1.0  0.19155  0.26164  0.18439  1.0000
  H   H131      1.0  0.18406  0.04200  0.00701  1.0000
  H   H132      1.0  0.08744  0.20840  0.02010  1.0000
  H   H133      1.0  0.13770  0.41039  0.16544  1.0000
  H   H134      1.0  0.15409  0.11280  0.12941  1.0000
  H   H135      1.0  0.24021  0.15817  0.17521  1.0000
  H   H136      1.0  0.13930  0.36543  0.16724  1.0000
  N   N4        1.0  0.05628  0.22220  0.02164  1.0000
  H   H137      1.0  0.10955  0.35097  0.18098  1.0000
  C   C69       1.0  0.20728  0.25943  0.17602  1.0000
  C   C70       1.0  0.22672  0.16092  0.18556  1.0000
  C   C71       1.0  0.26277  0.07804  0.03671  1.0000
  C   C72       1.0  0.12690  0.31475  0.18352  1.0000
  H   H138      1.0  0.41250  0.36523  0.23104  1.0000
  C   C73       1.0  0.22723  0.18947  0.18402  1.0000
  H   H139      1.0  0.19235  0.18606  0.02129  1.0000
  C   C74       1.0  0.18761  0.15068  0.14344  1.0000
  C   C75       1.0  0.15664  0.13091  0.13873  1.0000
  H   H140      1.0  0.11986  0.32316  0.15304  1.0000
  H   H141      1.0  0.14600  0.12302  0.15228  1.0000
  H   H142      1.0  0.28912  0.19444  0.13747  1.0000
  Fe  Fe10      1.0  0.28386  0.40135  0.23739  1.0000
  H   H143      1.0  0.00678  0.33559  0.18826  1.0000
  C   C76       1.0  0.40104  0.37523  0.23755  1.0000
  C   C77       1.0  0.29775  0.48575  0.21704  1.0000
  C   C78       1.0  0.04920  0.28134  0.23938  1.0000
  H   H144      1.0  0.01368  0.12794  0.03986  1.0000
  H   H145      1.0  0.07642  0.30028  0.04681  1.0000
  H   H146      1.0  0.15876  0.00988  0.04307  1.0000
  C   C79       1.0  0.99162  0.30311  0.16510  1.0000
  C   C80       1.0  0.99733  0.28501  0.15346  1.0000
  S   S19       1.0  0.24931  0.99946  0.03125  1.0000
  H   H147      1.0  0.40490  0.41657  0.24194  1.0000
  N   N5        1.0  0.41448  0.41348  0.21221  1.0000
  H   H148      1.0  0.98838  0.31519  0.24510  1.0000
  H   H149      1.0  0.14125  0.00672  0.01955  1.0000
  H   H150      1.0  0.29125  0.00644  0.22034  1.0000
  H   H151      1.0  0.03042  0.16280  0.01556  1.0000
  S   S20       1.0  0.03393  0.37637  0.24508  1.0000
  C   C81       1.0  0.05066  0.25516  0.04738  1.0000
  Fe  Fe11      1.0  0.19512  0.99816  0.08588  1.0000
  H   H152      1.0  0.44221  0.35761  0.19409  1.0000
  C   C82       1.0  0.42932  0.36026  0.18215  1.0000
  H   H153      1.0  0.02915  0.24068  0.05113  1.0000
  H   H154      1.0  0.06830  0.29231  0.23143  1.0000
  C   C83       1.0  0.42928  0.40147  0.20036  1.0000
  H   H155      1.0  0.03970  0.28784  0.04046  1.0000
  C   C84       1.0  0.05499  0.28494  0.05010  1.0000
  H   H156      1.0  0.44640  0.40096  0.20957  1.0000
  C   C85       1.0  0.23663  0.08370  0.00870  1.0000
  H   H157      1.0  0.02000  0.15400  0.05871  1.0000
  C   C86       1.0  0.17717  0.13182  0.01492  1.0000
  C   C87       1.0  0.41486  0.40657  0.23331  1.0000
  C   C88       1.0  0.41117  0.37192  0.19028  1.0000
  H   H158      1.0  0.45885  0.46215  0.23735  1.0000
  H   H159      1.0  0.43991  0.41532  0.18845  1.0000
  S   S21       1.0  0.39144  0.46075  0.25406  1.0000
  S   S22       1.0  0.99296  0.20412  0.12535  1.0000
  S   S23       1.0  0.99079  0.18175  0.08059  1.0000
  H   H160      1.0  0.99377  0.14659  0.03911  1.0000
  C   C89       1.0  0.02620  0.28640  0.22985  1.0000
  H   H161      1.0  0.33394  0.99626  0.20156  1.0000
  H   H162      1.0  0.09834  0.24249  0.01258  1.0000
  C   C90       1.0  0.17461  0.17481  0.01014  1.0000
  S   S24       1.0  0.33895  0.37890  0.25212  1.0000
  H   H163      1.0  0.21953  0.00908  0.19260  1.0000
  H   H164      1.0  0.11912  0.33028  0.25069  1.0000
  H   H165      1.0  0.17833  0.11381  0.00792  1.0000
  H   H166      1.0  0.00600  0.28509  0.25571  1.0000
  H   H167      1.0  0.29744  0.45047  0.20107  1.0000
  C   C91       1.0  0.33480  0.99688  0.21773  1.0000
  H   H168      1.0  0.04283  0.25870  0.23885  1.0000
  H   H169      1.0  0.13176  0.11177  0.01809  1.0000
  H   H170      1.0  0.99815  0.31487  0.22123  1.0000
  H   H171      1.0  0.14953  0.20931  0.01650  1.0000
  C   C92       1.0  0.25050  0.23924  0.00719  1.0000
  H   H172      1.0  0.27095  0.47383  0.25229  1.0000
  C   C93       1.0  0.98469  0.24235  0.01387  1.0000
  H   H173      1.0  0.05411  0.28965  0.25478  1.0000
  S   S25       1.0  0.07926  0.35481  0.25451  1.0000
  C   C94       1.0  0.47637  0.48937  0.21416  1.0000
  C   C95       1.0  0.31920  0.48820  0.23357  1.0000
  H   H174      1.0  0.13272  0.30638  0.25532  1.0000
  S   S26       1.0  0.05586  0.45657  0.25504  1.0000
  H   H175      1.0  0.27659  0.99131  0.25172  1.0000
  H   H176      1.0  0.25464  0.10444  0.00656  1.0000
  Fe  Fe12      1.0  0.30132  0.37194  0.26800  1.0000
  H   H177      1.0  0.12552  0.28065  0.50411  1.0000
  S   S27       1.0  0.28689  0.35510  0.29798  1.0000
  Fe  Fe13      1.0  0.04959  0.36253  0.27156  1.0000
  S   S28       1.0  0.08149  0.40654  0.28115  1.0000
  S   S29       1.0  0.01900  0.32536  0.28829  1.0000
  C   C96       1.0  0.00225  0.27982  0.33708  1.0000
  Fe  Fe14      1.0  0.22634  0.01069  0.39591  1.0000
  S   S30       1.0  0.24669  0.05825  0.39938  1.0000
  Fe  Fe15      1.0  0.20148  0.17579  0.38993  1.0000
  S   S31       1.0  0.24745  0.20322  0.39352  1.0000
  S   S32       1.0  0.18217  0.12865  0.38509  1.0000
  Fe  Fe16      1.0  0.19059  0.22580  0.39347  1.0000
  S   S33       1.0  0.23617  0.25654  0.39773  1.0000
  S   S34       1.0  0.16261  0.24571  0.39239  1.0000
  Fe  Fe17      1.0  0.24086  0.23186  0.37295  1.0000
  S   S35       1.0  0.26524  0.24725  0.34563  1.0000
  Fe  Fe18      1.0  0.23780  0.22506  0.41778  1.0000
  S   S36       1.0  0.26208  0.23377  0.44723  1.0000
  S   S37       1.0  0.19508  0.20260  0.36784  1.0000
  S   S38       1.0  0.19187  0.19610  0.41516  1.0000
  H   H178      1.0  0.04353  0.20136  0.45896  1.0000
  S   S39       1.0  0.03283  0.17110  0.39677  1.0000
  S   S40       1.0  0.03132  0.24026  0.41309  1.0000
  C   C97       1.0  0.06876  0.19146  0.39437  1.0000
  C   C98       1.0  0.08029  0.22011  0.39195  1.0000
  C   C99       1.0  0.10909  0.23638  0.39095  1.0000
  C   C100      1.0  0.12653  0.22410  0.39222  1.0000
  C   C101      1.0  0.11503  0.19528  0.39398  1.0000
  C   C102      1.0  0.08613  0.17897  0.39510  1.0000
  H   H179      1.0  0.06705  0.22976  0.39058  1.0000
  H   H180      1.0  0.11788  0.25858  0.38917  1.0000
  H   H181      1.0  0.12840  0.18565  0.39471  1.0000
  H   H182      1.0  0.07728  0.15674  0.39675  1.0000
  C   C103      1.0  0.22798  0.07723  0.39632  1.0000
  C   C104      1.0  0.24162  0.10614  0.40096  1.0000
  C   C105      1.0  0.22778  0.12215  0.39793  1.0000
  C   C106      1.0  0.20012  0.10933  0.39017  1.0000
  C   C107      1.0  0.18638  0.08036  0.38585  1.0000
  C   C108      1.0  0.20020  0.06435  0.38894  1.0000
  H   H183      1.0  0.26313  0.11627  0.40662  1.0000
  H   H184      1.0  0.23855  0.14438  0.40142  1.0000
  H   H185      1.0  0.16498  0.07025  0.37988  1.0000
  H   H186      1.0  0.18945  0.04212  0.38531  1.0000
  C   C109      1.0  0.24686  0.23395  0.46930  1.0000
  C   C110      1.0  0.21965  0.22992  0.46940  1.0000
  C   C111      1.0  0.30052  0.20359  0.36505  1.0000
  H   H187      1.0  0.20742  0.22621  0.45578  1.0000
  C   C112      1.0  0.02189  0.31485  0.31243  1.0000
  C   C113      1.0  0.01287  0.24695  0.50481  1.0000
  H   H188      1.0  0.32938  0.22819  0.31348  1.0000
  C   C114      1.0  0.02347  0.29708  0.35099  1.0000
  C   C115      1.0  0.04345  0.33186  0.32623  1.0000
  S   S41       1.0  0.31085  0.41691  0.26530  1.0000
  C   C116      1.0  0.40210  0.37136  0.25946  1.0000
  C   C117      1.0  0.28014  0.32428  0.31046  1.0000
  C   C118      1.0  0.26844  0.32055  0.32862  1.0000
  C   C119      1.0  0.26308  0.29685  0.33930  1.0000
  C   C120      1.0  0.26987  0.27670  0.33216  1.0000
  C   C121      1.0  0.28147  0.28037  0.31396  1.0000
  C   C122      1.0  0.28637  0.30384  0.30311  1.0000
  H   H189      1.0  0.26385  0.33631  0.33464  1.0000
  H   H190      1.0  0.25434  0.29452  0.35330  1.0000
  H   H191      1.0  0.28690  0.26503  0.30827  1.0000
  H   H192      1.0  0.29546  0.30637  0.28924  1.0000
  C   C123      1.0  0.26251  0.40424  0.33216  1.0000
  H   H193      1.0  0.21931  0.38720  0.33733  1.0000
  H   H194      1.0  0.33246  0.20408  0.38568  1.0000
  H   H195      1.0  0.16162  0.22416  0.45745  1.0000
  H   H196      1.0  0.22360  0.03168  0.46165  1.0000
  N   N6        1.0  0.26779  0.16254  0.34074  1.0000
  C   C124      1.0  0.26185  0.13330  0.33483  1.0000
  C   C125      1.0  0.28166  0.18147  0.32458  1.0000
  C   C126      1.0  0.28624  0.17185  0.35942  1.0000
  C   C127      1.0  0.24125  0.16373  0.34416  1.0000
  C   C128      1.0  0.21717  0.14898  0.32803  1.0000
  C   C129      1.0  0.24664  0.11094  0.34967  1.0000
  C   C130      1.0  0.31010  0.18403  0.31950  1.0000
  C   C131      1.0  0.32478  0.20794  0.30610  1.0000
  C   C132      1.0  0.19333  0.15547  0.33110  1.0000
  C   C133      1.0  0.23913  0.08171  0.34148  1.0000
  H   H197      1.0  0.28160  0.13267  0.33274  1.0000
  H   H198      1.0  0.24984  0.12641  0.32042  1.0000
  H   H199      1.0  0.26822  0.17414  0.31081  1.0000
  H   H200      1.0  0.28420  0.20276  0.32785  1.0000
  H   H201      1.0  0.30289  0.16558  0.35900  1.0000
  H   H202      1.0  0.27403  0.16088  0.37185  1.0000
  H   H203      1.0  0.23290  0.15459  0.35818  1.0000
  H   H204      1.0  0.24554  0.18582  0.34593  1.0000
  H   H205      1.0  0.20853  0.12599  0.32810  1.0000
  H   H206      1.0  0.22416  0.15559  0.31335  1.0000
  H   H207      1.0  0.26035  0.11510  0.36314  1.0000
  H   H208      1.0  0.22715  0.11069  0.35365  1.0000
  H   H209      1.0  0.32431  0.18791  0.33261  1.0000
  H   H210      1.0  0.30691  0.16450  0.31177  1.0000
  H   H211      1.0  0.31163  0.20465  0.29243  1.0000
  H   H212      1.0  0.20053  0.17817  0.33004  1.0000
  H   H213      1.0  0.17615  0.14397  0.31972  1.0000
  H   H214      1.0  0.18506  0.14888  0.34553  1.0000
  H   H215      1.0  0.22445  0.07595  0.32835  1.0000
  H   H216      1.0  0.25812  0.08059  0.33775  1.0000
  H   H217      1.0  0.22890  0.06628  0.35259  1.0000
  H   H218      1.0  0.10486  0.33330  0.30840  1.0000
  N   N7        1.0  0.19470  0.33810  0.31114  1.0000
  H   H219      1.0  0.16720  0.30924  0.28773  1.0000
  C   C134      1.0  0.17458  0.34835  0.31711  1.0000
  C   C135      1.0  0.22373  0.36259  0.31290  1.0000
  C   C136      1.0  0.19447  0.31640  0.32451  1.0000
  C   C137      1.0  0.16717  0.28848  0.32410  1.0000
  C   C138      1.0  0.23358  0.37919  0.33291  1.0000
  C   C139      1.0  0.14469  0.33373  0.30692  1.0000
  C   C140      1.0  0.12586  0.34363  0.31624  1.0000
  C   C141      1.0  0.17065  0.26800  0.33739  1.0000
  H   H220      1.0  0.98962  0.28295  0.47948  1.0000
  H   H221      1.0  0.06535  0.48855  0.30073  1.0000
  H   H222      1.0  0.24076  0.46491  0.27840  1.0000
  H   H223      1.0  0.17279  0.34748  0.33315  1.0000
  H   H224      1.0  0.18264  0.37079  0.31403  1.0000
  H   H225      1.0  0.22593  0.37762  0.30154  1.0000
  H   H226      1.0  0.23932  0.35554  0.31020  1.0000
  H   H227      1.0  0.21171  0.31165  0.32169  1.0000
  H   H228      1.0  0.19874  0.32468  0.33991  1.0000
  H   H229      1.0  0.16081  0.27831  0.30926  1.0000
  H   H230      1.0  0.15030  0.29198  0.32961  1.0000
  H   H231      1.0  0.23509  0.36595  0.34443  1.0000
  H   H232      1.0  0.28164  0.08963  0.44202  1.0000
  H   H233      1.0  0.13477  0.31075  0.30746  1.0000
  H   H234      1.0  0.17643  0.27680  0.35266  1.0000
  H   H235      1.0  0.15074  0.24823  0.33719  1.0000
  H   H236      1.0  0.18698  0.26310  0.33243  1.0000
  H   H237      1.0  0.31621  0.21572  0.35471  1.0000
  H   H238      1.0  0.27782  0.39721  0.32830  1.0000
  H   H239      1.0  0.14374  0.26814  0.42796  1.0000
  C   C142      1.0  0.15000  0.23278  0.44871  1.0000
  H   H240      1.0  0.15610  0.23290  0.43357  1.0000
  C   C143      1.0  0.30300  0.14375  0.45189  1.0000
  N   N8        1.0  0.26501  0.06612  0.46741  1.0000
  C   C144      1.0  0.25938  0.07122  0.48796  1.0000
  C   C145      1.0  0.23762  0.05174  0.45529  1.0000
  C   C146      1.0  0.27726  0.04633  0.46818  1.0000
  C   C147      1.0  0.27983  0.03401  0.44832  1.0000
  C   C148      1.0  0.22151  0.06849  0.45227  1.0000
  C   C149      1.0  0.29859  0.02033  0.45053  1.0000
  C   C150      1.0  0.28419  0.08028  0.50342  1.0000
  H   H241      1.0  0.25184  0.08684  0.48871  1.0000
  H   H242      1.0  0.24066  0.04617  0.44032  1.0000
  H   H243      1.0  0.26495  0.02842  0.47715  1.0000
  H   H244      1.0  0.29850  0.05687  0.47571  1.0000
  H   H245      1.0  0.28848  0.05034  0.43757  1.0000
  H   H246      1.0  0.25905  0.01753  0.44238  1.0000
  H   H247      1.0  0.23276  0.08586  0.44266  1.0000
  H   H248      1.0  0.19425  0.04104  0.42803  1.0000
  H   H249      1.0  0.32027  0.03614  0.45520  1.0000
  H   H250      1.0  0.26217  0.41882  0.32125  1.0000
  H   H251      1.0  0.26943  0.41563  0.34664  1.0000
  H   H252      1.0  0.19424  0.17538  0.49189  1.0000
  H   H253      1.0  0.24256  0.30262  0.42461  1.0000
  H   H254      1.0  0.32479  0.14729  0.45261  1.0000
  H   H255      1.0  0.30708  0.09641  0.46121  1.0000
  C   C151      1.0  0.28523  0.09242  0.45821  1.0000
  C   C152      1.0  0.15038  0.26088  0.47729  1.0000
  H   H256      1.0  0.21857  0.07690  0.46621  1.0000
  C   C153      1.0  0.28530  0.12000  0.46462  1.0000
  H   H257      1.0  0.19916  0.15421  0.46666  1.0000
  C   C154      1.0  0.31561  0.21005  0.38532  1.0000
  H   H258      1.0  0.10771  0.21550  0.43514  1.0000
  C   C155      1.0  0.04831  0.31630  0.43173  1.0000
  H   H259      1.0  0.28514  0.21136  0.36488  1.0000
  H   H260      1.0  0.23756  0.32210  0.44397  1.0000
  H   H261      1.0  0.30090  0.19868  0.39645  1.0000
  H   H262      1.0  0.32500  0.23278  0.38912  1.0000
  C   C156      1.0  0.03144  0.32227  0.44634  1.0000
  H   H263      1.0  0.99602  0.34051  0.42365  1.0000
  C   C157      1.0  0.25108  0.23919  0.50493  1.0000
  H   H264      1.0  0.39103  0.34876  0.26219  1.0000
  H   H265      1.0  0.05935  0.35201  0.32228  1.0000
  C   C158      1.0  0.11866  0.21127  0.44762  1.0000
  S   S42       1.0  0.15197  0.40414  0.27495  1.0000
  H   H266      1.0  0.03446  0.34359  0.44410  1.0000
  H   H267      1.0  0.04041  0.32191  0.46109  1.0000
  H   H268      1.0  0.04659  0.29538  0.43376  1.0000
  H   H269      1.0  0.39192  0.38181  0.26720  1.0000
  H   H270      1.0  0.26418  0.11786  0.46379  1.0000
  H   H271      1.0  0.00525  0.10930  0.38507  1.0000
  C   C159      1.0  0.19261  0.05014  0.44219  1.0000
  H   H272      1.0  0.30316  0.16332  0.45709  1.0000
  H   H273      1.0  0.19880  0.11181  0.47681  1.0000
  H   H274      1.0  0.25362  0.46742  0.30339  1.0000
  C   C160      1.0  0.10465  0.28409  0.43298  1.0000
  C   C161      1.0  0.99779  0.10196  0.36969  1.0000
  H   H275      1.0  0.12355  0.33828  0.33173  1.0000
  C   C162      1.0  0.26243  0.23834  0.48715  1.0000
  C   C163      1.0  0.21634  0.13145  0.48345  1.0000
  H   H276      1.0  0.34475  0.20900  0.30231  1.0000
  H   H277      1.0  0.10861  0.21158  0.46106  1.0000
  C   C164      1.0  0.04406  0.32313  0.34537  1.0000
  H   H278      1.0  0.07059  0.33214  0.43394  1.0000
  H   H279      1.0  0.22838  0.16487  0.43941  1.0000
  H   H280      1.0  0.09176  0.16683  0.44167  1.0000
  C   C165      1.0  0.11434  0.18157  0.44430  1.0000
  H   H281      1.0  0.12505  0.17998  0.43144  1.0000
  H   H282      1.0  0.12261  0.17532  0.45727  1.0000
  H   H283      1.0  0.18200  0.06293  0.43931  1.0000
  H   H284      1.0  0.21244  0.12797  0.44294  1.0000
  H   H285      1.0  0.00784  0.07997  0.34718  1.0000
  C   C166      1.0  0.22774  0.14889  0.44946  1.0000
  H   H286      1.0  0.24479  0.29358  0.44940  1.0000
  S   S43       1.0  0.02453  0.28791  0.37573  1.0000
  H   H287      1.0  0.08445  0.28192  0.43727  1.0000
  C   C167      1.0  0.18947  0.27886  0.45672  1.0000
  C   C168      1.0  0.11606  0.27141  0.44819  1.0000
  H   H288      1.0  0.21079  0.30255  0.28994  1.0000
  H   H289      1.0  0.29426  0.13889  0.43653  1.0000
  H   H290      1.0  0.05531  0.22961  0.48928  1.0000
  H   H291      1.0  0.18754  0.22814  0.48718  1.0000
  H   H292      1.0  0.17974  0.03295  0.45150  1.0000
  H   H293      1.0  0.04079  0.31707  0.41656  1.0000
  C   C169      1.0  0.98879  0.30278  0.47735  1.0000
  H   H294      1.0  0.99328  0.29829  0.42800  1.0000
  H   H295      1.0  0.01472  0.18681  0.47417  1.0000
  H   H296      1.0  0.19642  0.30090  0.46168  1.0000
  H   H297      1.0  0.28355  0.24158  0.48720  1.0000
  C   C170      1.0  0.23376  0.30096  0.43897  1.0000
  H   H298      1.0  0.29958  0.47571  0.29240  1.0000
  N   N9        1.0  0.21135  0.13596  0.50427  1.0000
  H   H299      1.0  0.15373  0.17974  0.50083  1.0000
  H   H300      1.0  0.10109  0.27308  0.41853  1.0000
  C   C171      1.0  0.20871  0.31850  0.28128  1.0000
  H   H301      1.0  0.19959  0.27086  0.46743  1.0000
  H   H302      1.0  0.29412  0.12651  0.47988  1.0000
  H   H303      1.0  0.14541  0.33898  0.29139  1.0000
  C   C172      1.0  0.21995  0.39965  0.25830  1.0000
  H   H304      1.0  0.15893  0.29849  0.44366  1.0000
  H   H305      1.0  0.42400  0.38017  0.26554  1.0000
  H   H306      1.0  0.23498  0.12836  0.48296  1.0000
  H   H307      1.0  0.24876  0.15049  0.45078  1.0000
  H   H308      1.0  0.10066  0.24914  0.44882  1.0000
  C   C173      1.0  0.20849  0.23118  0.48714  1.0000
  C   C174      1.0  0.20259  0.28042  0.43706  1.0000
  H   H309      1.0  0.20048  0.25984  0.43232  1.0000
  N   N10       1.0  0.15810  0.26200  0.45646  1.0000
  H   H310      1.0  0.19266  0.28741  0.42555  1.0000
  H   H311      1.0  0.19593  0.39125  0.28351  1.0000
  C   C175      1.0  0.14520  0.27548  0.44344  1.0000
  H   H312      1.0  0.11923  0.30663  0.43185  1.0000
  H   H313      1.0  0.11726  0.28198  0.46243  1.0000
  H   H314      1.0  0.00068  0.38506  0.43803  1.0000
  C   C176      1.0  0.21940  0.15432  0.46932  1.0000
  H   H315      1.0  0.01025  0.31950  0.48164  1.0000
  H   H316      1.0  0.29075  0.00399  0.46136  1.0000
  H   H317      1.0  0.18797  0.34371  0.28082  1.0000
  Fe  Fe19      1.0  0.99775  0.22723  0.43402  1.0000
  C   C177      1.0  0.22415  0.23600  0.50496  1.0000
  C   C178      1.0  0.00027  0.30009  0.44369  1.0000
  C   C179      1.0  0.05552  0.20935  0.48996  1.0000
  H   H318      1.0  0.33893  0.47997  0.26862  1.0000
  H   H319      1.0  0.30375  0.09672  0.49811  1.0000
  C   C180      1.0  0.28960  0.47632  0.26115  1.0000
  H   H320      1.0  0.13447  0.36657  0.31528  1.0000
  H   H321      1.0  0.00373  0.12052  0.36092  1.0000
  H   H322      1.0  0.23468  0.39363  0.26475  1.0000
  H   H323      1.0  0.25145  0.44003  0.28720  1.0000
  H   H324      1.0  0.14247  0.14662  0.48788  1.0000
  C   C181      1.0  0.18831  0.32736  0.29008  1.0000
  H   H325      1.0  0.99952  0.27979  0.44644  1.0000
  C   C182      1.0  0.19869  0.30628  0.26042  1.0000
  H   H326      1.0  0.07690  0.21291  0.48784  1.0000
  H   H327      1.0  0.29869  0.01026  0.43635  1.0000
  C   C183      1.0  0.16242  0.28954  0.48876  1.0000
  C   C184      1.0  0.03644  0.19075  0.47274  1.0000
  H   H328      1.0  0.12753  0.25013  0.47817  1.0000
  C   C185      1.0  0.18346  0.13530  0.50554  1.0000
  H   H329      1.0  0.03633  0.10138  0.36459  1.0000
  H   H330      1.0  0.02461  0.48666  0.26011  1.0000
  C   C186      1.0  0.00137  0.28875  0.31804  1.0000
  H   H331      1.0  0.06054  0.33677  0.35596  1.0000
  S   S44       1.0  0.01511  0.24420  0.46521  1.0000
  H   H332      1.0  0.00906  0.06855  0.37158  1.0000
  H   H333      1.0  0.22959  0.33677  0.28053  1.0000
  H   H334      1.0  0.24207  0.05185  0.49313  1.0000
  C   C187      1.0  0.19794  0.39811  0.26885  1.0000
  H   H335      1.0  0.23547  0.17535  0.47494  1.0000
  Fe  Fe20      1.0  0.00991  0.19576  0.40189  1.0000
  H   H336      1.0  0.28850  0.45541  0.25959  1.0000
  H   H337      1.0  0.15768  0.24801  0.48568  1.0000
  Fe  Fe21      1.0  0.00296  0.24666  0.39122  1.0000
  C   C188      1.0  0.25603  0.46217  0.28819  1.0000
  H   H338      1.0  0.16801  0.12020  0.49425  1.0000
  H   H339      1.0  0.03680  0.17053  0.47181  1.0000
  H   H340      1.0  0.00295  0.34970  0.46042  1.0000
  H   H341      1.0  0.17808  0.28730  0.26006  1.0000
  C   C189      1.0  0.28580  0.48094  0.28290  1.0000
  H   H342      1.0  0.99235  0.12804  0.42710  1.0000
  C   C190      1.0  0.01359  0.08690  0.36281  1.0000
  C   C191      1.0  0.99753  0.23510  0.48697  1.0000
  H   H343      1.0  0.98615  0.25985  0.34112  1.0000
  H   H344      1.0  0.98446  0.27539  0.30770  1.0000
  H   H345      1.0  0.16039  0.30531  0.47985  1.0000
  H   H346      1.0  0.03502  0.26075  0.50497  1.0000
  C   C192      1.0  0.15317  0.15912  0.50158  1.0000
  H   H347      1.0  0.18893  0.07590  0.49487  1.0000
  H   H348      1.0  0.18488  0.29733  0.49302  1.0000
  C   C193      1.0  0.17861  0.40578  0.26069  1.0000
  H   H349      1.0  0.27027  0.16268  0.50056  1.0000
  Fe  Fe22      1.0  0.11038  0.39919  0.26232  1.0000
  H   H350      1.0  0.20727  0.00322  0.49374  1.0000
  C   C194      1.0  0.18290  0.16347  0.50413  1.0000
  H   H351      1.0  0.23581  0.18126  0.50616  1.0000
  Fe  Fe23      1.0  0.01900  0.21808  0.59690  1.0000
  C   C195      1.0  0.03812  0.16236  0.54366  1.0000
  H   H352      1.0  0.03371  0.19949  0.54762  1.0000
  S   S45       1.0  0.06604  0.23774  0.59547  1.0000
  Fe  Fe24      1.0  0.18768  0.19899  0.59118  1.0000
  S   S46       1.0  0.14521  0.18167  0.60352  1.0000
  C   C196      1.0  0.08768  0.22181  0.59829  1.0000
  C   C197      1.0  0.11578  0.23705  0.59420  1.0000
  C   C198      1.0  0.13353  0.22490  0.59543  1.0000
  C   C199      1.0  0.12346  0.19753  0.60117  1.0000
  C   C200      1.0  0.09553  0.18249  0.60567  1.0000
  C   C201      1.0  0.07764  0.19449  0.60412  1.0000
  H   H353      1.0  0.12380  0.25829  0.58985  1.0000
  H   H354      1.0  0.15502  0.23677  0.59207  1.0000
  H   H355      1.0  0.08764  0.16137  0.61028  1.0000
  H   H356      1.0  0.05613  0.18263  0.60747  1.0000
  C   C202      1.0  0.05098  0.19468  0.54496  1.0000
  H   H357      1.0  0.06490  0.20283  0.55846  1.0000
  H   H358      1.0  0.09631  0.18535  0.55037  1.0000
  H   H359      1.0  0.05145  0.15548  0.53609  1.0000
  H   H360      1.0  0.08914  0.24797  0.55983  1.0000
  H   H361      1.0  0.11212  0.23187  0.66288  1.0000
  H   H362      1.0  0.12306  0.22450  0.64028  1.0000
  C   C203      1.0  0.12860  0.24040  0.65243  1.0000
  H   H363      1.0  0.12910  0.25947  0.64656  1.0000
  H   H364      1.0  0.17336  0.24821  0.63433  1.0000
  H   H365      1.0  0.01749  0.15316  0.53533  1.0000
  C   C204      1.0  0.09395  0.25776  0.54576  1.0000
  C   C205      1.0  0.09494  0.28619  0.54828  1.0000
  C   C206      1.0  0.10819  0.20525  0.54322  1.0000
  H   H366      1.0  0.11499  0.26148  0.54231  1.0000
  H   H367      1.0  0.16741  0.20547  0.64441  1.0000
  C   C207      1.0  0.15672  0.24707  0.66267  1.0000
  H   H368      1.0  0.15490  0.22740  0.66830  1.0000
  H   H369      1.0  0.16069  0.26182  0.67531  1.0000
  H   H370      1.0  0.11274  0.22237  0.55404  1.0000
  H   H371      1.0  0.10016  0.29740  0.53459  1.0000
  H   H372      1.0  0.11106  0.29901  0.56000  1.0000
  C   C208      1.0  0.13596  0.20702  0.53856  1.0000
  H   H373      1.0  0.14923  0.22695  0.53181  1.0000
  H   H374      1.0  0.07456  0.28360  0.55260  1.0000
  H   H375      1.0  0.01164  0.25166  0.53600  1.0000
  S   S47       1.0  0.00239  0.24899  0.59590  1.0000
  C   C209      1.0  0.07216  0.23940  0.52931  1.0000
  C   C210      1.0  0.09158  0.20649  0.52453  1.0000
  C   C211      1.0  0.03372  0.15027  0.56375  1.0000
  N   N11       1.0  0.06564  0.20918  0.52736  1.0000
  H   H376      1.0  0.02182  0.15785  0.57242  1.0000
  H   H377      1.0  0.05410  0.15624  0.57170  1.0000
  H   H378      1.0  0.02193  0.12713  0.56220  1.0000
  H   H379      1.0  0.00334  0.28144  0.73820  1.0000
  S   S48       1.0  0.19095  0.18237  0.56188  1.0000
  H   H380      1.0  0.13256  0.18921  0.52862  1.0000
  H   H381      1.0  0.17051  0.04000  0.51883  1.0000
  H   H382      1.0  0.05265  0.24062  0.53134  1.0000
  C   C212      1.0  0.18035  0.26032  0.64864  1.0000
  H   H383      1.0  0.18203  0.28103  0.64562  1.0000
  H   H384      1.0  0.17967  0.16802  0.63993  1.0000
  C   C213      1.0  0.18982  0.21124  0.64559  1.0000
  H   H385      1.0  0.08040  0.25025  0.51587  1.0000
  C   C214      1.0  0.99969  0.24180  0.52242  1.0000
  H   H386      1.0  0.17861  0.08282  0.61162  1.0000
  S   S49       1.0  0.18238  0.03228  0.60555  1.0000
  H   H387      1.0  0.15019  0.27206  0.51695  1.0000
  H   H388      1.0  0.14727  0.20620  0.55222  1.0000
  H   H389      1.0  0.10614  0.22397  0.51605  1.0000
  H   H390      1.0  0.08641  0.18718  0.51552  1.0000
  H   H391      1.0  0.17485  0.12755  0.51983  1.0000
  C   C215      1.0  0.18735  0.06120  0.52357  1.0000
  H   H392      1.0  0.19668  0.22892  0.67502  1.0000
  H   H393      1.0  0.15757  0.30789  0.51561  1.0000
  H   H394      1.0  0.02545  0.19643  0.51194  1.0000
  C   C216      1.0  0.19189  0.18520  0.65109  1.0000
  H   H395      1.0  0.99251  0.20043  0.72496  1.0000
  S   S50       1.0  0.99257  0.19482  0.62082  1.0000
  H   H396      1.0  0.01115  0.32818  0.72760  1.0000
  S   S51       1.0  0.98833  0.18886  0.57335  1.0000
  H   H397      1.0  0.99896  0.31141  0.51743  1.0000
  C   C217      1.0  0.19240  0.08596  0.60014  1.0000
  C   C218      1.0  0.19773  0.06426  0.59411  1.0000
  H   H398      1.0  0.19783  0.21687  0.63105  1.0000
  H   H399      1.0  0.18393  0.06610  0.53862  1.0000
  H   H400      1.0  0.03978  0.17365  0.50753  1.0000
  C   C219      1.0  0.18684  0.08259  0.50974  1.0000
  H   H401      1.0  0.18332  0.17831  0.66542  1.0000
  H   H402      1.0  0.14131  0.14840  0.51415  1.0000
  H   H403      1.0  0.98671  0.34033  0.73332  1.0000
  Fe  Fe25      1.0  0.19511  0.00112  0.59436  1.0000
  C   C220      1.0  0.98894  0.32148  0.72985  1.0000
  H   H404      1.0  0.19285  0.17667  0.51771  1.0000
  H   H405      1.0  0.16614  0.08164  0.51015  1.0000
  H   H406      1.0  0.00214  0.24047  0.74785  1.0000
  C   C221      1.0  0.04538  0.19605  0.50968  1.0000
  H   H407      1.0  0.21387  0.18935  0.65168  1.0000
  H   H408      1.0  0.29154  0.08940  0.70937  1.0000
  H   H409      1.0  0.20084  0.12846  0.59620  1.0000
  N   N12       1.0  0.20823  0.26348  0.65599  1.0000
  C   C222      1.0  0.20622  0.23571  0.66092  1.0000
  H   H410      1.0  0.46994  0.13035  0.73480  1.0000
  C   C223      1.0  0.20499  0.11180  0.59144  1.0000
  H   H411      1.0  0.30643  0.19587  0.52489  1.0000
  H   H412      1.0  0.20516  0.27215  0.68628  1.0000
  H   H413      1.0  0.47260  0.33371  0.72044  1.0000
  C   C224      1.0  0.26402  0.16576  0.51509  1.0000
  H   H414      1.0  0.29668  0.04964  0.72245  1.0000
  C   C225      1.0  0.27774  0.06772  0.70358  1.0000
  H   H415      1.0  0.44900  0.38279  0.66974  1.0000
  H   H416      1.0  0.22772  0.00258  0.74445  1.0000
  H   H417      1.0  0.22008  0.26157  0.62672  1.0000
  H   H418      1.0  0.26893  0.05406  0.73235  1.0000
  C   C226      1.0  0.27568  0.04746  0.71920  1.0000
  H   H419      1.0  0.25694  0.06567  0.69932  1.0000
  C   C227      1.0  0.47492  0.11994  0.70498  1.0000
  C   C228      1.0  0.28102  0.99416  0.72597  1.0000
  C   C229      1.0  0.31005  0.99724  0.67665  1.0000
  Fe  Fe26      1.0  0.41439  0.06781  0.75415  1.0000
  C   C230      1.0  0.29034  0.16065  0.68521  1.0000
  H   H420      1.0  0.39560  0.03293  0.66743  1.0000
  Fe  Fe27      1.0  0.42053  0.35114  0.74563  1.0000
  S   S52       1.0  0.46053  0.07567  0.75612  1.0000
  H   H421      1.0  0.45935  0.34737  0.68485  1.0000
  C   C231      1.0  0.46320  0.36615  0.69383  1.0000
  C   C232      1.0  0.40256  0.99655  0.70824  1.0000
  H   H422      1.0  0.27958  0.21286  0.74074  1.0000
  H   H423      1.0  0.29165  0.00195  0.71241  1.0000
  S   S53       1.0  0.42755  0.26151  0.74006  1.0000
  N   N13       1.0  0.33909  0.19331  0.70322  1.0000
  H   H424      1.0  0.20757  0.06093  0.52370  1.0000
  N   N14       1.0  0.25339  0.99436  0.72523  1.0000
  H   H425      1.0  0.28971  0.14214  0.69194  1.0000
  C   C233      1.0  0.32182  0.29440  0.65051  1.0000
  H   H426      1.0  0.43253  0.02621  0.67978  1.0000
  H   H427      1.0  0.31800  0.20306  0.67935  1.0000
  S   S54       1.0  0.23434  0.00498  0.53108  1.0000
  H   H428      1.0  0.37031  0.18521  0.71787  1.0000
  C   C234      1.0  0.21543  0.06838  0.57914  1.0000
  C   C235      1.0  0.38855  0.06322  0.65232  1.0000
  H   H429      1.0  0.25483  0.32843  0.69898  1.0000
  H   H430      1.0  0.21583  0.30423  0.62629  1.0000
  H   H431      1.0  0.27853  0.31525  0.70604  1.0000
  H   H432      1.0  0.28704  0.14361  0.65561  1.0000
  H   H433      1.0  0.24298  0.29699  0.71241  1.0000
  C   C236      1.0  0.23434  0.16292  0.51371  1.0000
  S   S55       1.0  0.23966  0.14821  0.56579  1.0000
  H   H434      1.0  0.28649  0.21110  0.51389  1.0000
  H   H435      1.0  0.25949  0.07478  0.52841  1.0000
  H   H436      1.0  0.34924  0.23682  0.70140  1.0000
  C   C237      1.0  0.47179  0.07730  0.67447  1.0000
  H   H437      1.0  0.22738  0.23768  0.66323  1.0000
  C   C238      1.0  0.46078  0.08795  0.70717  1.0000
  H   H438      1.0  0.28671  0.06378  0.69053  1.0000
  C   C239      1.0  0.24724  0.00075  0.74530  1.0000
  C   C240      1.0  0.21082  0.11231  0.51570  1.0000
  H   H439      1.0  0.20967  0.11635  0.53148  1.0000
  H   H440      1.0  0.27079  0.17709  0.73465  1.0000
  H   H441      1.0  0.45963  0.12626  0.69892  1.0000
  H   H442      1.0  0.26068  0.01395  0.69751  1.0000
  C   C241      1.0  0.25665  0.30914  0.70099  1.0000
  H   H443      1.0  0.48026  0.35315  0.75491  1.0000
  C   C242      1.0  0.30624  0.03576  0.66285  1.0000
  H   H444      1.0  0.26345  0.24315  0.51856  1.0000
  C   C243      1.0  0.48270  0.04078  0.74379  1.0000
  H   H445      1.0  0.44666  0.39567  0.69371  1.0000
  C   C244      1.0  0.44422  0.37712  0.68497  1.0000
  C   C245      1.0  0.29773  0.27093  0.64232  1.0000
  S   S56       1.0  0.37443  0.02799  0.74569  1.0000
  S   S57       1.0  0.34057  0.06350  0.75179  1.0000
  H   H446      1.0  0.38283  0.27300  0.68334  1.0000
  H   H447      1.0  0.28029  0.19861  0.53822  1.0000
  Fe  Fe28      1.0  0.22869  0.18151  0.57534  1.0000
  H   H448      1.0  0.39607  0.22464  0.68955  1.0000
  H   H449      1.0  0.41221  0.07471  0.69032  1.0000
  S   S58       1.0  0.45390  0.39630  0.73898  1.0000
  C   C246      1.0  0.28554  0.19465  0.52351  1.0000
  C   C247      1.0  0.32046  0.18502  0.68457  1.0000
  H   H450      1.0  0.21629  0.30161  0.67214  1.0000
  S   S59       1.0  0.20962  0.23930  0.52664  1.0000
  H   H451      1.0  0.37483  0.04728  0.64083  1.0000
  C   C248      1.0  0.24900  0.29160  0.68185  1.0000
  C   C249      1.0  0.21850  0.28250  0.67419  1.0000
  C   C250      1.0  0.42315  0.20914  0.74198  1.0000
  H   H452      1.0  0.40034  0.08344  0.64548  1.0000
  S   S60       1.0  0.36392  0.27381  0.75274  1.0000
  C   C251      1.0  0.29141  0.25111  0.67424  1.0000
  H   H453      1.0  0.42177  0.03775  0.72177  1.0000
  H   H454      1.0  0.24212  0.09739  0.55919  1.0000
  C   C252      1.0  0.42652  0.07487  0.67931  1.0000
  H   H455      1.0  0.34450  0.10876  0.70876  1.0000
  H   H456      1.0  0.29839  0.19747  0.75323  1.0000
  S   S61       1.0  0.22298  0.19358  0.60549  1.0000
  H   H457      1.0  0.45683  0.36025  0.70868  1.0000
  Fe  Fe29      1.0  0.36299  0.30165  0.72916  1.0000
  C   C253      1.0  0.41274  0.22705  0.74807  1.0000
  H   H458      1.0  0.41071  0.27311  0.69897  1.0000
  H   H459      1.0  0.46392  0.06201  0.66174  1.0000
  C   C254      1.0  0.30932  0.20823  0.72350  1.0000
  C   C255      1.0  0.41195  0.18167  0.74826  1.0000
  H   H460      1.0  0.25211  0.27322  0.68456  1.0000
  H   H461      1.0  0.44381  0.08326  0.71697  1.0000
  H   H462      1.0  0.39696  0.03196  0.70166  1.0000
  H   H463      1.0  0.37272  0.23130  0.71722  1.0000
  C   C256      1.0  0.22309  0.11603  0.57676  1.0000
  H   H464      1.0  0.23033  0.11094  0.51452  1.0000
  H   H465      1.0  0.41038  0.26886  0.67298  1.0000
  C   C257      1.0  0.40845  0.05408  0.66218  1.0000
  H   H466      1.0  0.33355  0.31147  0.64144  1.0000
  C   C258      1.0  0.28753  0.01777  0.64764  1.0000
  C   C259      1.0  0.33819  0.14511  0.70560  1.0000
  S   S62       1.0  0.37526  0.33864  0.75058  1.0000
  C   C260      1.0  0.43873  0.03988  0.69335  1.0000
  H   H467      1.0  0.37517  0.06549  0.66303  1.0000
  H   H468      1.0  0.22933  0.16587  0.52879  1.0000
  C   C261      1.0  0.31541  0.27471  0.68246  1.0000
  H   H469      1.0  0.42032  0.16817  0.74369  1.0000
  N   N15       1.0  0.44943  0.06999  0.68858  1.0000
  C   C262      1.0  0.35716  0.13185  0.70915  1.0000
  H   H470      1.0  0.47566  0.08280  0.71545  1.0000
  C   C263      1.0  0.25476  0.01701  0.71226  1.0000
  H   H471      1.0  0.36935  0.22323  0.67222  1.0000
  H   H472      1.0  0.43544  0.09615  0.67364  1.0000
  H   H473      1.0  0.26397  0.30442  0.67129  1.0000
  C   C264      1.0  0.32332  0.18938  0.72122  1.0000
  H   H474      1.0  0.27930  0.23435  0.68341  1.0000
  S   S63       1.0  0.21444  0.24384  0.58490  1.0000
  Fe  Fe30      1.0  0.21998  0.22687  0.55614  1.0000
  H   H475      1.0  0.25423  0.13456  0.66560  1.0000
  C   C265      1.0  0.28279  0.24907  0.65429  1.0000
  S   S64       1.0  0.34084  0.04975  0.69645  1.0000
  C   C266      1.0  0.38058  0.23212  0.68663  1.0000
  H   H476      1.0  0.27498  0.16932  0.65769  1.0000
  H   H477      1.0  0.42150  0.05257  0.65092  1.0000
  C   C267      1.0  0.22816  0.27533  0.64020  1.0000
  H   H478      1.0  0.27646  0.11012  0.52025  1.0000
  H   H479      1.0  0.24088  0.32003  0.64683  1.0000
  Fe  Fe31      1.0  0.25023  0.23764  0.59751  1.0000
  H   H480      1.0  0.25287  0.30230  0.60730  1.0000
  H   H481      1.0  0.30704  0.16743  0.72201  1.0000
  C   C268      1.0  0.27587  0.15156  0.66476  1.0000
  C   C269      1.0  0.39704  0.26375  0.68545  1.0000
  H   H482      1.0  0.26440  0.23078  0.64820  1.0000
  H   H483      1.0  0.32530  0.22969  0.72816  1.0000
  C   C270      1.0  0.33077  0.29621  0.67038  1.0000
  C   C271      1.0  0.23446  0.30496  0.63413  1.0000
  H   H484      1.0  0.29883  0.20949  0.70962  1.0000
  H   H485      1.0  0.36860  0.13887  0.72368  1.0000
  S   S65       1.0  0.32407  0.27678  0.70803  1.0000
  Fe  Fe32      1.0  0.40857  0.28976  0.74688  1.0000
  H   H486      1.0  0.27770  0.31938  0.62796  1.0000
  S   S66       1.0  0.28658  0.27068  0.61741  1.0000
  S   S67       1.0  0.23956  0.01357  0.58923  1.0000
  H   H487      1.0  0.44011  0.21663  0.73252  1.0000
  H   H488      1.0  0.34912  0.31458  0.67643  1.0000
  S   S68       1.0  0.25825  0.22520  0.56790  1.0000
  H   H489      1.0  0.32389  0.13907  0.71749  1.0000
  C   C272      1.0  0.31746  0.02568  0.67758  1.0000
  H   H490      1.0  0.26128  0.33720  0.61565  1.0000
  H   H491      1.0  0.24820  0.27558  0.64436  1.0000
  C   C273      1.0  0.35527  0.17720  0.70478  1.0000
  C   C274      1.0  0.25799  0.31657  0.62041  1.0000
  C   C275      1.0  0.22819  0.09425  0.57057  1.0000
  H   H492      1.0  0.37231  0.13731  0.69778  1.0000
  H   H493      1.0  0.26522  0.15051  0.52499  1.0000
  H   H494      1.0  0.23385  0.01585  0.71007  1.0000
  H   H495      1.0  0.45555  0.03692  0.70096  1.0000
  H   H496      1.0  0.27913  0.02598  0.63650  1.0000
  Fe  Fe33      1.0  0.36133  0.05442  0.72740  1.0000
  H   H497      1.0  0.29634  0.09648  0.53343  1.0000
  C   C276      1.0  0.41431  0.02806  0.70684  1.0000
  C   C277      1.0  0.36007  0.22394  0.70303  1.0000
  S   S69       1.0  0.40737  0.31603  0.72252  1.0000
  H   H498      1.0  0.31204  0.05772  0.66316  1.0000
  C   C278      1.0  0.27866  0.09110  0.52248  1.0000
  H   H499      1.0  0.21937  0.05167  0.57421  1.0000
  H   H500      1.0  0.46150  0.02529  0.73960  1.0000
  H   H501      1.0  0.33758  0.19361  0.73453  1.0000
  H   H502      1.0  0.36792  0.18041  0.69205  1.0000
  C   C279      1.0  0.28820  0.19814  0.73900  1.0000
  H   H503      1.0  0.33051  0.17964  0.67272  1.0000
  S   S70       1.0  0.40207  0.09375  0.73444  1.0000
  H   H504      1.0  0.42216  0.36069  0.68498  1.0000
  H   H505      1.0  0.27762  0.16724  0.69379  1.0000
  H   H506      1.0  0.32626  0.13595  0.69144  1.0000
  H   H507      1.0  0.47723  0.09781  0.66825  1.0000
  H   H508      1.0  0.29551  0.00928  0.73764  1.0000
  H   H509      1.0  0.26408  0.02122  0.75143  1.0000
  C   C280      1.0  0.14791  0.28724  0.50749  1.0000
  H   H510      1.0  0.47591  0.31820  0.75305  1.0000
  H   H511      1.0  0.41899  0.99159  0.71406  1.0000
  H   H512      1.0  0.98656  0.48485  0.68165  1.0000
  H   H513      1.0  0.28736  0.06205  0.50684  1.0000
  Fe  Fe34      1.0  0.01884  0.21685  0.89332  1.0000
  S   S71       1.0  0.00536  0.24945  0.89967  1.0000
  S   S72       1.0  0.06312  0.23228  0.88434  1.0000
  Fe  Fe35      1.0  0.18394  0.19455  0.89581  1.0000
  S   S73       1.0  0.20834  0.24059  0.89302  1.0000
  S   S74       1.0  0.13699  0.17089  0.89706  1.0000
  Fe  Fe36      1.0  0.23716  0.18929  0.90265  1.0000
  S   S75       1.0  0.26520  0.23546  0.90168  1.0000
  S   S76       1.0  0.25754  0.16174  0.90344  1.0000
  Fe  Fe37      1.0  0.23352  0.23924  0.91965  1.0000
  S   S77       1.0  0.23721  0.26647  0.94639  1.0000
  Fe  Fe38      1.0  0.23750  0.23204  0.87526  1.0000
  S   S78       1.0  0.24958  0.24485  0.84422  1.0000
  S   S79       1.0  0.20818  0.19329  0.92280  1.0000
  S   S80       1.0  0.21037  0.18554  0.87594  1.0000
  C   C281      1.0  0.99022  0.26834  0.77715  1.0000
  S   S81       1.0  0.18583  0.03855  0.92884  1.0000
  H   H514      1.0  0.28362  0.00254  0.88352  1.0000
  C   C282      1.0  0.31421  0.20512  0.82920  1.0000
  S   S82       1.0  0.39630  0.07782  0.78033  1.0000
  C   C283      1.0  0.32033  0.23308  0.86870  1.0000
  Fe  Fe39      1.0  0.19442  0.00711  0.91291  1.0000
  Fe  Fe40      1.0  0.35573  0.03990  0.77070  1.0000
  H   H515      1.0  0.36684  0.99714  0.94440  1.0000
  H   H516      1.0  0.20736  0.17884  0.98017  1.0000
  C   C284      1.0  0.37979  0.18984  0.76670  1.0000
  H   H517      1.0  0.33804  0.26721  0.89066  1.0000
  Fe  Fe41      1.0  0.37863  0.31110  0.77354  1.0000
  S   S83       1.0  0.42425  0.32530  0.76959  1.0000
  S   S84       1.0  0.36596  0.30913  0.80502  1.0000
  H   H518      1.0  0.13826  0.03215  0.83787  1.0000
  H   H519      1.0  0.31519  0.06991  0.88057  1.0000
  H   H520      1.0  0.13426  0.13546  0.98949  1.0000
  H   H521      1.0  0.22602  0.27937  0.98481  1.0000
  H   H522      1.0  0.05552  0.20810  0.96080  1.0000
  H   H523      1.0  0.03015  0.31348  0.80110  1.0000
  H   H524      1.0  0.33647  0.20354  0.86718  1.0000
  H   H525      1.0  0.25962  0.23010  0.95926  1.0000
  H   H526      1.0  0.13414  0.14189  0.93612  1.0000
  H   H527      1.0  0.25554  0.17205  0.97600  1.0000
  C   C285      1.0  0.27115  0.18347  0.84600  1.0000
  H   H528      1.0  0.29368  0.15073  0.82960  1.0000
  S   S85       1.0  0.25133  0.01596  0.85702  1.0000
  C   C286      1.0  0.13025  0.13421  0.95105  1.0000
  H   H529      1.0  0.32328  0.16442  0.84620  1.0000
  C   C287      1.0  0.33551  0.24581  0.88855  1.0000
  C   C288      1.0  0.30488  0.00987  0.80876  1.0000
  H   H530      1.0  0.24113  0.13902  0.96233  1.0000
  H   H531      1.0  0.23517  0.35389  0.96408  1.0000
  C   C289      1.0  0.23560  0.06841  0.97341  1.0000
  H   H532      1.0  0.36069  0.04940  0.83736  1.0000
  C   C290      1.0  0.23740  0.12776  0.91084  1.0000
  C   C291      1.0  0.21245  0.12008  0.91958  1.0000
  C   C292      1.0  0.19698  0.09274  0.92552  1.0000
  C   C293      1.0  0.20608  0.07294  0.92224  1.0000
  C   C294      1.0  0.23083  0.08056  0.91328  1.0000
  C   C295      1.0  0.24659  0.10803  0.90778  1.0000
  H   H533      1.0  0.20524  0.13524  0.92190  1.0000
  H   H534      1.0  0.17775  0.08683  0.93237  1.0000
  H   H535      1.0  0.23785  0.06532  0.91061  1.0000
  H   H536      1.0  0.26581  0.11399  0.90095  1.0000
  C   C296      1.0  0.28235  0.26212  0.83374  1.0000
  C   C297      1.0  0.28333  0.25905  0.81348  1.0000
  C   C298      1.0  0.30865  0.27298  0.80442  1.0000
  C   C299      1.0  0.33336  0.29046  0.81553  1.0000
  C   C300      1.0  0.33239  0.29334  0.83581  1.0000
  C   C301      1.0  0.30710  0.27933  0.84486  1.0000
  H   H537      1.0  0.26431  0.24601  0.80467  1.0000
  H   H538      1.0  0.30898  0.27056  0.78883  1.0000
  H   H539      1.0  0.35132  0.30683  0.84457  1.0000
  H   H540      1.0  0.30671  0.28232  0.86039  1.0000
  H   H541      1.0  0.19038  0.99345  0.98899  1.0000
  C   C302      1.0  0.24199  0.25544  0.96967  1.0000
  H   H542      1.0  0.35802  0.22843  0.84112  1.0000
  H   H543      1.0  0.20818  0.14815  0.81745  1.0000
  Fe  Fe42      1.0  0.98705  0.22481  0.92595  1.0000
  H   H544      1.0  0.24781  0.99984  0.96003  1.0000
  H   H545      1.0  0.22299  0.33624  0.98619  1.0000
  C   C303      1.0  0.27079  0.01233  0.83803  1.0000
  C   C304      1.0  0.08298  0.21451  0.88789  1.0000
  C   C305      1.0  0.10980  0.22615  0.88112  1.0000
  C   C306      1.0  0.12659  0.21312  0.88394  1.0000
  C   C307      1.0  0.11660  0.18810  0.89344  1.0000
  C   C308      1.0  0.08968  0.17629  0.90008  1.0000
  C   C309      1.0  0.07299  0.18952  0.89745  1.0000
  H   H546      1.0  0.11751  0.24525  0.87348  1.0000
  H   H547      1.0  0.14708  0.22221  0.87850  1.0000
  H   H548      1.0  0.08169  0.15685  0.90732  1.0000
  H   H549      1.0  0.05232  0.18028  0.90264  1.0000
  C   C310      1.0  0.23483  0.26538  0.98633  1.0000
  N   N16       1.0  0.16964  0.29050  0.92693  1.0000
  C   C311      1.0  0.14535  0.29307  0.93425  1.0000
  C   C312      1.0  0.19644  0.31067  0.93837  1.0000
  C   C313      1.0  0.17191  0.29823  0.90586  1.0000
  C   C314      1.0  0.16517  0.26095  0.92735  1.0000
  C   C315      1.0  0.16041  0.24751  0.94725  1.0000
  C   C316      1.0  0.11650  0.27389  0.92353  1.0000
  C   C317      1.0  0.19992  0.30497  0.89706  1.0000
  C   C318      1.0  0.19514  0.31598  0.96044  1.0000
  C   C319      1.0  0.22436  0.33312  0.97038  1.0000
  C   C320      1.0  0.15107  0.21630  0.94470  1.0000
  C   C321      1.0  0.09400  0.27957  0.93156  1.0000
  S   S86       1.0  0.99343  0.24797  0.95552  1.0000
  H   H550      1.0  0.14932  0.31508  0.93340  1.0000
  H   H551      1.0  0.14301  0.28864  0.94986  1.0000
  H   H552      1.0  0.21268  0.30401  0.93666  1.0000
  H   H553      1.0  0.20489  0.33178  0.93240  1.0000
  H   H554      1.0  0.16878  0.31686  0.90388  1.0000
  H   H555      1.0  0.15497  0.28119  0.89641  1.0000
  H   H556      1.0  0.14737  0.24698  0.91704  1.0000
  H   H557      1.0  0.18329  0.25960  0.92193  1.0000
  H   H558      1.0  0.14418  0.24978  0.95485  1.0000
  H   H559      1.0  0.18019  0.25696  0.95654  1.0000
  H   H560      1.0  0.11648  0.27741  0.90774  1.0000
  H   H561      1.0  0.11038  0.25157  0.92543  1.0000
  H   H562      1.0  0.20858  0.29151  0.90245  1.0000
  H   H563      1.0  0.21566  0.32690  0.90120  1.0000
  H   H564      1.0  0.18372  0.32807  0.96253  1.0000
  H   H565      1.0  0.18450  0.29645  0.96808  1.0000
  H   H566      1.0  0.27522  0.10211  0.84094  1.0000
  H   H567      1.0  0.03029  0.26957  0.77223  1.0000
  H   H568      1.0  0.00130  0.27474  0.99334  1.0000
  H   H569      1.0  0.13102  0.20542  0.93571  1.0000
  H   H570      1.0  0.16703  0.21278  0.93759  1.0000
  H   H571      1.0  0.14807  0.20710  0.95910  1.0000
  H   H572      1.0  0.09810  0.30115  0.92871  1.0000
  H   H573      1.0  0.07340  0.26481  0.92422  1.0000
  H   H574      1.0  0.09311  0.27673  0.94746  1.0000
  H   H575      1.0  0.38273  0.08566  0.84472  1.0000
  H   H576      1.0  0.17612  0.01152  0.97442  1.0000
  H   H577      1.0  0.36316  0.18257  0.77645  1.0000
  H   H578      1.0  0.24971  0.14372  0.82807  1.0000
  S   S87       1.0  0.32599  0.00709  0.79066  1.0000
  N   N17       1.0  0.12892  0.04953  0.87708  1.0000
  C   C322      1.0  0.13296  0.02933  0.88984  1.0000
  C   C323      1.0  0.15681  0.07311  0.87243  1.0000
  C   C324      1.0  0.11436  0.06206  0.88867  1.0000
  C   C325      1.0  0.11087  0.03526  0.85871  1.0000
  H   H579      1.0  0.12555  0.00390  0.85427  1.0000
  H   H580      1.0  0.19531  0.12417  0.97485  1.0000
  C   C326      1.0  0.11102  0.08614  0.87930  1.0000
  C   C327      1.0  0.18053  0.06577  0.86898  1.0000
  C   C328      1.0  0.20537  0.09020  0.86086  1.0000
  H   H581      1.0  0.03036  0.28155  0.80768  1.0000
  C   C329      1.0  0.25835  0.23002  0.99058  1.0000
  C   C330      1.0  0.09560  0.09653  0.89229  1.0000
  H   H582      1.0  0.14516  0.04057  0.90358  1.0000
  C   C331      1.0  0.24774  0.99913  0.99139  1.0000
  H   H583      1.0  0.15424  0.08389  0.85953  1.0000
  H   H584      1.0  0.16548  0.08941  0.88465  1.0000
  H   H585      1.0  0.12563  0.07028  0.90328  1.0000
  H   H586      1.0  0.09301  0.04584  0.89144  1.0000
  H   H587      1.0  0.08900  0.02158  0.86224  1.0000
  H   H588      1.0  0.10965  0.05085  0.84911  1.0000
  S   S88       1.0  0.00288  0.19418  0.92047  1.0000
  C   C332      1.0  0.20550  0.16381  0.99134  1.0000
  H   H589      1.0  0.34560  0.07208  0.84206  1.0000
  H   H590      1.0  0.23692  0.32213  0.96857  1.0000
  H   H591      1.0  0.09881  0.07911  0.86505  1.0000
  H   H592      1.0  0.13155  0.10426  0.87711  1.0000
  H   H593      1.0  0.18795  0.06101  0.88296  1.0000
  H   H594      1.0  0.17389  0.04737  0.85888  1.0000
  H   H595      1.0  0.21304  0.10923  0.87068  1.0000
  H   H596      1.0  0.22248  0.08480  0.85966  1.0000
  H   H597      1.0  0.19954  0.09463  0.84617  1.0000
  C   C333      1.0  0.99184  0.25251  0.99521  1.0000
  H   H598      1.0  0.27461  0.09658  0.86661  1.0000
  H   H599      1.0  0.29361  0.09038  0.90099  1.0000
  C   C334      1.0  0.23627  0.15517  0.96844  1.0000
  H   H600      1.0  0.22188  0.18119  0.83101  1.0000
  H   H601      1.0  0.02215  0.20664  0.96377  1.0000
  H   H602      1.0  0.09261  0.11302  0.88499  1.0000
  H   H603      1.0  0.07478  0.07930  0.89504  1.0000
  H   H604      1.0  0.10786  0.10568  0.90638  1.0000
  H   H605      1.0  0.32334  0.23310  0.90040  1.0000
  C   C335      1.0  0.30689  0.08233  0.90810  1.0000
  H   H606      1.0  0.05925  0.30798  0.79601  1.0000
  H   H607      1.0  0.35646  0.24715  0.88948  1.0000
  H   H608      1.0  0.27090  0.20376  0.84541  1.0000
  H   H609      1.0  0.47764  0.47154  0.81719  1.0000
  H   H610      1.0  0.31107  0.22392  0.82872  1.0000
  H   H611      1.0  0.33304  0.24684  0.85752  1.0000
  C   C336      1.0  0.21344  0.14213  0.98260  1.0000
  H   H612      1.0  0.29541  0.14704  0.87454  1.0000
  C   C337      1.0  0.28627  0.03555  0.82702  1.0000
  H   H613      1.0  0.28541  0.05476  0.82986  1.0000
  C   C338      1.0  0.30315  0.03437  0.81252  1.0000
  H   H614      1.0  0.31494  0.05250  0.80432  1.0000
  H   H615      1.0  0.04682  0.24918  0.98713  1.0000
  H   H616      1.0  0.30394  0.19299  0.81527  1.0000
  H   H617      1.0  0.26168  0.17480  0.85984  1.0000
  C   C339      1.0  0.35061  0.02064  0.90113  1.0000
  H   H618      1.0  0.30012  0.23327  0.86833  1.0000
  H   H619      1.0  0.23820  0.05334  0.96370  1.0000
  C   C340      1.0  0.31583  0.20294  0.86534  1.0000
  C   C341      1.0  0.25118  0.16475  0.82868  1.0000
  H   H620      1.0  0.25832  0.17450  0.81468  1.0000
  S   S89       1.0  0.18307  0.99444  0.88123  1.0000
  H   H621      1.0  0.30751  0.11480  0.85593  1.0000
  H   H622      1.0  0.22137  0.13375  0.99451  1.0000
  H   H623      1.0  0.34986  0.19674  0.82726  1.0000
  N   N18       1.0  0.30067  0.18807  0.84625  1.0000
  H   H624      1.0  0.21798  0.08568  0.00363  1.0000
  H   H625      1.0  0.34587  0.21848  0.79664  1.0000
  C   C342      1.0  0.28555  0.13913  0.85964  1.0000
  H   H626      1.0  0.30417  0.19118  0.87771  1.0000
  C   C343      1.0  0.39032  0.17198  0.76078  1.0000
  H   H627      1.0  0.35403  0.25034  0.81055  1.0000
  C   C344      1.0  0.36245  0.06712  0.84677  1.0000
  H   H628      1.0  0.26353  0.13452  0.85958  1.0000
  H   H629      1.0  0.15342  0.18662  0.98737  1.0000
  H   H630      1.0  0.21426  0.06561  0.97025  1.0000
  C   C345      1.0  0.98603  0.23413  0.97887  1.0000
  H   H631      1.0  0.14564  0.02099  0.88308  1.0000
  H   H632      1.0  0.04941  0.23667  0.95396  1.0000
  H   H633      1.0  0.29788  0.07324  0.92193  1.0000
  C   C346      1.0  0.35681  0.23141  0.81016  1.0000
  C   C347      1.0  0.09702  0.99958  0.83038  1.0000
  C   C348      1.0  0.30144  0.16074  0.84449  1.0000
  C   C349      1.0  0.34577  0.21482  0.82819  1.0000
  H   H634      1.0  0.37939  0.23817  0.80971  1.0000
  C   C350      1.0  0.02232  0.28409  0.77656  1.0000
  N   N19       1.0  0.32765  0.02547  0.89202  1.0000
  C   C351      1.0  0.15358  0.13597  0.98454  1.0000
  H   H635      1.0  0.19051  0.99186  0.96274  1.0000
  C   C352      1.0  0.10607  0.00355  0.89541  1.0000
  H   H636      1.0  0.25101  0.08990  0.97002  1.0000
  H   H637      1.0  0.99209  0.31369  0.75995  1.0000
  H   H638      1.0  0.28601  0.04329  0.89171  1.0000
  H   H639      1.0  0.21292  0.14944  0.84360  1.0000
  C   C353      1.0  0.19664  0.30165  0.87484  1.0000
  H   H640      1.0  0.26814  0.21688  0.99219  1.0000
  C   C354      1.0  0.17250  0.19673  0.99733  1.0000
  H   H641      1.0  0.12056  0.11107  0.95002  1.0000
  C   C355      1.0  0.32652  0.04871  0.90367  1.0000
  H   H642      1.0  0.26002  0.02149  0.99358  1.0000
  H   H643      1.0  0.17192  0.14089  0.95613  1.0000
  C   C356      1.0  0.33355  0.03286  0.87119  1.0000
  C   C357      1.0  0.28582  0.11154  0.85546  1.0000
  C   C358      1.0  0.36069  0.06006  0.86818  1.0000
  H   H644      1.0  0.16702  0.16973  0.96332  1.0000
  C   C359      1.0  0.15775  0.14677  0.96354  1.0000
  H   H645      1.0  0.11563  0.14063  0.95722  1.0000
  H   H646      1.0  0.02898  0.30103  0.76623  1.0000
  H   H647      1.0  0.21715  0.30737  0.86905  1.0000
  C   C360      1.0  0.25357  0.23752  0.97190  1.0000
  H   H648      1.0  0.14851  0.11361  0.98294  1.0000
  H   H649      1.0  0.37068  0.04038  0.90209  1.0000
  Fe  Fe43      1.0  0.38179  0.10099  0.75992  1.0000
  H   H650      1.0  0.19097  0.20735  0.98879  1.0000
  C   C361      1.0  0.30765  0.06017  0.89451  1.0000
  H   H651      1.0  0.18212  0.27961  0.86998  1.0000
  H   H652      1.0  0.34775  0.06662  0.90683  1.0000
  H   H653      1.0  0.05075  0.19578  0.99593  1.0000
  C   C362      1.0  0.29975  0.99960  0.89209  1.0000
  H   H654      1.0  0.09362  0.00990  0.90447  1.0000
  H   H655      1.0  0.07821  0.24655  0.98574  1.0000
  H   H656      1.0  0.37918  0.05752  0.87257  1.0000
  S   S90       1.0  0.23549  0.00726  0.91276  1.0000
  S   S91       1.0  0.37598  0.13806  0.76977  1.0000
  H   H657      1.0  0.31879  0.04156  0.91821  1.0000
  H   H658      1.0  0.25147  0.00937  0.78550  1.0000
  N   N20       1.0  0.17745  0.15162  0.99976  1.0000
  H   H659      1.0  0.12541  0.99469  0.92097  1.0000
  C   C363      1.0  0.04500  0.22051  0.96473  1.0000
  C   C364      1.0  0.05523  0.23435  0.98518  1.0000
  H   H660      1.0  0.32812  0.10008  0.91132  1.0000
  H   H661      1.0  0.22220  0.17656  0.00284  1.0000
  H   H662      1.0  0.17088  0.23573  0.00055  1.0000
  H   H663      1.0  0.31585  0.03427  0.86361  1.0000
  H   H664      1.0  0.18863  0.31542  0.86873  1.0000
  H   H665      1.0  0.36196  0.07818  0.87671  1.0000
  C   C365      1.0  0.03628  0.29754  0.79659  1.0000
  H   H666      1.0  0.34615  0.02588  0.93235  1.0000
  H   H667      1.0  0.09302  0.99135  0.88224  1.0000
  H   H668      1.0  0.22941  0.16389  0.95615  1.0000
  C   C366      1.0  0.22176  0.16069  0.83036  1.0000
  H   H669      1.0  0.38277  0.23080  0.76521  1.0000
  H   H670      1.0  0.33510  0.01596  0.86288  1.0000
  C   C367      1.0  0.12012  0.01792  0.84578  1.0000
  C   C368      1.0  0.37016  0.00443  0.92936  1.0000
  C   C369      1.0  0.39084  0.21719  0.76033  1.0000
  C   C370      1.0  0.23892  0.25720  0.00501  1.0000
  H   H671      1.0  0.98780  0.30427  0.81852  1.0000
  C   C371      1.0  0.04518  0.21204  0.00079  1.0000
  C   C372      1.0  0.34645  0.01005  0.92207  1.0000
  H   H672      1.0  0.02199  0.20189  0.99963  1.0000
  C   C373      1.0  0.23994  0.06298  0.99467  1.0000
  H   H673      1.0  0.22492  0.04106  0.99704  1.0000
  H   H674      1.0  0.26127  0.06547  0.99696  1.0000
  H   H675      1.0  0.09093  0.01252  0.82109  1.0000
  H   H676      1.0  0.47217  0.00725  0.79348  1.0000
  H   H677      1.0  0.39046  0.02378  0.92959  1.0000
  H   H678      1.0  0.35420  0.00592  0.89169  1.0000
  H   H679      1.0  0.29239  0.99595  0.90705  1.0000
  H   H680      1.0  0.98556  0.25262  0.78837  1.0000
  Fe  Fe44      1.0  0.22285  0.99133  0.88112  1.0000
  C   C374      1.0  0.17853  0.99240  0.97512  1.0000
  H   H681      1.0  0.29129  0.86301  0.16186  1.0000
  H   H682      1.0  0.34257  0.80865  0.19247  1.0000
  H   H683      1.0  0.22251  0.95419  0.18834  1.0000
  C   C375      1.0  0.21448  0.91635  0.22336  1.0000
  Fe  Fe45      1.0  0.29093  0.89219  0.21703  1.0000
  S   S92       1.0  0.26322  0.88926  0.18982  1.0000
  S   S93       1.0  0.30666  0.86086  0.22027  1.0000
  H   H684      1.0  0.33774  0.83389  0.20683  1.0000
  H   H685      1.0  0.05383  0.78325  0.14459  1.0000
  C   C376      1.0  0.46880  0.89645  0.24873  1.0000
  Fe  Fe46      1.0  0.10733  0.68764  0.24455  1.0000
  H   H686      1.0  0.21313  0.73681  0.19345  1.0000
  Fe  Fe47      1.0  0.22770  0.98084  0.05875  1.0000
  Fe  Fe48      1.0  0.04546  0.65710  0.23091  1.0000
  S   S94       1.0  0.01543  0.66850  0.21350  1.0000
  S   S95       1.0  0.08253  0.65363  0.22142  1.0000
  Fe  Fe49      1.0  0.22910  0.97076  0.10293  1.0000
  S   S96       1.0  0.18441  0.96160  0.10489  1.0000
  H   H687      1.0  0.03510  0.76683  0.05165  1.0000
  C   C377      1.0  0.06417  0.49248  0.25130  1.0000
  S   S97       1.0  0.18338  0.97149  0.05821  1.0000
  C   C378      1.0  0.26372  0.81804  0.16120  1.0000
  Fe  Fe50      1.0  0.17679  0.93605  0.07690  1.0000
  S   S98       1.0  0.13994  0.89439  0.06684  1.0000
  S   S99       1.0  0.22087  0.94330  0.07563  1.0000
  H   H688      1.0  0.06021  0.78088  0.18923  1.0000
  S   S100      1.0  0.04849  0.82567  0.12516  1.0000
  S   S101      1.0  0.01387  0.75576  0.09328  1.0000
  C   C379      1.0  0.23922  0.98269  0.00762  1.0000
  C   C380      1.0  0.15996  0.72892  0.15689  1.0000
  C   C381      1.0  0.08663  0.74927  0.16502  1.0000
  H   H689      1.0  0.25870  0.74318  0.20620  1.0000
  C   C382      1.0  0.43163  0.88634  0.22346  1.0000
  H   H690      1.0  0.08603  0.72330  0.21114  1.0000
  C   C383      1.0  0.11483  0.87572  0.08336  1.0000
  C   C384      1.0  0.09032  0.85192  0.07641  1.0000
  C   C385      1.0  0.06984  0.83639  0.08911  1.0000
  C   C386      1.0  0.07381  0.84465  0.10889  1.0000
  C   C387      1.0  0.09838  0.86838  0.11589  1.0000
  C   C388      1.0  0.11885  0.88391  0.10316  1.0000
  H   H691      1.0  0.08705  0.84576  0.06114  1.0000
  H   H692      1.0  0.05087  0.81826  0.08356  1.0000
  H   H693      1.0  0.10148  0.87494  0.13116  1.0000
  H   H694      1.0  0.13768  0.90221  0.10865  1.0000
  C   C389      1.0  0.01264  0.67684  0.18879  1.0000
  C   C390      1.0  0.02364  0.66845  0.17366  1.0000
  C   C391      1.0  0.01904  0.67383  0.15418  1.0000
  H   H695      1.0  0.10340  0.93880  0.02674  1.0000
  H   H696      1.0  0.09496  0.74776  0.09873  1.0000
  H   H697      1.0  0.07326  0.76433  0.09472  1.0000
  H   H698      1.0  0.03484  0.65693  0.17687  1.0000
  H   H699      1.0  0.01881  0.69214  0.25514  1.0000
  H   H700      1.0  0.30150  0.95538  0.21920  1.0000
  C   C392      1.0  0.00017  0.74592  0.22308  1.0000
  S   S102      1.0  0.13987  0.73067  0.23649  1.0000
  H   H701      1.0  0.17931  0.82364  0.21834  1.0000
  H   H702      1.0  0.44323  0.54631  0.21724  1.0000
  H   H703      1.0  0.44063  0.95754  0.19850  1.0000
  H   H704      1.0  0.15436  0.79194  0.20468  1.0000
  H   H705      1.0  0.00596  0.71720  0.04039  1.0000
  C   C393      1.0  0.21122  0.98682  0.18768  1.0000
  C   C394      1.0  0.44368  0.53527  0.23001  1.0000
  H   H706      1.0  0.17124  0.71678  0.15441  1.0000
  H   H707      1.0  0.33813  0.82904  0.24512  1.0000
  C   C395      1.0  0.25958  0.95077  0.14586  1.0000
  C   C396      1.0  0.23842  0.92307  0.14556  1.0000
  C   C397      1.0  0.24007  0.90456  0.15899  1.0000
  C   C398      1.0  0.26288  0.91339  0.17285  1.0000
  C   C399      1.0  0.28410  0.94100  0.17309  1.0000
  C   C400      1.0  0.28233  0.95957  0.15978  1.0000
  H   H708      1.0  0.22077  0.91598  0.13500  1.0000
  H   H709      1.0  0.22349  0.88327  0.15864  1.0000
  H   H710      1.0  0.30195  0.94801  0.18342  1.0000
  C   C401      1.0  0.27904  0.84538  0.15100  1.0000
  H   H711      1.0  0.26408  0.85001  0.14237  1.0000
  H   H712      1.0  0.10850  0.80424  0.17964  1.0000
  C   C402      1.0  0.08331  0.74746  0.18723  1.0000
  C   C403      1.0  0.11667  0.82743  0.15352  1.0000
  C   C404      1.0  0.24096  0.78195  0.19497  1.0000
  H   H713      1.0  0.02424  0.79508  0.18963  1.0000
  C   C405      1.0  0.14304  0.84010  0.03214  1.0000
  H   H714      1.0  0.46726  0.87948  0.21996  1.0000
  H   H715      1.0  0.38940  0.78372  0.24414  1.0000
  C   C406      1.0  0.19108  0.74030  0.25356  1.0000
  C   C407      1.0  0.02630  0.78531  0.17592  1.0000
  H   H716      1.0  0.47671  0.95553  0.21961  1.0000
  H   H717      1.0  0.09719  0.82854  0.14995  1.0000
  H   H718      1.0  0.25550  0.79773  0.20640  1.0000
  C   C408      1.0  0.11643  0.82869  0.01872  1.0000
  H   H719      1.0  0.07901  0.85182  0.02672  1.0000
  H   H720      1.0  0.00424  0.76726  0.22776  1.0000
  H   H721      1.0  0.22296  0.81409  0.21113  1.0000
  C   C409      1.0  0.45301  0.94823  0.19239  1.0000
  H   H722      1.0  0.18353  0.80881  0.17571  1.0000
  H   H723      1.0  0.20442  0.88867  0.19739  1.0000
  H   H724      1.0  0.17275  0.78942  0.24051  1.0000
  H   H725      1.0  0.03428  0.53561  0.25542  1.0000
  C   C410      1.0  0.24489  0.74629  0.21610  1.0000
  H   H726      1.0  0.21034  0.75480  0.21492  1.0000
  H   H727      1.0  0.42297  0.87897  0.20871  1.0000
  C   C411      1.0  0.42052  0.49410  0.24934  1.0000
  C   C412      1.0  0.22487  0.75393  0.20469  1.0000
  H   H728      1.0  0.25788  0.76295  0.22739  1.0000
  C   C413      1.0  0.11211  0.92440  0.02977  1.0000
  H   H729      1.0  0.21480  0.76119  0.16177  1.0000
  H   H730      1.0  0.20153  0.78427  0.15582  1.0000
  H   H731      1.0  0.25418  0.77818  0.18489  1.0000
  S   S103      1.0  0.33079  0.92689  0.23123  1.0000
  C   C414      1.0  0.17500  0.75123  0.17335  1.0000
  H   H732      1.0  0.04150  0.75168  0.15641  1.0000
  H   H733      1.0  0.13864  0.71424  0.16087  1.0000
  H   H734      1.0  0.19302  0.78176  0.20571  1.0000
  H   H735      1.0  0.00842  0.74676  0.20859  1.0000
  C   C415      1.0  0.20828  0.80061  0.19884  1.0000
  C   C416      1.0  0.24394  0.82008  0.17575  1.0000
  S   S104      1.0  0.25853  0.97540  0.12961  1.0000
  H   H736      1.0  0.02686  0.66640  0.14257  1.0000
  H   H737      1.0  0.98845  0.69732  0.19559  1.0000
  H   H738      1.0  0.29639  0.73514  0.24022  1.0000
  C   C417      1.0  0.20472  0.77287  0.16812  1.0000
  N   N21       1.0  0.22380  0.79321  0.18431  1.0000
  C   C418      1.0  0.41746  0.89541  0.23594  1.0000
  C   C419      1.0  0.28357  0.98370  0.21712  1.0000
  H   H739      1.0  0.04782  0.74194  0.12395  1.0000
  H   H740      1.0  0.23254  0.82969  0.16790  1.0000
  C   C420      1.0  0.13685  0.85375  0.16577  1.0000
  H   H741      1.0  0.01057  0.76287  0.17496  1.0000
  H   H742      1.0  0.20800  0.83903  0.19016  1.0000
  H   H743      1.0  0.15823  0.73859  0.14321  1.0000
  C   C421      1.0  0.17010  0.81415  0.20357  1.0000
  H   H744      1.0  0.18297  0.87335  0.21733  1.0000
  H   H745      1.0  0.17522  0.74050  0.18675  1.0000
  Fe  Fe51      1.0  0.07456  0.62294  0.24539  1.0000
  H   H746      1.0  0.23280  0.72661  0.22349  1.0000
  H   H747      1.0  0.09828  0.78742  0.02859  1.0000
  H   H748      1.0  0.27993  0.81435  0.16895  1.0000
  C   C422      1.0  0.19296  0.81651  0.19070  1.0000
  H   H749      1.0  0.25214  0.80099  0.14988  1.0000
  H   H750      1.0  0.40272  0.50026  0.22248  1.0000
  H   H751      1.0  0.03717  0.74929  0.23759  1.0000
  H   H752      1.0  0.04815  0.80810  0.04063  1.0000
  H   H753      1.0  0.16207  0.76158  0.17580  1.0000
  H   H754      1.0  0.25735  0.83556  0.18765  1.0000
  H   H755      1.0  0.29889  0.98089  0.16010  1.0000
  H   H756      1.0  0.01764  0.83604  0.01728  1.0000
  H   H757      1.0  0.29356  0.84376  0.14100  1.0000
  C   C423      1.0  0.48110  0.95969  0.20409  1.0000
  H   H758      1.0  0.21393  0.95080  0.25258  1.0000
  H   H759      1.0  0.35835  0.79370  0.22176  1.0000
  C   C424      1.0  0.05568  0.78879  0.17563  1.0000
  C   C425      1.0  0.09079  0.72588  0.19560  1.0000
  H   H760      1.0  0.02208  0.79585  0.16355  1.0000
  C   C426      1.0  0.46749  0.54739  0.24325  1.0000
  C   C427      1.0  0.45691  0.88668  0.22978  1.0000
  H   H761      1.0  0.37220  0.83774  0.20504  1.0000
  H   H762      1.0  0.14972  0.82389  0.03416  1.0000
  H   H763      1.0  0.03697  0.84841  0.04072  1.0000
  H   H764      1.0  0.09674  0.76747  0.19550  1.0000
  H   H765      1.0  0.06121  0.74062  0.18999  1.0000
  C   C428      1.0  0.34625  0.80497  0.22369  1.0000
  C   C429      1.0  0.02760  0.72486  0.04669  1.0000
  H   H766      1.0  0.27653  0.51321  0.23601  1.0000
  H   H767      1.0  0.15954  0.82556  0.19728  1.0000
  H   H768      1.0  0.16000  0.85833  0.02571  1.0000
  C   C430      1.0  0.09070  0.77163  0.13418  1.0000
  H   H769      1.0  0.06595  0.76292  0.05129  1.0000
  H   H770      1.0  0.07002  0.81154  0.17584  1.0000
  H   H771      1.0  0.22330  0.82035  0.24809  1.0000
  H   H772      1.0  0.09141  0.81040  0.04320  1.0000
  N   N22       1.0  0.08636  0.77393  0.15552  1.0000
  C   C431      1.0  0.42055  0.50897  0.23295  1.0000
  C   C432      1.0  0.06904  0.74469  0.12255  1.0000
  H   H773      1.0  0.10612  0.74849  0.16203  1.0000
  H   H774      1.0  0.07858  0.70525  0.18766  1.0000
  H   H775      1.0  0.37351  0.84342  0.24063  1.0000
  S   S105      1.0  0.38599  0.89540  0.22666  1.0000
  C   C433      1.0  0.28911  0.52697  0.24872  1.0000
  H   H776      1.0  0.25783  0.92842  0.22496  1.0000
  C   C434      1.0  0.04501  0.75610  0.04398  1.0000
  H   H777      1.0  0.13023  0.79850  0.16420  1.0000
  C   C435      1.0  0.17423  0.75161  0.24663  1.0000
  C   C436      1.0  0.04796  0.80762  0.02447  1.0000
  H   H778      1.0  0.01001  0.71406  0.23193  1.0000
  H   H779      1.0  0.03685  0.71293  0.03965  1.0000
  H   H780      1.0  0.45598  0.95351  0.17692  1.0000
  C   C437      1.0  0.08963  0.51223  0.24476  1.0000
  H   H781      1.0  0.13976  0.84706  0.04659  1.0000
  C   C438      1.0  0.24441  0.93674  0.21834  1.0000
  H   H782      1.0  0.11207  0.84614  0.01574  1.0000
  S   S106      1.0  0.07064  0.69188  0.25326  1.0000
  H   H783      1.0  0.12557  0.93208  0.04351  1.0000
  C   C439      1.0  0.07427  0.74613  0.10092  1.0000
  H   H784      1.0  0.30559  0.56414  0.23179  1.0000
  C   C440      1.0  0.23159  0.97618  0.19407  1.0000
  C   C441      1.0  0.18589  0.78060  0.24534  1.0000
  H   H785      1.0  0.24575  0.93469  0.20242  1.0000
  H   H786      1.0  0.20817  0.98515  0.17152  1.0000
  C   C442      1.0  0.20447  0.88748  0.21348  1.0000
  H   H787      1.0  0.46523  0.50168  0.21619  1.0000
  H   H788      1.0  0.30877  0.97737  0.24094  1.0000
  H   H789      1.0  0.28243  0.98075  0.20103  1.0000
  C   C443      1.0  0.09508  0.54015  0.24209  1.0000
  H   H790      1.0  0.12792  0.85507  0.17963  1.0000
  H   H791      1.0  0.11171  0.77363  0.13238  1.0000
  H   H792      1.0  0.44098  0.92523  0.19317  1.0000
  C   C444      1.0  0.12919  0.92336  0.01318  1.0000
  H   H793      1.0  0.10515  0.50597  0.24166  1.0000
  H   H794      1.0  0.23190  0.98819  0.25532  1.0000
  H   H795      1.0  0.33965  0.50257  0.22815  1.0000
  S   S107      1.0  0.08383  0.58522  0.24265  1.0000
  H   H796      1.0  0.08995  0.78904  0.12641  1.0000
  C   C445      1.0  0.04659  0.76222  0.02201  1.0000
  C   C446      1.0  0.07533  0.54915  0.24589  1.0000
  H   H797      1.0  0.15709  0.85394  0.16895  1.0000
  H   H798      1.0  0.32399  0.78907  0.22339  1.0000
  H   H799      1.0  0.30414  0.78187  0.25249  1.0000
  C   C447      1.0  0.11083  0.80049  0.16414  1.0000
  H   H800      1.0  0.11333  0.73273  0.19475  1.0000
  Fe  Fe52      1.0  0.28795  0.85244  0.24909  1.0000
  H   H801      1.0  0.14068  0.87245  0.15757  1.0000
  H   H802      1.0  0.21612  0.96853  0.22253  1.0000
  C   C448      1.0  0.05864  0.83815  0.01882  1.0000
  H   H803      1.0  0.06919  0.72935  0.15866  1.0000
  C   C449      1.0  0.29392  0.55645  0.24498  1.0000
  H   H804      1.0  0.06995  0.72593  0.12763  1.0000
  S   S108      1.0  0.26891  0.88076  0.24482  1.0000
  H   H805      1.0  0.02674  0.72093  0.06245  1.0000
  Fe  Fe53      1.0  0.34551  0.89474  0.23648  1.0000
  C   C450      1.0  0.34991  0.82243  0.20596  1.0000
  C   C451      1.0  0.23690  0.97863  0.21662  1.0000
  H   H806      1.0  0.05509  0.74951  0.01494  1.0000
  H   H807      1.0  0.02557  0.79581  0.01947  1.0000
  C   C452      1.0  0.09186  0.80405  0.02779  1.0000
  H   H808      1.0  0.12638  0.82784  0.13967  1.0000
  N   N23       1.0  0.25525  0.96696  0.22483  1.0000
  C   C453      1.0  0.42897  0.90446  0.25506  1.0000
  H   H809      1.0  0.26453  0.95504  0.25309  1.0000
  C   C454      1.0  0.35497  0.82334  0.24302  1.0000
  H   H810      1.0  0.05803  0.72682  0.09297  1.0000
  C   C455      1.0  0.05872  0.77360  0.15726  1.0000
  H   H811      1.0  0.30119  0.50686  0.21340  1.0000
  C   C456      1.0  0.03867  0.84894  0.02470  1.0000
  H   H812      1.0  0.40228  0.81724  0.23323  1.0000
  C   C457      1.0  0.00382  0.68809  0.14954  1.0000
  H   H813      1.0  0.09500  0.90328  0.03206  1.0000
  H   H814      1.0  0.21796  0.94071  0.01701  1.0000
  Fe  Fe54      1.0  0.01018  0.78727  0.11244  1.0000
  N   N24       1.0  0.06321  0.79255  0.01735  1.0000
  H   H815      1.0  0.21816  0.87856  0.21843  1.0000
  H   H816      1.0  0.21401  0.91373  0.23928  1.0000
  H   H817      1.0  0.43979  0.80534  0.23990  1.0000
  C   C458      1.0  0.01449  0.73508  0.23756  1.0000
  C   C459      1.0  0.21450  0.79813  0.24966  1.0000
  H   H818      1.0  0.19942  0.92358  0.21852  1.0000
  H   H819      1.0  0.04646  0.87081  0.02050  1.0000
  H   H820      1.0  0.19068  0.97416  0.19364  1.0000
  H   H821      1.0  0.13724  0.90865  0.01695  1.0000
  S   S109      1.0  0.03519  0.62403  0.25330  1.0000
  H   H822      1.0  0.14714  0.94453  0.01275  1.0000
  C   C460      1.0  0.40204  0.80660  0.24684  1.0000
  C   C461      1.0  0.30654  0.97657  0.22480  1.0000
  H   H823      1.0  0.11484  0.55492  0.23697  1.0000
  C   C462      1.0  0.04991  0.52944  0.25251  1.0000
  C   C463      1.0  0.04444  0.50151  0.25514  1.0000
  C   C464      1.0  0.99763  0.69129  0.18415  1.0000
  S   S110      1.0  0.99702  0.69268  0.12459  1.0000
  H   H824      1.0  0.02462  0.75340  0.01597  1.0000
  H   H825      1.0  0.44589  0.83560  0.25474  1.0000
  H   H826      1.0  0.25105  0.98882  0.18687  1.0000
  C   C465      1.0  0.99357  0.69723  0.16474  1.0000
  C   C466      1.0  0.25877  0.97055  0.24688  1.0000
  H   H827      1.0  0.18231  0.71796  0.25457  1.0000
  H   H828      1.0  0.37483  0.51053  0.24835  1.0000
  H   H829      1.0  0.33156  0.53909  0.24175  1.0000
  N   N25       1.0  0.31612  0.49829  0.25346  1.0000
  H   H830      1.0  0.27356  0.55626  0.24260  1.0000
  C   C467      1.0  0.31720  0.52656  0.25281  1.0000
  C   C468      1.0  0.43203  0.81279  0.25209  1.0000
  H   H831      1.0  0.34559  0.76899  0.24829  1.0000
  C   C469      1.0  0.23170  0.78677  0.25551  1.0000
  H   H832      1.0  0.35072  0.99094  0.22309  1.0000
  C   C470      1.0  0.29363  0.73889  0.25568  1.0000
  H   H833      1.0  0.37171  0.54076  0.25594  1.0000
  C   C471      1.0  0.00231  0.68581  0.34528  1.0000
  H   H834      1.0  0.38904  0.53829  0.28964  1.0000
  H   H835      1.0  0.10912  0.90220  0.47025  1.0000
  S   S111      1.0  0.30870  0.94746  0.28013  1.0000
  S   S112      1.0  0.00242  0.76668  0.38118  1.0000
  Fe  Fe55      1.0  0.06321  0.65951  0.27485  1.0000
  S   S113      1.0  0.06023  0.66750  0.30745  1.0000
  H   H836      1.0  0.39116  0.50723  0.28215  1.0000
  H   H837      1.0  0.16396  0.85262  0.47486  1.0000
  H   H838      1.0  0.37609  0.88900  0.30233  1.0000
  C   C472      1.0  0.16263  0.88852  0.46113  1.0000
  C   C473      1.0  0.99848  0.71778  0.48767  1.0000
  H   H839      1.0  0.17906  0.90970  0.45803  1.0000
  H   H840      1.0  0.07384  0.79669  0.45684  1.0000
  Fe  Fe56      1.0  0.02831  0.77476  0.40933  1.0000
  S   S114      1.0  0.07455  0.80408  0.41324  1.0000
  S   S115      1.0  0.01504  0.72948  0.41434  1.0000
  H   H841      1.0  0.37201  0.86712  0.27010  1.0000
  Fe  Fe57      1.0  0.17439  0.95422  0.39390  1.0000
  S   S116      1.0  0.12736  0.93037  0.39107  1.0000
  S   S117      1.0  0.19924  0.93158  0.39719  1.0000
  C   C474      1.0  0.08799  0.83918  0.40747  1.0000
  C   C475      1.0  0.07149  0.84948  0.39833  1.0000
  C   C476      1.0  0.08358  0.87767  0.39359  1.0000
  C   C477      1.0  0.11203  0.89561  0.39818  1.0000
  C   C478      1.0  0.12812  0.88533  0.40784  1.0000
  C   C479      1.0  0.11631  0.85713  0.41207  1.0000
  H   H842      1.0  0.04957  0.83571  0.39474  1.0000
  H   H843      1.0  0.07091  0.88552  0.38621  1.0000
  H   H844      1.0  0.14968  0.89906  0.41213  1.0000
  H   H845      1.0  0.12914  0.84909  0.41891  1.0000
  H   H846      1.0  0.25206  0.94301  0.48783  1.0000
  C   C480      1.0  0.15738  0.90742  0.49227  1.0000
  H   H847      1.0  0.29961  0.72594  0.26503  1.0000
  C   C481      1.0  0.21977  0.75792  0.25809  1.0000
  C   C482      1.0  0.12025  0.86200  0.47923  1.0000
  H   H848      1.0  0.06225  0.71627  0.29154  1.0000
  C   C483      1.0  0.19481  0.86829  0.45406  1.0000
  C   C484      1.0  0.03751  0.67553  0.32088  1.0000
  H   H849      1.0  0.12931  0.58935  0.27211  1.0000
  H   H850      1.0  0.33304  0.82010  0.27755  1.0000
  N   N26       1.0  0.01608  0.72314  0.27388  1.0000
  H   H851      1.0  0.10634  0.75424  0.30530  1.0000
  C   C485      1.0  0.04868  0.69509  0.33690  1.0000
  H   H852      1.0  0.08974  0.62434  0.36614  1.0000
  C   C486      1.0  0.03128  0.70044  0.34889  1.0000
  H   H853      1.0  0.07097  0.70594  0.34025  1.0000
  H   H854      1.0  0.16255  0.93761  0.44909  1.0000
  H   H855      1.0  0.03455  0.60365  0.31424  1.0000
  H   H856      1.0  0.27625  0.51988  0.26140  1.0000
  H   H857      1.0  0.05434  0.60806  0.37309  1.0000
  H   H858      1.0  0.00748  0.71065  0.30346  1.0000
  H   H859      1.0  0.05665  0.73995  0.30691  1.0000
  C   C487      1.0  0.28723  0.94284  0.29991  1.0000
  H   H860      1.0  0.03624  0.55575  0.29029  1.0000
  H   H861      1.0  0.27841  0.98202  0.33601  1.0000
  C   C488      1.0  0.25333  0.93757  0.33133  1.0000
  C   C489      1.0  0.24898  0.91410  0.31959  1.0000
  C   C490      1.0  0.26577  0.91666  0.30402  1.0000
  C   C491      1.0  0.07158  0.55179  0.31964  1.0000
  H   H862      1.0  0.09173  0.55801  0.32811  1.0000
  H   H863      1.0  0.11854  0.93405  0.43352  1.0000
  H   H864      1.0  0.26213  0.89837  0.29524  1.0000
  H   H865      1.0  0.20662  0.85820  0.46055  1.0000
  H   H866      1.0  0.15249  0.87863  0.44663  1.0000
  H   H867      1.0  0.39561  0.81074  0.27735  1.0000
  C   C492      1.0  0.23101  0.96230  0.47221  1.0000
  H   H868      1.0  0.09833  0.77993  0.29484  1.0000
  H   H869      1.0  0.02063  0.68663  0.28011  1.0000
  H   H870      1.0  0.15491  0.94835  0.47194  1.0000
  H   H871      1.0  0.20987  0.88839  0.44831  1.0000
  H   H872      1.0  0.46316  0.91256  0.27605  1.0000
  S   S118      1.0  0.25475  0.99102  0.39905  1.0000
  H   H873      1.0  0.09583  0.84725  0.45092  1.0000
  S   S119      1.0  0.10219  0.65753  0.26781  1.0000
  H   H874      1.0  0.08349  0.53747  0.29310  1.0000
  H   H875      1.0  0.08888  0.60895  0.29172  1.0000
  C   C493      1.0  0.03325  0.59183  0.30056  1.0000
  H   H876      1.0  0.09122  0.80442  0.48086  1.0000
  C   C494      1.0  0.12734  0.90400  0.46268  1.0000
  H   H877      1.0  0.00126  0.56923  0.27711  1.0000
  C   C495      1.0  0.06723  0.52915  0.30371  1.0000
  H   H878      1.0  0.40483  0.84087  0.26360  1.0000
  H   H879      1.0  0.06577  0.81602  0.47454  1.0000
  H   H880      1.0  0.04759  0.60674  0.29060  1.0000
  H   H881      1.0  0.11835  0.89268  0.44830  1.0000
  C   C496      1.0  0.21756  0.97853  0.47407  1.0000
  H   H882      1.0  0.08175  0.57549  0.28307  1.0000
  H   H883      1.0  0.04023  0.71533  0.36123  1.0000
  H   H884      1.0  0.12996  0.61575  0.31218  1.0000
  H   H885      1.0  0.12921  0.85322  0.49022  1.0000
  H   H886      1.0  0.34153  0.85991  0.29860  1.0000
  S   S120      1.0  0.32703  0.88486  0.26565  1.0000
  C   C497      1.0  0.10571  0.83983  0.46212  1.0000
  N   N27       1.0  0.14192  0.89048  0.47384  1.0000
  C   C498      1.0  0.36984  0.52060  0.26058  1.0000
  H   H887      1.0  0.27126  0.73241  0.25711  1.0000
  C   C499      1.0  0.00355  0.58023  0.29142  1.0000
  C   C500      1.0  0.37328  0.85564  0.28290  1.0000
  S   S121      1.0  0.99657  0.77694  0.42768  1.0000
  H   H888      1.0  0.18053  0.85439  0.44184  1.0000
  H   H889      1.0  0.12076  0.83479  0.45513  1.0000
  H   H890      1.0  0.39538  0.86127  0.28650  1.0000
  C   C501      1.0  0.14560  0.93510  0.45834  1.0000
  S   S122      1.0  0.19991  0.98118  0.37065  1.0000
  H   H891      1.0  0.02889  0.77510  0.50609  1.0000
  C   C502      1.0  0.12833  0.94646  0.44741  1.0000
  H   H892      1.0  0.44481  0.49516  0.27535  1.0000
  Fe  Fe58      1.0  0.22642  0.95975  0.37507  1.0000
  C   C503      1.0  0.12036  0.59797  0.30119  1.0000
  S   S123      1.0  0.23126  0.93270  0.35078  1.0000
  H   H893      1.0  0.02527  0.55347  0.31413  1.0000
  N   N28       1.0  0.36081  0.81102  0.26101  1.0000
  C   C504      1.0  0.21675  0.98979  0.49251  1.0000
  H   H894      1.0  0.05547  0.54125  0.33016  1.0000
  C   C505      1.0  0.46745  0.53248  0.25964  1.0000
  C   C506      1.0  0.45440  0.90505  0.26133  1.0000
  S   S124      1.0  0.23556  0.95060  0.44914  1.0000
  C   C507      1.0  0.08280  0.81265  0.46915  1.0000
  H   H895      1.0  0.12293  0.58036  0.30682  1.0000
  C   C508      1.0  0.08928  0.58971  0.29633  1.0000
  C   C509      1.0  0.09496  0.75821  0.29296  1.0000
  H   H896      1.0  0.10338  0.86371  0.48654  1.0000
  C   C510      1.0  0.23390  0.96905  0.25769  1.0000
  C   C511      1.0  0.27472  0.96376  0.32717  1.0000
  C   C512      1.0  0.29150  0.96633  0.31159  1.0000
  H   H897      1.0  0.06388  0.63097  0.35318  1.0000
  H   H898      1.0  0.11182  0.94585  0.45643  1.0000
  C   C513      1.0  0.99117  0.66616  0.32930  1.0000
  H   H899      1.0  0.04658  0.52117  0.29567  1.0000
  H   H900      1.0  0.19336  0.88610  0.48177  1.0000
  C   C514      1.0  0.06007  0.58989  0.34644  1.0000
  Fe  Fe59      1.0  0.22466  0.96447  0.42051  1.0000
  H   H901      1.0  0.14887  0.93608  0.33586  1.0000
  H   H902      1.0  0.23258  0.89372  0.32262  1.0000
  H   H903      1.0  0.08042  0.61856  0.32367  1.0000
  H   H904      1.0  0.12872  0.92403  0.49934  1.0000
  H   H905      1.0  0.30638  0.77266  0.27707  1.0000
  C   C515      1.0  0.39110  0.81792  0.26321  1.0000
  H   H906      1.0  0.17536  0.92752  0.48889  1.0000
  H   H907      1.0  0.41866  0.91168  0.26492  1.0000
  C   C516      1.0  0.07877  0.59866  0.32901  1.0000
  C   C517      1.0  0.24182  0.95576  0.48910  1.0000
  C   C518      1.0  0.06757  0.61490  0.36054  1.0000
  C   C519      1.0  0.00858  0.66117  0.31714  1.0000
  H   H908      1.0  0.06299  0.57396  0.35458  1.0000
  C   C520      1.0  0.04064  0.56803  0.30438  1.0000
  N   N29       1.0  0.07009  0.57706  0.31240  1.0000
  H   H909      1.0  0.10007  0.60427  0.33520  1.0000
  H   H910      1.0  0.30799  0.98669  0.30859  1.0000
  H   H911      1.0  0.08917  0.51093  0.32034  1.0000
  H   H912      1.0  0.47101  0.64214  0.30151  1.0000
  C   C521      1.0  0.17832  0.87323  0.46953  1.0000
  N   N30       1.0  0.14373  0.85055  0.35501  1.0000
  C   C522      1.0  0.12213  0.82377  0.36279  1.0000
  C   C523      1.0  0.16742  0.86529  0.37038  1.0000
  C   C524      1.0  0.13049  0.86917  0.35165  1.0000
  C   C525      1.0  0.15433  0.84612  0.33607  1.0000
  C   C526      1.0  0.15501  0.81811  0.33271  1.0000
  C   C527      1.0  0.09375  0.80899  0.35062  1.0000
  C   C528      1.0  0.15035  0.89951  0.34636  1.0000
  C   C529      1.0  0.18376  0.84981  0.37686  1.0000
  C   C530      1.0  0.20515  0.86610  0.39376  1.0000
  C   C531      1.0  0.17032  0.81849  0.31467  1.0000
  C   C532      1.0  0.07641  0.77881  0.35614  1.0000
  C   C533      1.0  0.13415  0.91394  0.33825  1.0000
  H   H913      1.0  0.11755  0.82781  0.37775  1.0000
  H   H914      1.0  0.13002  0.80852  0.36467  1.0000
  H   H915      1.0  0.18340  0.88544  0.36527  1.0000
  H   H916      1.0  0.15961  0.87063  0.38359  1.0000
  H   H917      1.0  0.12010  0.87062  0.36479  1.0000
  H   H918      1.0  0.11371  0.85996  0.33970  1.0000
  H   H919      1.0  0.14152  0.84731  0.32336  1.0000
  H   H920      1.0  0.17570  0.86349  0.33446  1.0000
  H   H921      1.0  0.13356  0.80051  0.33036  1.0000
  H   H922      1.0  0.16534  0.81342  0.34522  1.0000
  H   H923      1.0  0.08150  0.82008  0.35342  1.0000
  H   H924      1.0  0.09661  0.80901  0.33479  1.0000
  H   H925      1.0  0.16473  0.90005  0.33538  1.0000
  H   H926      1.0  0.16295  0.91204  0.35959  1.0000
  H   H927      1.0  0.16989  0.82878  0.38181  1.0000
  H   H928      1.0  0.19554  0.84811  0.36473  1.0000
  H   H929      1.0  0.22051  0.88701  0.38925  1.0000
  H   H930      1.0  0.19475  0.86879  0.40645  1.0000
  H   H931      1.0  0.21658  0.85462  0.39828  1.0000
  H   H932      1.0  0.16010  0.82218  0.30151  1.0000
  H   H933      1.0  0.19238  0.83508  0.31656  1.0000
  H   H934      1.0  0.17001  0.79807  0.31237  1.0000
  H   H935      1.0  0.05582  0.76920  0.34776  1.0000
  H   H936      1.0  0.08703  0.76630  0.35280  1.0000
  H   H937      1.0  0.07283  0.77807  0.37191  1.0000
  H   H938      1.0  0.12268  0.90355  0.32415  1.0000
  H   H939      1.0  0.11917  0.91352  0.34870  1.0000
  H   H940      1.0  0.23879  0.94768  0.28281  1.0000
  C   C534      1.0  0.04733  0.74151  0.27522  1.0000
  H   H941      1.0  0.05244  0.76393  0.27589  1.0000
  C   C535      1.0  0.13689  0.60708  0.28312  1.0000
  H   H942      1.0  0.32644  0.53885  0.26688  1.0000
  H   H943      1.0  0.16688  0.89647  0.50071  1.0000
  H   H944      1.0  0.00638  0.79646  0.49180  1.0000
  H   H945      1.0  0.14199  0.96843  0.44393  1.0000
  H   H946      1.0  0.15924  0.61413  0.28712  1.0000
  C   C536      1.0  0.06398  0.73732  0.29269  1.0000
  H   H947      1.0  0.01114  0.71797  0.47607  1.0000
  H   H948      1.0  0.13489  0.62456  0.27654  1.0000
  H   H949      1.0  0.33923  0.50876  0.28163  1.0000
  H   H950      1.0  0.98838  0.56558  0.30118  1.0000
  H   H951      1.0  0.34926  0.77145  0.27385  1.0000
  H   H952      1.0  0.10368  0.75579  0.27926  1.0000
  H   H953      1.0  0.01865  0.74657  0.30059  1.0000
  C   C537      1.0  0.44429  0.50618  0.26259  1.0000
  C   C538      1.0  0.34021  0.50087  0.26682  1.0000
  C   C539      1.0  0.00386  0.73391  0.25816  1.0000
  H   H954      1.0  0.05192  0.49421  0.32277  1.0000
  H   H955      1.0  0.22090  0.96761  0.28713  1.0000
  C   C540      1.0  0.35493  0.82370  0.27879  1.0000
  H   H956      1.0  0.29120  0.50296  0.28650  1.0000
  H   H957      1.0  0.36769  0.85687  0.31396  1.0000
  H   H958      1.0  0.99952  0.64538  0.30536  1.0000
  C   C541      1.0  0.36399  0.86588  0.30051  1.0000
  H   H959      1.0  0.35694  0.81331  0.29210  1.0000
  C   C542      1.0  0.31107  0.76979  0.26193  1.0000
  H   H960      1.0  0.98851  0.63630  0.27054  1.0000
  H   H961      1.0  0.03769  0.58096  0.34174  1.0000
  H   H962      1.0  0.03537  0.84255  0.50091  1.0000
  H   H963      1.0  0.20856  0.98308  0.46123  1.0000
  C   C543      1.0  0.34275  0.77980  0.26109  1.0000
  C   C544      1.0  0.39201  0.52690  0.27718  1.0000
  C   C545      1.0  0.23827  0.96736  0.27962  1.0000
  S   S125      1.0  0.19809  0.98556  0.41860  1.0000
  H   H964      1.0  0.41300  0.54012  0.27201  1.0000
  C   C546      1.0  0.01001  0.69352  0.26903  1.0000
  S   S126      1.0  0.26822  0.80780  0.25853  1.0000
  H   H965      1.0  0.23292  0.74902  0.26286  1.0000
  C   C547      1.0  0.99200  0.79640  0.50269  1.0000
  H   H966      1.0  0.43322  0.80198  0.26532  1.0000
  C   C548      1.0  0.06852  0.50426  0.31255  1.0000
  H   H967      1.0  0.00790  0.75541  0.26260  1.0000
  C   C549      1.0  0.00549  0.72543  0.29337  1.0000
  Fe  Fe60      1.0  0.30909  0.91402  0.25937  1.0000
  H   H968      1.0  0.05636  0.73812  0.26196  1.0000
  H   H969      1.0  0.25809  0.98536  0.28558  1.0000
  Fe  Fe61      1.0  0.98780  0.72145  0.38662  1.0000
  H   H970      1.0  0.99874  0.59768  0.28911  1.0000
  H   H971      1.0  0.30572  0.57099  0.25768  1.0000
  H   H972      1.0  0.20238  0.91738  0.62187  1.0000
  C   C550      1.0  0.22907  0.98465  0.50928  1.0000
  C   C551      1.0  0.05552  0.85876  0.52940  1.0000
  H   H973      1.0  0.20932  0.96745  0.71845  1.0000
  H   H974      1.0  0.17233  0.95328  0.51919  1.0000
  C   C552      1.0  0.17515  0.81571  0.65136  1.0000
  Fe  Fe62      1.0  0.17381  0.94019  0.58045  1.0000
  S   S127      1.0  0.13886  0.89709  0.56991  1.0000
  S   S128      1.0  0.21721  0.94857  0.57447  1.0000
  H   H975      1.0  0.07631  0.80239  0.53823  1.0000
  S   S129      1.0  0.00155  0.73166  0.60410  1.0000
  S   S130      1.0  0.03439  0.81489  0.61496  1.0000
  H   H976      1.0  0.01752  0.85557  0.51497  1.0000
  C   C553      1.0  0.18293  0.84519  0.64526  1.0000
  H   H977      1.0  0.99409  0.70254  0.70042  1.0000
  S   S131      1.0  0.17763  0.97794  0.56555  1.0000
  H   H978      1.0  0.24281  0.90694  0.64208  1.0000
  H   H979      1.0  0.21848  0.91634  0.69743  1.0000
  C   C554      1.0  0.18134  0.87313  0.59482  1.0000
  H   H980      1.0  0.21244  0.92587  0.67346  1.0000
  H   H981      1.0  0.17016  0.92698  0.64606  1.0000
  Fe  Fe63      1.0  0.23103  0.97366  0.60346  1.0000
  C   C555      1.0  0.24087  0.96687  0.50756  1.0000
  C   C556      1.0  0.02274  0.79827  0.53012  1.0000
  H   H982      1.0  0.15837  0.86350  0.59561  1.0000
  C   C557      1.0  0.10904  0.87523  0.58217  1.0000
  C   C558      1.0  0.09183  0.84783  0.57452  1.0000
  C   C559      1.0  0.06855  0.82925  0.58415  1.0000
  C   C560      1.0  0.06239  0.83794  0.60166  1.0000
  C   C561      1.0  0.07938  0.86549  0.60916  1.0000
  C   C562      1.0  0.10242  0.88416  0.59936  1.0000
  H   H983      1.0  0.09681  0.84086  0.56122  1.0000
  H   H984      1.0  0.05573  0.80805  0.57831  1.0000
  H   H985      1.0  0.07464  0.87243  0.62261  1.0000
  H   H986      1.0  0.11513  0.90538  0.60521  1.0000
  H   H987      1.0  0.18960  0.92347  0.69215  1.0000
  H   H988      1.0  0.26720  0.95402  0.74052  1.0000
  C   C563      1.0  0.16010  0.88960  0.62788  1.0000
  H   H989      1.0  0.99826  0.56977  0.73499  1.0000
  H   H990      1.0  0.28192  0.92778  0.62032  1.0000
  H   H991      1.0  0.20799  0.86725  0.57435  1.0000
  H   H992      1.0  0.03501  0.80925  0.54383  1.0000
  H   H993      1.0  0.15451  0.80042  0.64436  1.0000
  H   H994      1.0  0.01342  0.82467  0.56257  1.0000
  H   H995      1.0  0.14397  0.93486  0.53429  1.0000
  H   H996      1.0  0.17082  0.83735  0.54960  1.0000
  C   C564      1.0  0.29165  0.97930  0.66126  1.0000
  H   H997      1.0  0.27222  0.95218  0.71521  1.0000
  H   H998      1.0  0.24097  0.87311  0.63765  1.0000
  H   H999      1.0  0.07053  0.85098  0.52661  1.0000
  H   H1000     1.0  0.13401  0.90093  0.64452  1.0000
  S   S132      1.0  0.98528  0.76574  0.57112  1.0000
  S   S133      1.0  0.18712  0.96247  0.61006  1.0000
  H   H1001     1.0  0.16941  0.92309  0.53158  1.0000
  C   C565      1.0  0.15756  0.93232  0.52389  1.0000
  H   H1002     1.0  0.18775  0.89420  0.58927  1.0000
  H   H1003     1.0  0.19107  0.80970  0.64723  1.0000
  H   H1004     1.0  0.20308  0.85972  0.65303  1.0000
  C   C566      1.0  0.15571  0.90418  0.64554  1.0000
  H   H1005     1.0  0.18294  0.83531  0.58422  1.0000
  C   C567      1.0  0.27604  0.90738  0.62680  1.0000
  H   H1006     1.0  0.30869  0.94858  0.73475  1.0000
  H   H1007     1.0  0.00704  0.77740  0.53450  1.0000
  C   C568      1.0  0.30951  0.96932  0.73397  1.0000
  C   C569      1.0  0.99053  0.71580  0.52249  1.0000
  C   C570      1.0  0.23036  0.96039  0.69499  1.0000
  C   C571      1.0  0.28042  0.96560  0.72883  1.0000
  H   H1008     1.0  0.17073  0.87003  0.55427  1.0000
  S   S134      1.0  0.25741  0.96588  0.62735  1.0000
  C   C572      1.0  0.16695  0.85007  0.56064  1.0000
  H   H1009     1.0  0.14570  0.86688  0.62807  1.0000
  C   C573      1.0  0.18639  0.85571  0.57889  1.0000
  H   H1010     1.0  0.22752  0.94931  0.72525  1.0000
  H   H1011     1.0  0.14482  0.83845  0.56414  1.0000
  H   H1012     1.0  0.23398  0.90773  0.60495  1.0000
  C   C574      1.0  0.99961  0.83098  0.55421  1.0000
  C   C575      1.0  0.24537  0.89315  0.63121  1.0000
  H   H1013     1.0  0.01142  0.85353  0.55154  1.0000
  N   N31       1.0  0.00828  0.81339  0.52101  1.0000
  H   H1014     1.0  0.16704  0.85049  0.65049  1.0000
  H   H1015     1.0  0.19970  0.89795  0.64236  1.0000
  C   C576      1.0  0.02839  0.84265  0.51580  1.0000
  H   H1016     1.0  0.16174  0.83349  0.61689  1.0000
  H   H1017     1.0  0.00409  0.68997  0.73629  1.0000
  H   H1018     1.0  0.17400  0.81490  0.66740  1.0000
  C   C577      1.0  0.28018  0.98939  0.64665  1.0000
  H   H1019     1.0  0.15431  0.89742  0.61464  1.0000
  H   H1020     1.0  0.04921  0.76652  0.53726  1.0000
  H   H1021     1.0  0.28929  0.91131  0.64050  1.0000
  C   C578      1.0  0.04182  0.79269  0.51677  1.0000
  C   C579      1.0  0.06128  0.78464  0.52842  1.0000
  H   H1022     1.0  0.05184  0.85645  0.54503  1.0000
  H   H1023     1.0  0.23050  0.87349  0.60293  1.0000
  Fe  Fe64      1.0  0.00076  0.77257  0.60240  1.0000
  C   C580      1.0  0.06992  0.88996  0.52600  1.0000
  H   H1024     1.0  0.15910  0.89536  0.65917  1.0000
  Fe  Fe65      1.0  0.22145  0.98754  0.56093  1.0000
  H   H1025     1.0  0.25075  0.96303  0.52030  1.0000
  S   S135      1.0  0.00144  0.71326  0.54683  1.0000
  H   H1026     1.0  0.99417  0.54274  0.75127  1.0000
  H   H1027     1.0  0.28025  0.89397  0.61657  1.0000
  H   H1028     1.0  0.28635  0.95747  0.66060  1.0000
  C   C581      1.0  0.18369  0.84686  0.62279  1.0000
  N   N32       1.0  0.19550  0.87561  0.61478  1.0000
  C   C582      1.0  0.19084  0.89597  0.62724  1.0000
  C   C583      1.0  0.22632  0.88766  0.61242  1.0000
  H   H1029     1.0  0.19518  0.83592  0.61764  1.0000
  H   H1030     1.0  0.07304  0.77873  0.51832  1.0000
  H   H1031     1.0  0.31762  0.98058  0.74843  1.0000
  H   H1032     1.0  0.05640  0.89923  0.52980  1.0000
  H   H1033     1.0  0.08957  0.90061  0.53548  1.0000
  H   H1034     1.0  0.01425  0.64961  0.74337  1.0000
  C   C584      1.0  0.99159  0.63546  0.74390  1.0000
  H   H1035     1.0  0.12388  0.89377  0.51226  1.0000
  C   C585      1.0  0.22943  0.96722  0.71690  1.0000
  H   H1036     1.0  0.99718  0.72980  0.72896  1.0000
  C   C586      1.0  0.00702  0.71669  0.50722  1.0000
  C   C587      1.0  0.21149  0.92955  0.68925  1.0000
  H   H1037     1.0  0.39403  0.98564  0.69371  1.0000
  H   H1038     1.0  0.38547  0.98866  0.71823  1.0000
  H   H1039     1.0  0.98866  0.61985  0.75489  1.0000
  H   H1040     1.0  0.02640  0.71628  0.51051  1.0000
  H   H1041     1.0  0.99579  0.74828  0.69278  1.0000
  H   H1042     1.0  0.25178  0.96592  0.69127  1.0000
  H   H1043     1.0  0.22315  0.97263  0.68583  1.0000
  H   H1044     1.0  0.07494  0.89363  0.51057  1.0000
  H   H1045     1.0  0.05457  0.81104  0.50843  1.0000
  H   H1046     1.0  0.98557  0.83979  0.58115  1.0000
  C   C588      1.0  0.98760  0.81373  0.53462  1.0000
  H   H1047     1.0  0.32389  0.98112  0.72279  1.0000
  H   H1048     1.0  0.31879  0.98914  0.68760  1.0000
  C   C589      1.0  0.13958  0.91347  0.50648  1.0000
  H   H1049     1.0  0.02544  0.79202  0.98655  1.0000
  H   H1050     1.0  0.30329  0.97392  0.86818  1.0000
  C   C590      1.0  0.11116  0.91407  0.99354  1.0000
  H   H1051     1.0  0.26058  0.96964  0.84234  1.0000
  S   S136      1.0  0.17084  0.96351  0.92231  1.0000
  H   H1052     1.0  0.07822  0.81512  0.99120  1.0000
  Fe  Fe66      1.0  0.16267  0.95026  0.89075  1.0000
  S   S137      1.0  0.11812  0.92130  0.87920  1.0000
  S   S138      1.0  0.20145  0.94584  0.88868  1.0000
  Fe  Fe67      1.0  0.99710  0.77441  0.90596  1.0000
  S   S139      1.0  0.04447  0.79950  0.90917  1.0000
  H   H1053     1.0  0.16803  0.94182  0.98644  1.0000
  H   H1054     1.0  0.04312  0.69724  0.88310  1.0000
  C   C591      1.0  0.09783  0.88787  0.88824  1.0000
  C   C592      1.0  0.06929  0.87291  0.88239  1.0000
  C   C593      1.0  0.05255  0.84607  0.88897  1.0000
  C   C594      1.0  0.06432  0.83375  0.90126  1.0000
  C   C595      1.0  0.09284  0.84880  0.90725  1.0000
  C   C596      1.0  0.10949  0.87581  0.90090  1.0000
  H   H1055     1.0  0.06009  0.88206  0.87261  1.0000
  H   H1056     1.0  0.03067  0.83472  0.88424  1.0000
  H   H1057     1.0  0.10214  0.83938  0.91669  1.0000
  H   H1058     1.0  0.13144  0.88706  0.90545  1.0000
  H   H1059     1.0  0.12497  0.97624  0.89866  1.0000
  H   H1060     1.0  0.12685  0.83795  0.96235  1.0000
  H   H1061     1.0  0.11834  0.91260  0.94443  1.0000
  H   H1062     1.0  0.07160  0.88703  0.92489  1.0000
  C   C597      1.0  0.04298  0.78498  0.96125  1.0000
  H   H1063     1.0  0.98500  0.66115  0.76447  1.0000
  C   C598      1.0  0.22686  0.95781  0.96934  1.0000
  H   H1064     1.0  0.31267  0.96666  0.89197  1.0000
  C   C599      1.0  0.06059  0.87981  0.93838  1.0000
  H   H1065     1.0  0.13849  0.96694  0.96027  1.0000
  H   H1066     1.0  0.09957  0.92480  0.95816  1.0000
  H   H1067     1.0  0.04322  0.85829  0.93528  1.0000
  H   H1068     1.0  0.05172  0.89369  0.94244  1.0000
  H   H1069     1.0  0.06044  0.84027  0.00294  1.0000
  H   H1070     1.0  0.08611  0.86337  0.95103  1.0000
  H   H1071     1.0  0.02287  0.77446  0.95235  1.0000
  C   C600      1.0  0.15256  0.93949  0.97441  1.0000
  C   C601      1.0  0.21870  0.94124  0.98557  1.0000
  N   N33       1.0  0.12575  0.91285  0.97579  1.0000
  C   C602      1.0  0.13235  0.88897  0.97740  1.0000
  H   H1072     1.0  0.09352  0.96551  0.91086  1.0000
  H   H1073     1.0  0.10164  0.92803  0.99142  1.0000
  H   H1074     1.0  0.11338  0.86942  0.98036  1.0000
  H   H1075     1.0  0.26561  0.98121  0.76444  1.0000
  H   H1076     1.0  0.12089  0.82149  0.00476  1.0000
  H   H1077     1.0  0.16257  0.93871  0.96093  1.0000
  C   C603      1.0  0.26896  0.94770  0.88437  1.0000
  H   H1078     1.0  0.25385  0.95131  0.87510  1.0000
  H   H1079     1.0  0.26251  0.94489  0.89956  1.0000
  C   C604      1.0  0.14990  0.96664  0.97401  1.0000
  H   H1080     1.0  0.05593  0.77537  0.95677  1.0000
  H   H1081     1.0  0.06875  0.87395  0.96815  1.0000
  H   H1082     1.0  0.14741  0.89299  0.99013  1.0000
  C   C605      1.0  0.23636  0.98774  0.78012  1.0000
  C   C606      1.0  0.14538  0.88295  0.95960  1.0000
  C   C607      1.0  0.06547  0.79347  0.99559  1.0000
  C   C608      1.0  0.02607  0.68229  0.87266  1.0000
  H   H1083     1.0  0.29026  0.96744  0.81689  1.0000
  C   C609      1.0  0.22424  0.95362  0.00462  1.0000
  H   H1084     1.0  0.20818  0.91875  0.98342  1.0000
  H   H1085     1.0  0.99309  0.71498  0.76190  1.0000
  C   C610      1.0  0.03766  0.78131  0.98282  1.0000
  C   C611      1.0  0.24103  0.98685  0.97235  1.0000
  C   C612      1.0  0.14779  0.85630  0.96186  1.0000
  C   C613      1.0  0.08043  0.87985  0.95488  1.0000
  C   C614      1.0  0.29820  0.97216  0.88363  1.0000
  H   H1086     1.0  0.47465  0.50174  0.81016  1.0000
  H   H1087     1.0  0.16079  0.85807  0.97531  1.0000
  H   H1088     1.0  0.02487  0.75860  0.98460  1.0000
  H   H1089     1.0  0.09334  0.89325  0.99568  1.0000
  H   H1090     1.0  0.05349  0.80744  0.95805  1.0000
  Fe  Fe68      1.0  0.21097  0.96242  0.92021  1.0000
  H   H1091     1.0  0.15785  0.85295  0.94919  1.0000
  C   C615      1.0  0.10682  0.90881  0.95788  1.0000
  S   S140      1.0  0.22071  0.94180  0.94560  1.0000
  H   H1092     1.0  0.16663  0.90024  0.95823  1.0000
  H   H1093     1.0  0.26851  0.92818  0.87878  1.0000
  H   H1094     1.0  0.13295  0.88038  0.94576  1.0000
  H   H1095     1.0  0.07672  0.78195  0.99105  1.0000
  H   H1096     1.0  0.13881  0.96875  0.98642  1.0000
  C   C616      1.0  0.24499  0.98011  0.76109  1.0000
  H   H1097     1.0  0.03195  0.66661  0.86712  1.0000
  H   H1098     1.0  0.37081  0.98796  0.91991  1.0000
  H   H1099     1.0  0.07850  0.98404  0.83740  1.0000
  H   H1100     1.0  0.02379  0.69406  0.86034  1.0000
  C   C617      1.0  0.27238  0.98776  0.83418  1.0000
  H   H1101     1.0  0.22943  0.95837  0.75655  1.0000
  C   C618      1.0  0.28927  0.98659  0.81968  1.0000
  H   H1102     1.0  0.21527  0.98595  0.77806  1.0000
  H   H1103     1.0  0.23599  0.97336  0.79144  1.0000
  C   C619      1.0  0.11302  0.98390  0.90721  1.0000
  H   H1104     1.0  0.32673  0.99037  0.92277  1.0000
  H   H1105     1.0  0.99509  0.68502  0.88876  1.0000
  C   C620      1.0  0.99901  0.66812  0.88290  1.0000
  H   H1106     1.0  0.00223  0.65695  0.89523  1.0000
  H   H1107     1.0  0.98811  0.74617  0.78654  1.0000
  H   H1108     1.0  0.10451  0.98806  0.82095  1.0000
  Fe  Fe69      1.0  0.96074  0.17154  0.10391  1.0000
  S   S141      1.0  0.94367  0.19948  0.09369  1.0000
  S   S142      1.0  0.93390  0.12589  0.11026  1.0000
  H   H1109     1.0  0.81875  0.08256  0.01482  1.0000
  C   C621      1.0  0.97162  0.21364  0.01637  1.0000
  H   H1110     1.0  0.86394  0.08203  0.06665  1.0000
  C   C622      1.0  0.98064  0.30376  0.23062  1.0000
  N   N34       1.0  0.83319  0.07666  0.04333  1.0000
  C   C623      1.0  0.84531  0.03913  0.05773  1.0000
  Fe  Fe70      1.0  0.77413  0.01443  0.10471  1.0000
  H   H1111     1.0  0.91307  0.22170  0.17683  1.0000
  S   S143      1.0  0.80164  0.06165  0.10845  1.0000
  C   C624      1.0  0.95040  0.25783  0.24450  1.0000
  H   H1112     1.0  0.88272  0.03718  0.05039  1.0000
  C   C625      1.0  0.84168  0.10678  0.04899  1.0000
  H   H1113     1.0  0.92621  0.17424  0.22208  1.0000
  H   H1114     1.0  0.80734  0.06171  0.06747  1.0000
  C   C626      1.0  0.89702  0.10782  0.10768  1.0000
  C   C627      1.0  0.88304  0.07920  0.11107  1.0000
  C   C628      1.0  0.85376  0.06447  0.11051  1.0000
  C   C629      1.0  0.83821  0.07846  0.10711  1.0000
  C   C630      1.0  0.85216  0.10703  0.10357  1.0000
  C   C631      1.0  0.88137  0.12152  0.10343  1.0000
  H   H1115     1.0  0.89494  0.06838  0.11432  1.0000
  H   H1116     1.0  0.84328  0.04249  0.11332  1.0000
  H   H1117     1.0  0.84029  0.11807  0.10107  1.0000
  H   H1118     1.0  0.89183  0.14345  0.10061  1.0000
  H   H1119     1.0  0.87261  0.19907  0.12737  1.0000
  H   H1120     1.0  0.86302  0.15244  0.13788  1.0000
  H   H1121     1.0  0.77725  0.06060  0.02778  1.0000
  H   H1122     1.0  0.83269  0.03446  0.07059  1.0000
  H   H1123     1.0  0.92631  0.22378  0.21107  1.0000
  H   H1124     1.0  0.75637  0.04746  0.06887  1.0000
  H   H1125     1.0  0.87741  0.12188  0.20166  1.0000
  H   H1126     1.0  0.86363  0.16412  0.04438  1.0000
  H   H1127     1.0  0.88073  0.08176  0.15663  1.0000
  C   C632      1.0  0.83173  0.07371  0.02141  1.0000
  H   H1128     1.0  0.92466  0.18454  0.15359  1.0000
  H   H1129     1.0  0.82789  0.11365  0.04106  1.0000
  H   H1130     1.0  0.87675  0.08979  0.18124  1.0000
  H   H1131     1.0  0.95772  0.16762  0.18290  1.0000
  H   H1132     1.0  0.92164  0.11874  0.17393  1.0000
  C   C633      1.0  0.96825  0.25941  0.21178  1.0000
  H   H1133     1.0  0.82609  0.07250  0.17351  1.0000
  C   C634      1.0  0.90448  0.15693  0.22074  1.0000
  H   H1134     1.0  0.92189  0.17672  0.18642  1.0000
  C   C635      1.0  0.80530  0.05886  0.05130  1.0000
  H   H1135     1.0  0.54119  0.00408  0.20307  1.0000
  H   H1136     1.0  0.83640  0.03650  0.01550  1.0000
  H   H1137     1.0  0.91383  0.13060  0.20246  1.0000
  C   C636      1.0  0.75404  0.04428  0.05275  1.0000
  H   H1138     1.0  0.93769  0.29781  0.23007  1.0000
  H   H1139     1.0  0.88983  0.16574  0.22115  1.0000
  N   N35       1.0  0.97425  0.27370  0.23192  1.0000
  H   H1140     1.0  0.83900  0.10899  0.06474  1.0000
  C   C637      1.0  0.87797  0.15793  0.05224  1.0000
  C   C638      1.0  0.85494  0.06982  0.05250  1.0000
  H   H1141     1.0  0.57528  0.03051  0.17066  1.0000
  H   H1142     1.0  0.95194  0.30165  0.20646  1.0000
  H   H1143     1.0  0.98335  0.35179  0.21487  1.0000
  H   H1144     1.0  0.83247  0.02389  0.04573  1.0000
  H   H1145     1.0  0.89401  0.18693  0.11590  1.0000
  H   H1146     1.0  0.88538  0.16261  0.18414  1.0000
  C   C639      1.0  0.87197  0.12863  0.04524  1.0000
  H   H1147     1.0  0.90875  0.21328  0.13572  1.0000
  H   H1148     1.0  0.79813  0.03635  0.04826  1.0000
  C   C640      1.0  0.93736  0.24355  0.20355  1.0000
  H   H1149     1.0  0.88759  0.12419  0.05310  1.0000
  H   H1150     1.0  0.97552  0.24341  0.21136  1.0000
  H   H1151     1.0  0.74834  0.02226  0.04880  1.0000
  C   C641      1.0  0.95440  0.15882  0.16772  1.0000
  H   H1152     1.0  0.87594  0.17830  0.15774  1.0000
  H   H1153     1.0  0.89965  0.17318  0.04944  1.0000
  H   H1154     1.0  0.97223  0.13145  0.17510  1.0000
  C   C642      1.0  0.78099  0.06413  0.04383  1.0000
  H   H1155     1.0  0.73677  0.04812  0.04715  1.0000
  H   H1156     1.0  0.78519  0.08565  0.04795  1.0000
  H   H1157     1.0  0.83632  0.04638  0.16746  1.0000
  H   H1158     1.0  0.87278  0.07636  0.04313  1.0000
  H   H1159     1.0  0.87578  0.15886  0.06814  1.0000
  H   H1160     1.0  0.82989  0.06515  0.14846  1.0000
  H   H1161     1.0  0.94808  0.22613  0.17840  1.0000
  C   C643      1.0  0.95668  0.30873  0.22208  1.0000
  N   N36       1.0  0.90136  0.14306  0.16443  1.0000
  C   C644      1.0  0.92418  0.13493  0.16359  1.0000
  C   C645      1.0  0.87323  0.11784  0.15947  1.0000
  C   C646      1.0  0.90607  0.16423  0.14920  1.0000
  C   C647      1.0  0.90225  0.15671  0.18392  1.0000
  C   C648      1.0  0.89904  0.13920  0.20188  1.0000
  H   H1162     1.0  0.97193  0.30314  0.16261  1.0000
  C   C649      1.0  0.88179  0.17100  0.14450  1.0000
  C   C650      1.0  0.86914  0.08905  0.16595  1.0000
  C   C651      1.0  0.83848  0.06702  0.16371  1.0000
  H   H1163     1.0  0.90141  0.14376  0.23342  1.0000
  H   H1164     1.0  0.80062  0.02890  0.01753  1.0000
  C   C652      1.0  0.88990  0.19398  0.13002  1.0000
  H   H1165     1.0  0.92270  0.12490  0.14903  1.0000
  S   S144      1.0  0.77420  0.99238  0.07682  1.0000
  H   H1166     1.0  0.85637  0.12149  0.16504  1.0000
  H   H1167     1.0  0.86876  0.11459  0.14340  1.0000
  H   H1168     1.0  0.91086  0.15727  0.13525  1.0000
  C   C653      1.0  0.96480  0.33974  0.22317  1.0000
  C   C654      1.0  0.93506  0.23613  0.18177  1.0000
  H   H1169     1.0  0.94192  0.25523  0.17346  1.0000
  C   C655      1.0  0.97545  0.14820  0.16502  1.0000
  Fe  Fe71      1.0  0.97828  0.23329  0.11353  1.0000
  H   H1170     1.0  0.92620  0.25579  0.20562  1.0000
  S   S145      1.0  0.95801  0.19948  0.03871  1.0000
  H   H1171     1.0  0.96936  0.34809  0.23856  1.0000
  S   S146      1.0  0.97144  0.26143  0.13556  1.0000
  C   C656      1.0  0.57406  0.99889  0.19010  1.0000
  H   H1172     1.0  0.88351  0.04894  0.07533  1.0000
  S   S147      1.0  0.72732  0.99699  0.10293  1.0000
  H   H1173     1.0  0.94627  0.23574  0.24495  1.0000
  H   H1174     1.0  0.58685  0.99829  0.20287  1.0000
  H   H1175     1.0  0.85270  0.08635  0.01603  1.0000
  C   C657      1.0  0.87013  0.03429  0.06310  1.0000
  H   H1176     1.0  0.98044  0.27469  0.20103  1.0000
  H   H1177     1.0  0.97348  0.13997  0.14976  1.0000
  H   H1178     1.0  0.60882  0.03616  0.18058  1.0000
  Fe  Fe72      1.0  0.97472  0.21086  0.07065  1.0000
  H   H1179     1.0  0.93080  0.25674  0.23825  1.0000
  H   H1180     1.0  0.87537  0.12911  0.02949  1.0000
  H   H1181     1.0  0.57204  0.00127  0.23154  1.0000
  C   C658      1.0  0.82091  0.04385  0.01224  1.0000
  H   H1182     1.0  0.58668  0.04300  0.19582  1.0000
  H   H1183     1.0  0.86253  0.01261  0.06775  1.0000
  H   H1184     1.0  0.94738  0.34273  0.21675  1.0000
  H   H1185     1.0  0.90738  0.21921  0.01241  1.0000
  C   C659      1.0  0.58688  0.02899  0.18392  1.0000
  H   H1186     1.0  0.95928  0.17583  0.15766  1.0000
  H   H1187     1.0  0.90768  0.25175  0.00745  1.0000
  H   H1188     1.0  0.66501  0.00945  0.25175  1.0000
  H   H1189     1.0  0.72904  0.99415  0.25306  1.0000
  H   H1190     1.0  0.86160  0.04668  0.36143  1.0000
  C   C660      1.0  0.90364  0.05717  0.35406  1.0000
  H   H1191     1.0  0.97122  0.26734  0.27400  1.0000
  H   H1192     1.0  0.76006  0.10205  0.43813  1.0000
  C   C661      1.0  0.95038  0.11632  0.35838  1.0000
  H   H1193     1.0  0.97218  0.09797  0.44074  1.0000
  Fe  Fe73      1.0  0.95298  0.19207  0.40212  1.0000
  S   S148      1.0  0.90622  0.16546  0.39515  1.0000
  S   S149      1.0  0.97071  0.23712  0.41315  1.0000
  H   H1194     1.0  0.69715  0.02464  0.39182  1.0000
  S   S150      1.0  0.76465  0.02563  0.40493  1.0000
  S   S151      1.0  0.84072  0.03391  0.40325  1.0000
  H   H1195     1.0  0.86363  0.08354  0.47534  1.0000
  Fe  Fe74      1.0  0.79357  0.00740  0.40255  1.0000
  C   C662      1.0  0.88712  0.12930  0.39919  1.0000
  C   C663      1.0  0.86066  0.11337  0.38952  1.0000
  C   C664      1.0  0.84554  0.08432  0.39148  1.0000
  C   C665      1.0  0.85687  0.07085  0.40304  1.0000
  C   C666      1.0  0.88294  0.08692  0.41323  1.0000
  C   C667      1.0  0.89783  0.11604  0.41151  1.0000
  H   H1196     1.0  0.85202  0.12348  0.38014  1.0000
  H   H1197     1.0  0.82556  0.07222  0.38349  1.0000
  H   H1198     1.0  0.89179  0.07673  0.42232  1.0000
  H   H1199     1.0  0.91768  0.12824  0.41959  1.0000
  S   S152      1.0  0.70787  0.99468  0.36014  1.0000
  H   H1200     1.0  0.91413  0.04573  0.34816  1.0000
  H   H1201     1.0  0.90349  0.07180  0.34317  1.0000
  C   C668      1.0  0.75286  0.01504  0.49844  1.0000
  C   C669      1.0  0.93057  0.12924  0.36021  1.0000
  H   H1202     1.0  0.61518  0.03697  0.44377  1.0000
  H   H1203     1.0  0.76617  0.00448  0.28877  1.0000
  H   H1204     1.0  0.66475  0.05407  0.42192  1.0000
  C   C670      1.0  0.72052  0.06713  0.42739  1.0000
  C   C671      1.0  0.96880  0.21775  0.48691  1.0000
  H   H1205     1.0  0.76884  0.03641  0.49792  1.0000
  H   H1206     1.0  0.94733  0.10704  0.34332  1.0000
  H   H1207     1.0  0.94231  0.25150  0.47283  1.0000
  H   H1208     1.0  0.66982  0.03666  0.45652  1.0000
  H   H1209     1.0  0.97404  0.32787  0.49356  1.0000
  C   C672      1.0  0.63514  0.04458  0.45275  1.0000
  H   H1210     1.0  0.71679  0.02592  0.42326  1.0000
  C   C673      1.0  0.95544  0.21344  0.50445  1.0000
  C   C674      1.0  0.67921  0.02704  0.39675  1.0000
  H   H1211     1.0  0.54959  0.99179  0.26257  1.0000
  C   C675      1.0  0.95763  0.11050  0.39296  1.0000
  H   H1212     1.0  0.93618  0.14240  0.37388  1.0000
  H   H1213     1.0  0.84654  0.10252  0.46587  1.0000
  C   C676      1.0  0.95426  0.26935  0.26588  1.0000
  H   H1214     1.0  0.92531  0.13513  0.32937  1.0000
  H   H1215     1.0  0.91525  0.23031  0.43137  1.0000
  H   H1216     1.0  0.63046  0.04141  0.46828  1.0000
  C   C677      1.0  0.97016  0.30592  0.49242  1.0000
  C   C678      1.0  0.92793  0.25303  0.27657  1.0000
  C   C679      1.0  0.84480  0.08631  0.47605  1.0000
  C   C680      1.0  0.96584  0.08236  0.36766  1.0000
  H   H1217     1.0  0.70894  0.07753  0.43311  1.0000
  S   S153      1.0  0.98336  0.20235  0.37873  1.0000
  H   H1218     1.0  0.63389  0.00521  0.38755  1.0000
  H   H1219     1.0  0.63583  0.02103  0.41689  1.0000
  H   H1220     1.0  0.96048  0.07407  0.35224  1.0000
  C   C681      1.0  0.91504  0.23108  0.44749  1.0000
  C   C682      1.0  0.65670  0.02220  0.36256  1.0000
  H   H1221     1.0  0.91969  0.15805  0.34574  1.0000
  C   C683      1.0  0.70380  0.03500  0.42873  1.0000
  H   H1222     1.0  0.90541  0.08095  0.38031  1.0000
  H   H1223     1.0  0.90845  0.11317  0.36018  1.0000
  H   H1224     1.0  0.93306  0.20096  0.50419  1.0000
  N   N37       1.0  0.94803  0.09542  0.37320  1.0000
  H   H1225     1.0  0.94374  0.11904  0.39711  1.0000
  C   C684      1.0  0.93278  0.14779  0.34335  1.0000
  H   H1226     1.0  0.93596  0.28815  0.45600  1.0000
  H   H1227     1.0  0.90991  0.21004  0.45250  1.0000
  H   H1228     1.0  0.70267  0.03097  0.44444  1.0000
  H   H1229     1.0  0.63676  0.00630  0.44946  1.0000
  S   S154      1.0  0.74686  0.01750  0.45889  1.0000
  H   H1230     1.0  0.93775  0.07618  0.41262  1.0000
  S   S155      1.0  0.97811  0.18190  0.42424  1.0000
  H   H1231     1.0  0.82956  0.01611  0.48695  1.0000
  H   H1232     1.0  0.74527  0.07468  0.45494  1.0000
  C   C685      1.0  0.91840  0.07265  0.37381  1.0000
  C   C686      1.0  0.65050  0.02858  0.44685  1.0000
  H   H1233     1.0  0.89858  0.23624  0.45171  1.0000
  C   C687      1.0  0.74845  0.07909  0.43934  1.0000
  H   H1234     1.0  0.93157  0.26155  0.29188  1.0000
  H   H1235     1.0  0.72510  0.07279  0.41214  1.0000
  H   H1236     1.0  0.87201  0.02057  0.36726  1.0000
  H   H1237     1.0  0.91024  0.25508  0.26958  1.0000
  H   H1238     1.0  0.91733  0.05632  0.38368  1.0000
  H   H1239     1.0  0.95673  0.20826  0.47333  1.0000
  H   H1240     1.0  0.65499  0.04167  0.36415  1.0000
  H   H1241     1.0  0.82021  0.99395  0.46511  1.0000
  C   C688      1.0  0.87333  0.03594  0.35646  1.0000
  H   H1242     1.0  0.92248  0.23063  0.27671  1.0000
  C   C689      1.0  0.95890  0.09284  0.40999  1.0000
  H   H1243     1.0  0.77841  0.01140  0.26453  1.0000
  C   C690      1.0  0.65651  0.03170  0.42510  1.0000
  H   H1244     1.0  0.82606  0.06641  0.47111  1.0000
  H   H1245     1.0  0.76131  0.06990  0.43389  1.0000
  H   H1246     1.0  0.86102  0.11572  0.50069  1.0000
  C   C691      1.0  0.94345  0.25252  0.45682  1.0000
  H   H1247     1.0  0.97826  0.12921  0.39254  1.0000
  C   C692      1.0  0.65393  0.00874  0.38212  1.0000
  H   H1248     1.0  0.82359  0.09836  0.49625  1.0000
  H   H1249     1.0  0.95906  0.29157  0.26665  1.0000
  H   H1250     1.0  0.94771  0.29235  0.48843  1.0000
  H   H1251     1.0  0.64820  0.06730  0.45103  1.0000
  H   H1252     1.0  0.95462  0.16431  0.34245  1.0000
  H   H1253     1.0  0.95889  0.24598  0.45272  1.0000
  C   C693      1.0  0.84234  0.09539  0.49673  1.0000
  H   H1254     1.0  0.96133  0.06383  0.37630  1.0000
  H   H1255     1.0  0.97182  0.13428  0.35944  1.0000
  H   H1256     1.0  0.94759  0.28084  0.43426  1.0000
  N   N38       1.0  0.67536  0.02070  0.41799  1.0000
  H   H1257     1.0  0.68472  0.04923  0.39464  1.0000
  C   C694      1.0  0.97101  0.11093  0.42887  1.0000
  H   H1258     1.0  0.63987  0.00753  0.35187  1.0000
  H   H1259     1.0  0.97791  0.37296  0.41611  1.0000
  H   H1260     1.0  0.67704  0.02721  0.35678  1.0000
  C   C695      1.0  0.77086  0.99553  0.27569  1.0000
  H   H1261     1.0  0.86329  0.02451  0.34231  1.0000
  C   C696      1.0  0.95143  0.28240  0.45040  1.0000
  H   H1262     1.0  0.79685  0.00631  0.47343  1.0000
  C   C697      1.0  0.98281  0.33287  0.45370  1.0000
  H   H1263     1.0  0.95758  0.12005  0.43317  1.0000
  C   C698      1.0  0.97923  0.33987  0.43236  1.0000
  C   C699      1.0  0.98035  0.36842  0.43152  1.0000
  Fe  Fe75      1.0  0.74827  0.99751  0.42987  1.0000
  N   N39       1.0  0.98085  0.30458  0.45634  1.0000
  H   H1264     1.0  0.63749  0.99213  0.26779  1.0000
  C   C700      1.0  0.81193  0.99894  0.47816  1.0000
  C   C701      1.0  0.73887  0.00015  0.48092  1.0000
  H   H1265     1.0  0.67411  0.99751  0.32752  1.0000
  H   H1266     1.0  0.96657  0.33482  0.46170  1.0000
  H   H1267     1.0  0.97212  0.08298  0.40702  1.0000
  H   H1268     1.0  0.95892  0.32414  0.42526  1.0000
  H   H1269     1.0  0.96327  0.36874  0.43941  1.0000
  H   H1270     1.0  0.82199  0.05296  0.50594  1.0000
  Fe  Fe76      1.0  0.89458  0.29415  0.72456  1.0000
  S   S156      1.0  0.85428  0.29419  0.73053  1.0000
  S   S157      1.0  0.90092  0.28862  0.69237  1.0000
  Fe  Fe77      1.0  0.88019  0.33178  0.75120  1.0000
  H   H1271     1.0  0.85436  0.45667  0.71422  1.0000
  C   C702      1.0  0.52004  0.08543  0.66702  1.0000
  H   H1272     1.0  0.74074  0.19524  0.71495  1.0000
  C   C703      1.0  0.53285  0.05411  0.74665  1.0000
  S   S158      1.0  0.92072  0.33302  0.74398  1.0000
  S   S159      1.0  0.55995  0.04444  0.74344  1.0000
  Fe  Fe78      1.0  0.66853  0.10374  0.74069  1.0000
  C   C704      1.0  0.97082  0.18994  0.72947  1.0000
  S   S160      1.0  0.69553  0.14640  0.72899  1.0000
  H   H1273     1.0  0.52234  0.31825  0.66755  1.0000
  H   H1274     1.0  0.50951  0.09406  0.69488  1.0000
  C   C705      1.0  0.81099  0.08220  0.53292  1.0000
  Fe  Fe79      1.0  0.65247  0.04266  0.73190  1.0000
  S   S161      1.0  0.66659  0.01395  0.71644  1.0000
  S   S162      1.0  0.63527  0.07020  0.72019  1.0000
  H   H1275     1.0  0.49504  0.40606  0.70453  1.0000
  Fe  Fe80      1.0  0.85235  0.26738  0.75530  1.0000
  Fe  Fe81      1.0  0.77486  0.02272  0.59823  1.0000
  S   S163      1.0  0.80438  0.06885  0.60173  1.0000
  S   S164      1.0  0.73197  0.01247  0.58609  1.0000
  C   C706      1.0  0.54439  0.46792  0.75506  1.0000
  Fe  Fe82      1.0  0.96002  0.16860  0.59719  1.0000
  S   S165      1.0  0.93479  0.12146  0.59757  1.0000
  S   S166      1.0  0.94010  0.19631  0.59620  1.0000
  C   C707      1.0  0.69451  0.99201  0.66844  1.0000
  H   H1276     1.0  0.93079  0.23572  0.74678  1.0000
  C   C708      1.0  0.65980  0.01565  0.67605  1.0000
  C   C709      1.0  0.84018  0.08217  0.59952  1.0000
  C   C710      1.0  0.85313  0.06532  0.60029  1.0000
  C   C711      1.0  0.88222  0.07747  0.59949  1.0000
  C   C712      1.0  0.89830  0.10640  0.59797  1.0000
  C   C713      1.0  0.88505  0.12291  0.59696  1.0000
  C   C714      1.0  0.85619  0.11090  0.59773  1.0000
  H   H1277     1.0  0.84087  0.04310  0.60185  1.0000
  H   H1278     1.0  0.89233  0.06452  0.60032  1.0000
  H   H1279     1.0  0.89691  0.14498  0.59566  1.0000
  H   H1280     1.0  0.84624  0.12401  0.59712  1.0000
  H   H1281     1.0  0.95705  0.17596  0.71710  1.0000
  C   C715      1.0  0.84863  0.01909  0.55429  1.0000
  H   H1282     1.0  0.93301  0.14362  0.67925  1.0000
  C   C716      1.0  0.53671  0.34874  0.69222  1.0000
  H   H1283     1.0  0.93390  0.13950  0.54737  1.0000
  C   C717      1.0  0.67248  0.00897  0.69173  1.0000
  H   H1284     1.0  0.92110  0.41579  0.75412  1.0000
  H   H1285     1.0  0.96963  0.17701  0.74201  1.0000
  H   H1286     1.0  0.81613  0.10015  0.56291  1.0000
  C   C718      1.0  0.74613  0.00249  0.51646  1.0000
  C   C719      1.0  0.58014  0.45451  0.71106  1.0000
  C   C720      1.0  0.91353  0.45159  0.75432  1.0000
  C   C721      1.0  0.49925  0.07813  0.68269  1.0000
  S   S167      1.0  0.95302  0.22278  0.54363  1.0000
  H   H1287     1.0  0.86004  0.00781  0.54982  1.0000
  H   H1288     1.0  0.76678  0.08536  0.56677  1.0000
  H   H1289     1.0  0.86174  0.12442  0.53275  1.0000
  H   H1290     1.0  0.53717  0.44163  0.70375  1.0000
  C   C722      1.0  0.91987  0.27399  0.68082  1.0000
  C   C723      1.0  0.93423  0.26262  0.69142  1.0000
  C   C724      1.0  0.94907  0.25126  0.68175  1.0000
  C   C725      1.0  0.94955  0.25087  0.66132  1.0000
  C   C726      1.0  0.93509  0.26217  0.65068  1.0000
  C   C727      1.0  0.92035  0.27363  0.66039  1.0000
  H   H1291     1.0  0.93371  0.26260  0.70706  1.0000
  H   H1292     1.0  0.93527  0.26209  0.63498  1.0000
  H   H1293     1.0  0.90931  0.28239  0.65202  1.0000
  C   C728      1.0  0.87723  0.40269  0.75247  1.0000
  C   C729      1.0  0.54380  0.40488  0.70017  1.0000
  H   H1294     1.0  0.81166  0.03862  0.54339  1.0000
  C   C730      1.0  0.72989  0.16818  0.73899  1.0000
  C   C731      1.0  0.74784  0.19145  0.72897  1.0000
  C   C732      1.0  0.77482  0.21001  0.73706  1.0000
  H   H1295     1.0  0.79515  0.06275  0.56047  1.0000
  H   H1296     1.0  0.54418  0.42915  0.72632  1.0000
  C   C733      1.0  0.89054  0.10875  0.54097  1.0000
  H   H1297     1.0  0.85870  0.07031  0.50975  1.0000
  S   S168      1.0  0.76045  0.99767  0.62454  1.0000
  H   H1298     1.0  0.90636  0.20981  0.70652  1.0000
  H   H1299     1.0  0.81281  0.32289  0.70905  1.0000
  H   H1300     1.0  0.85834  0.03045  0.56852  1.0000
  H   H1301     1.0  0.95733  0.29666  0.74843  1.0000
  H   H1302     1.0  0.83915  0.06226  0.56006  1.0000
  H   H1303     1.0  0.75093  0.08910  0.74465  1.0000
  H   H1304     1.0  0.87243  0.05378  0.53719  1.0000
  C   C734      1.0  0.54952  0.43261  0.71098  1.0000
  H   H1305     1.0  0.73065  0.30545  0.74274  1.0000
  H   H1306     1.0  0.85825  0.11055  0.55588  1.0000
  C   C735      1.0  0.68993  0.99720  0.68778  1.0000
  H   H1307     1.0  0.85658  0.15547  0.68951  1.0000
  H   H1308     1.0  0.90996  0.14640  0.56038  1.0000
  H   H1309     1.0  0.77237  0.33263  0.73348  1.0000
  H   H1310     1.0  0.78844  0.22792  0.72930  1.0000
  H   H1311     1.0  0.51194  0.36122  0.67356  1.0000
  C   C736      1.0  0.68111  0.99791  0.65274  1.0000
  C   C737      1.0  0.80345  0.33556  0.71480  1.0000
  H   H1312     1.0  0.88879  0.46631  0.67843  1.0000
  H   H1313     1.0  0.79357  0.06478  0.52413  1.0000
  C   C738      1.0  0.79056  0.30711  0.74483  1.0000
  H   H1314     1.0  0.58325  0.47429  0.71838  1.0000
  C   C739      1.0  0.49350  0.34266  0.72811  1.0000
  H   H1315     1.0  0.58661  0.45880  0.69595  1.0000
  H   H1316     1.0  0.50283  0.32928  0.72392  1.0000
  C   C740      1.0  0.83386  0.05521  0.54440  1.0000
  H   H1317     1.0  0.80214  0.29683  0.73869  1.0000
  H   H1318     1.0  0.96229  0.22310  0.72172  1.0000
  Fe  Fe83      1.0  0.60789  0.05915  0.74576  1.0000
  C   C741      1.0  0.97927  0.30189  0.74660  1.0000
  C   C742      1.0  0.90545  0.42265  0.75358  1.0000
  H   H1319     1.0  0.49287  0.33726  0.69075  1.0000
  H   H1320     1.0  0.55527  0.36388  0.68501  1.0000
  H   H1321     1.0  0.91334  0.15294  0.53478  1.0000
  H   H1322     1.0  0.84425  0.43492  0.69207  1.0000
  N   N40       1.0  0.51538  0.38029  0.70216  1.0000
  C   C743      1.0  0.52837  0.31963  0.68336  1.0000
  H   H1323     1.0  0.52544  0.10633  0.66158  1.0000
  Fe  Fe84      1.0  0.97027  0.21813  0.57341  1.0000
  H   H1324     1.0  0.65310  0.01420  0.64475  1.0000
  H   H1325     1.0  0.77782  0.10534  0.54543  1.0000
  H   H1326     1.0  0.64613  0.02444  0.67879  1.0000
  H   H1327     1.0  0.53943  0.08589  0.67327  1.0000
  C   C744      1.0  0.96150  0.21148  0.73486  1.0000
  N   N41       1.0  0.83720  0.07937  0.53229  1.0000
  C   C745      1.0  0.50487  0.03458  0.74116  1.0000
  C   C746      1.0  0.74715  0.06939  0.73685  1.0000
  S   S169      1.0  0.89059  0.26457  0.74795  1.0000
  C   C747      1.0  0.91319  0.13873  0.54617  1.0000
  H   H1328     1.0  0.53566  0.48830  0.73133  1.0000
  C   C748      1.0  0.77389  0.08543  0.55193  1.0000
  H   H1329     1.0  0.75703  0.06762  0.54302  1.0000
  H   H1330     1.0  0.50026  0.01432  0.73489  1.0000
  H   H1331     1.0  0.83550  0.39742  0.75105  1.0000
  C   C749      1.0  0.84012  0.07322  0.51129  1.0000
  H   H1332     1.0  0.87092  0.19633  0.71276  1.0000
  H   H1333     1.0  0.80642  0.32598  0.75345  1.0000
  H   H1334     1.0  0.51065  0.30353  0.69076  1.0000
  H   H1335     1.0  0.69978  0.99183  0.69977  1.0000
  H   H1336     1.0  0.54734  0.40916  0.68452  1.0000
  H   H1337     1.0  0.54296  0.34946  0.70790  1.0000
  C   C750      1.0  0.77999  0.31845  0.72775  1.0000
  H   H1338     1.0  0.50255  0.13039  0.73140  1.0000
  S   S170      1.0  0.68697  0.07694  0.75109  1.0000
  C   C751      1.0  0.49405  0.38885  0.69492  1.0000
  H   H1339     1.0  0.49872  0.39725  0.68017  1.0000
  H   H1340     1.0  0.84100  0.02708  0.52493  1.0000
  N   N42       1.0  0.88921  0.15009  0.66040  1.0000
  C   C752      1.0  0.86921  0.12085  0.66559  1.0000
  C   C753      1.0  0.89840  0.16901  0.67867  1.0000
  C   C754      1.0  0.87471  0.15937  0.64536  1.0000
  C   C755      1.0  0.91473  0.15116  0.65208  1.0000
  C   C756      1.0  0.92874  0.13643  0.66367  1.0000
  C   C757      1.0  0.85828  0.09832  0.64856  1.0000
  C   C758      1.0  0.89150  0.18987  0.63940  1.0000
  C   C759      1.0  0.87595  0.17492  0.68748  1.0000
  H   H1341     1.0  0.76201  0.06273  0.74327  1.0000
  C   C760      1.0  0.84202  0.06898  0.65584  1.0000
  C   C761      1.0  0.87492  0.19685  0.62399  1.0000
  H   H1342     1.0  0.85031  0.12016  0.67132  1.0000
  H   H1343     1.0  0.87856  0.11400  0.67765  1.0000
  H   H1344     1.0  0.90627  0.16014  0.69029  1.0000
  H   H1345     1.0  0.91647  0.18959  0.67613  1.0000
  H   H1346     1.0  0.85439  0.15628  0.65024  1.0000
  H   H1347     1.0  0.86953  0.14617  0.63168  1.0000
  H   H1348     1.0  0.91004  0.14222  0.63680  1.0000
  H   H1349     1.0  0.93099  0.17322  0.65099  1.0000
  H   H1350     1.0  0.91524  0.11346  0.66263  1.0000
  C   C762      1.0  0.85738  0.41242  0.75188  1.0000
  H   H1351     1.0  0.84379  0.10164  0.63842  1.0000
  H   H1352     1.0  0.87537  0.09883  0.64030  1.0000
  H   H1353     1.0  0.91105  0.19329  0.63314  1.0000
  H   H1354     1.0  0.89679  0.20482  0.65204  1.0000
  H   H1355     1.0  0.87052  0.18804  0.67793  1.0000
  Fe  Fe85      1.0  0.97383  0.22393  0.61885  1.0000
  C   C763      1.0  0.86122  0.10650  0.54054  1.0000
  H   H1356     1.0  0.95341  0.13564  0.64001  1.0000
  H   H1357     1.0  0.88948  0.17702  0.71814  1.0000
  H   H1358     1.0  0.82414  0.06713  0.66382  1.0000
  H   H1359     1.0  0.83377  0.05353  0.64320  1.0000
  H   H1360     1.0  0.85577  0.06391  0.66550  1.0000
  H   H1361     1.0  0.86990  0.18298  0.61066  1.0000
  H   H1362     1.0  0.85538  0.19462  0.62970  1.0000
  H   H1363     1.0  0.88755  0.21879  0.62000  1.0000
  N   N43       1.0  0.73703  0.09397  0.68559  1.0000
  C   C764      1.0  0.73049  0.08258  0.70553  1.0000
  C   C765      1.0  0.71196  0.09519  0.67633  1.0000
  C   C766      1.0  0.74160  0.07341  0.67318  1.0000
  C   C767      1.0  0.76278  0.12220  0.68602  1.0000
  C   C768      1.0  0.76985  0.14165  0.70465  1.0000
  C   C769      1.0  0.75115  0.07363  0.71517  1.0000
  C   C770      1.0  0.74437  0.07898  0.65119  1.0000
  C   C771      1.0  0.70073  0.11201  0.68781  1.0000
  C   C772      1.0  0.67409  0.10943  0.67750  1.0000
  C   C773      1.0  0.79410  0.17056  0.70192  1.0000
  H   H1364     1.0  0.75708  0.01407  0.52988  1.0000
  C   C774      1.0  0.75451  0.06062  0.64094  1.0000
  H   H1365     1.0  0.70956  0.06400  0.70477  1.0000
  H   H1366     1.0  0.72874  0.09758  0.71581  1.0000
  H   H1367     1.0  0.71646  0.10452  0.66190  1.0000
  H   H1368     1.0  0.69441  0.07361  0.67351  1.0000
  H   H1369     1.0  0.72419  0.05190  0.67422  1.0000
  H   H1370     1.0  0.76076  0.07267  0.67864  1.0000
  H   H1371     1.0  0.78166  0.11974  0.68418  1.0000
  H   H1372     1.0  0.76153  0.13402  0.67334  1.0000
  H   H1373     1.0  0.77617  0.13296  0.71720  1.0000
  H   H1374     1.0  0.75195  0.14436  0.70876  1.0000
  H   H1375     1.0  0.74751  0.05340  0.70826  1.0000
  H   H1376     1.0  0.77304  0.08935  0.71344  1.0000
  H   H1377     1.0  0.75920  0.10112  0.64898  1.0000
  H   H1378     1.0  0.72376  0.07390  0.64392  1.0000
  H   H1379     1.0  0.69546  0.10421  0.70253  1.0000
  H   H1380     1.0  0.71611  0.13448  0.68892  1.0000
  H   H1381     1.0  0.66651  0.12171  0.68608  1.0000
  H   H1382     1.0  0.67804  0.11764  0.66274  1.0000
  H   H1383     1.0  0.65755  0.08729  0.67631  1.0000
  H   H1384     1.0  0.78802  0.18143  0.69072  1.0000
  H   H1385     1.0  0.79997  0.18332  0.71585  1.0000
  H   H1386     1.0  0.81260  0.16897  0.69754  1.0000
  H   H1387     1.0  0.81381  0.10177  0.52633  1.0000
  H   H1388     1.0  0.96849  0.26503  0.72873  1.0000
  H   H1389     1.0  0.93953  0.19985  0.73857  1.0000
  H   H1390     1.0  0.75473  0.06386  0.62507  1.0000
  H   H1391     1.0  0.77594  0.06595  0.64660  1.0000
  H   H1392     1.0  0.74035  0.03822  0.64299  1.0000
  H   H1393     1.0  0.75954  0.25360  0.73661  1.0000
  C   C775      1.0  0.51282  0.35639  0.68915  1.0000
  H   H1394     1.0  0.96020  0.24263  0.69011  1.0000
  H   H1395     1.0  0.49233  0.12687  0.69533  1.0000
  H   H1396     1.0  0.49688  0.15855  0.72289  1.0000
  H   H1397     1.0  0.81994  0.35433  0.72310  1.0000
  H   H1398     1.0  0.54620  0.31520  0.68523  1.0000
  C   C776      1.0  0.88221  0.47423  0.69101  1.0000
  C   C777      1.0  0.85021  0.03949  0.53891  1.0000
  C   C778      1.0  0.88640  0.19045  0.70744  1.0000
  C   C779      1.0  0.48792  0.06670  0.75217  1.0000
  H   H1399     1.0  0.49540  0.05762  0.68801  1.0000
  C   C780      1.0  0.86227  0.44938  0.70203  1.0000
  H   H1400     1.0  0.48725  0.45023  0.72363  1.0000
  C   C781      1.0  0.48853  0.42388  0.74613  1.0000
  C   C782      1.0  0.97080  0.22545  0.52230  1.0000
  H   H1401     1.0  0.82666  0.00352  0.55602  1.0000
  H   H1402     1.0  0.73585  0.26686  0.73480  1.0000
  H   H1403     1.0  0.79517  0.34263  0.70230  1.0000
  H   H1404     1.0  0.87288  0.43774  0.70794  1.0000
  H   H1405     1.0  0.59356  0.44744  0.71921  1.0000
  C   C783      1.0  0.52743  0.47004  0.73989  1.0000
  C   C784      1.0  0.49986  0.44826  0.73551  1.0000
  H   H1406     1.0  0.51132  0.06955  0.65466  1.0000
  C   C785      1.0  0.51250  0.37349  0.72338  1.0000
  C   C786      1.0  0.66383  0.00983  0.65673  1.0000
  H   H1407     1.0  0.56043  0.40010  0.70588  1.0000
  C   C787      1.0  0.80040  0.08252  0.55335  1.0000
  H   H1408     1.0  0.76328  0.30142  0.71833  1.0000
  H   H1409     1.0  0.53318  0.37941  0.73100  1.0000
  C   C788      1.0  0.86547  0.44136  0.75253  1.0000
  C   C789      1.0  0.95643  0.14233  0.65570  1.0000
  H   H1410     1.0  0.89251  0.09556  0.55238  1.0000
  H   H1411     1.0  0.50487  0.38647  0.73103  1.0000
  C   C790      1.0  0.98180  0.27508  0.74226  1.0000
  H   H1412     1.0  0.89493  0.10243  0.52674  1.0000
  H   H1413     1.0  0.68899  0.22752  0.74073  1.0000
  S   S171      1.0  0.96769  0.23506  0.65008  1.0000
  C   C791      1.0  0.74833  0.26181  0.74559  1.0000
  H   H1414     1.0  0.84982  0.44820  0.75224  1.0000
  H   H1415     1.0  0.72566  0.05286  0.73897  1.0000
  H   H1416     1.0  0.70730  0.21013  0.73113  1.0000
  H   H1417     1.0  0.92457  0.45838  0.68941  1.0000
  H   H1418     1.0  0.93543  0.46658  0.75545  1.0000
  H   H1419     1.0  0.96544  0.13065  0.66369  1.0000
  C   C792      1.0  0.70177  0.21720  0.74467  1.0000
  C   C793      1.0  0.89369  0.46131  0.75384  1.0000
  S   S172      1.0  0.86541  0.36558  0.75200  1.0000
  H   H1420     1.0  0.97607  0.31111  0.71616  1.0000
  C   C794      1.0  0.78396  0.20545  0.75530  1.0000
  H   H1421     1.0  0.96345  0.44870  0.68545  1.0000
  H   H1422     1.0  0.95768  0.46421  0.66403  1.0000
  C   C795      1.0  0.94588  0.47636  0.69095  1.0000
  C   C796      1.0  0.96457  0.46813  0.67978  1.0000
  S   S173      1.0  0.62281  0.02869  0.75600  1.0000
  H   H1423     1.0  0.87031  0.48472  0.68530  1.0000
  C   C797      1.0  0.97660  0.29843  0.51261  1.0000
  H   H1424     1.0  0.68909  0.19850  0.75285  1.0000
  C   C798      1.0  0.53810  0.08014  0.75483  1.0000
  H   H1425     1.0  0.97144  0.16496  0.65758  1.0000
  H   H1426     1.0  0.95302  0.47911  0.70654  1.0000
  C   C799      1.0  0.48980  0.34027  0.74993  1.0000
  H   H1427     1.0  0.91370  0.48295  0.71449  1.0000
  H   H1428     1.0  0.96394  0.30197  0.52333  1.0000
  C   C800      1.0  0.98033  0.23147  0.75214  1.0000
  H   H1429     1.0  0.97130  0.27606  0.51247  1.0000
  C   C801      1.0  0.48678  0.13570  0.72473  1.0000
  Fe  Fe86      1.0  0.96262  0.16962  0.90212  1.0000
  S   S174      1.0  0.94574  0.19873  0.90943  1.0000
  S   S175      1.0  0.93758  0.12289  0.90452  1.0000
  H   H1430     1.0  0.67589  0.01600  0.79582  1.0000
  H   H1431     1.0  0.60498  0.00718  0.79666  1.0000
  Fe  Fe87      1.0  0.96513  0.22052  0.88241  1.0000
  S   S176      1.0  0.93487  0.22743  0.86145  1.0000
  H   H1432     1.0  0.76532  0.00338  0.84206  1.0000
  C   C802      1.0  0.78628  0.04511  0.83108  1.0000
  Fe  Fe88      1.0  0.77825  0.03024  0.91364  1.0000
  S   S177      1.0  0.80966  0.07603  0.91600  1.0000
  S   S178      1.0  0.73379  0.02210  0.91184  1.0000
  H   H1433     1.0  0.76043  0.10236  0.78625  1.0000
  S   S179      1.0  0.87526  0.30443  0.77657  1.0000
  S   S180      1.0  0.94789  0.30646  0.79050  1.0000
  Fe  Fe89      1.0  0.65656  0.06461  0.77431  1.0000
  S   S181      1.0  0.66854  0.06465  0.80685  1.0000
  H   H1434     1.0  0.82242  0.27408  0.79791  1.0000
  H   H1435     1.0  0.98356  0.28316  0.78315  1.0000
  H   H1436     1.0  0.76319  0.06857  0.88273  1.0000
  C   C803      1.0  0.56087  0.01718  0.82707  1.0000
  H   H1437     1.0  0.72567  0.14554  0.76488  1.0000
  H   H1438     1.0  0.83647  0.05782  0.98374  1.0000
  H   H1439     1.0  0.92005  0.12769  0.94805  1.0000
  H   H1440     1.0  0.81932  0.13977  0.86743  1.0000
  H   H1441     1.0  0.85914  0.15621  0.83449  1.0000
  C   C804      1.0  0.69632  0.00990  0.84271  1.0000
  H   H1442     1.0  0.90411  0.10804  0.96874  1.0000
  C   C805      1.0  0.96627  0.19529  0.00010  1.0000
  H   H1443     1.0  0.75426  0.04438  0.84855  1.0000
  H   H1444     1.0  0.98384  0.27353  0.84570  1.0000
  H   H1445     1.0  0.78766  0.05829  0.86105  1.0000
  H   H1446     1.0  0.72946  0.09360  0.79900  1.0000
  C   C806      1.0  0.72023  0.32018  0.76851  1.0000
  H   H1447     1.0  0.80756  0.05969  0.82708  1.0000
  H   H1448     1.0  0.81207  0.14799  0.84357  1.0000
  C   C807      1.0  0.67934  0.04320  0.82014  1.0000
  C   C808      1.0  0.68624  0.04894  0.84032  1.0000
  C   C809      1.0  0.69473  0.03248  0.85153  1.0000
  H   H1449     1.0  0.68490  0.06619  0.84736  1.0000
  H   H1450     1.0  0.69975  0.03706  0.86703  1.0000
  H   H1451     1.0  0.77389  0.12827  0.89304  1.0000
  H   H1452     1.0  0.89117  0.19259  0.78686  1.0000
  H   H1453     1.0  0.77869  0.08188  0.81216  1.0000
  C   C810      1.0  0.90121  0.10862  0.90504  1.0000
  C   C811      1.0  0.88802  0.12478  0.90114  1.0000
  C   C812      1.0  0.85952  0.11400  0.90365  1.0000
  C   C813      1.0  0.84397  0.08690  0.90987  1.0000
  C   C814      1.0  0.85669  0.07005  0.91262  1.0000
  C   C815      1.0  0.88532  0.08096  0.91026  1.0000
  H   H1454     1.0  0.89986  0.14570  0.89640  1.0000
  H   H1455     1.0  0.84959  0.12684  0.90103  1.0000
  H   H1456     1.0  0.84478  0.04908  0.91737  1.0000
  H   H1457     1.0  0.89538  0.06827  0.91310  1.0000
  C   C816      1.0  0.93931  0.24931  0.84151  1.0000
  C   C817      1.0  0.96540  0.27033  0.83701  1.0000
  C   C818      1.0  0.96758  0.28773  0.82153  1.0000
  C   C819      1.0  0.94385  0.28417  0.81012  1.0000
  C   C820      1.0  0.91780  0.26297  0.81448  1.0000
  C   C821      1.0  0.91558  0.24576  0.83008  1.0000
  H   H1458     1.0  0.76752  0.10087  0.90946  1.0000
  H   H1459     1.0  0.89929  0.26006  0.80603  1.0000
  H   H1460     1.0  0.89526  0.22970  0.83344  1.0000
  C   C822      1.0  0.91322  0.23586  0.00183  1.0000
  H   H1461     1.0  0.63221  0.11884  0.82791  1.0000
  H   H1462     1.0  0.63901  0.08979  0.83116  1.0000
  H   H1463     1.0  0.73662  0.34218  0.76766  1.0000
  C   C823      1.0  0.59441  0.05166  0.80510  1.0000
  H   H1464     1.0  0.93608  0.24612  0.00070  1.0000
  H   H1465     1.0  0.88927  0.19814  0.76119  1.0000
  C   C824      1.0  0.81670  0.29012  0.80297  1.0000
  H   H1466     1.0  0.79205  0.00875  0.82587  1.0000
  H   H1467     1.0  0.73839  0.22510  0.76260  1.0000
  C   C825      1.0  0.59901  0.07911  0.81584  1.0000
  C   C826      1.0  0.93097  0.22024  0.77580  1.0000
  C   C827      1.0  0.97366  0.20544  0.98148  1.0000
  S   S182      1.0  0.81693  0.22873  0.76678  1.0000
  C   C828      1.0  0.80782  0.30194  0.78567  1.0000
  H   H1468     1.0  0.54564  0.44161  0.77759  1.0000
  H   H1469     1.0  0.90257  0.18719  0.98586  1.0000
  H   H1470     1.0  0.54976  0.04547  0.78546  1.0000
  H   H1471     1.0  0.76909  0.26379  0.78261  1.0000
  H   H1472     1.0  0.74971  0.29363  0.78287  1.0000
  H   H1473     1.0  0.80177  0.02361  0.85046  1.0000
  H   H1474     1.0  0.83512  0.30717  0.81127  1.0000
  C   C829      1.0  0.75151  0.10949  0.79786  1.0000
  H   H1475     1.0  0.50893  0.99812  0.80970  1.0000
  H   H1476     1.0  0.59948  0.04422  0.84505  1.0000
  C   C830      1.0  0.89942  0.20832  0.77565  1.0000
  C   C831      1.0  0.62982  0.09919  0.82090  1.0000
  H   H1477     1.0  0.79290  0.26621  0.76524  1.0000
  H   H1478     1.0  0.59823  0.05628  0.78955  1.0000
  N   N44       1.0  0.78149  0.08795  0.84361  1.0000
  H   H1479     1.0  0.52049  0.10647  0.76399  1.0000
  H   H1480     1.0  0.71698  0.31530  0.78404  1.0000
  C   C832      1.0  0.94336  0.24332  0.76095  1.0000
  H   H1481     1.0  0.77065  0.32456  0.77125  1.0000
  H   H1482     1.0  0.80044  0.04938  0.98585  1.0000
  H   H1483     1.0  0.74606  0.07027  0.82251  1.0000
  Fe  Fe90      1.0  0.91357  0.30289  0.76809  1.0000
  C   C833      1.0  0.76616  0.18197  0.76515  1.0000
  C   C834      1.0  0.77352  0.09119  0.88001  1.0000
  S   S183      1.0  0.77246  0.00197  0.88773  1.0000
  C   C835      1.0  0.76831  0.11439  0.81737  1.0000
  H   H1484     1.0  0.77076  0.11736  0.85774  1.0000
  N   N45       1.0  0.88776  0.18435  0.95561  1.0000
  C   C836      1.0  0.89884  0.16479  0.94976  1.0000
  C   C837      1.0  0.89260  0.20476  0.93987  1.0000
  H   H1485     1.0  0.90507  0.24162  0.97212  1.0000
  C   C838      1.0  0.85740  0.16916  0.95986  1.0000
  C   C839      1.0  0.83846  0.14117  0.94803  1.0000
  C   C840      1.0  0.89953  0.14532  0.96569  1.0000
  C   C841      1.0  0.89807  0.22388  0.98183  1.0000
  C   C842      1.0  0.87767  0.19250  0.91953  1.0000
  C   C843      1.0  0.88640  0.21521  0.90475  1.0000
  C   C844      1.0  0.80781  0.13085  0.95145  1.0000
  C   C845      1.0  0.90173  0.12047  0.95695  1.0000
  S   S184      1.0  0.97985  0.18954  0.87432  1.0000
  H   H1486     1.0  0.92058  0.17690  0.94542  1.0000
  H   H1487     1.0  0.88697  0.15158  0.93663  1.0000
  H   H1488     1.0  0.88557  0.22011  0.94410  1.0000
  H   H1489     1.0  0.91537  0.21718  0.93804  1.0000
  C   C846      1.0  0.75543  0.30206  0.76823  1.0000
  H   H1490     1.0  0.80988  0.02197  0.98377  1.0000
  H   H1491     1.0  0.85529  0.16398  0.97545  1.0000
  H   H1492     1.0  0.84787  0.18315  0.95784  1.0000
  H   H1493     1.0  0.84364  0.12460  0.95245  1.0000
  H   H1494     1.0  0.84064  0.14292  0.93222  1.0000
  H   H1495     1.0  0.95601  0.17303  0.00189  1.0000
  H   H1496     1.0  0.88086  0.13732  0.97419  1.0000
  H   H1497     1.0  0.93526  0.20265  0.77260  1.0000
  H   H1498     1.0  0.91798  0.15704  0.97602  1.0000
  H   H1499     1.0  0.88257  0.17631  0.91379  1.0000
  H   H1500     1.0  0.85485  0.18362  0.92021  1.0000
  H   H1501     1.0  0.90923  0.22541  0.90339  1.0000
  H   H1502     1.0  0.87594  0.20580  0.89020  1.0000
  H   H1503     1.0  0.88047  0.23134  0.90912  1.0000
  H   H1504     1.0  0.79489  0.11035  0.94345  1.0000
  H   H1505     1.0  0.80436  0.12809  0.96718  1.0000
  H   H1506     1.0  0.80087  0.14579  0.94603  1.0000
  H   H1507     1.0  0.80158  0.31715  0.79150  1.0000
  C   C847      1.0  0.68113  0.02077  0.81129  1.0000
  H   H1508     1.0  0.86111  0.17789  0.85525  1.0000
  C   C848      1.0  0.78393  0.27829  0.77258  1.0000
  H   H1509     1.0  0.49873  0.03933  0.78499  1.0000
  H   H1510     1.0  0.87543  0.21536  0.98335  1.0000
  C   C849      1.0  0.82288  0.13832  0.85183  1.0000
  C   C850      1.0  0.77674  0.05869  0.84702  1.0000
  H   H1511     1.0  0.56544  0.01070  0.77746  1.0000
  C   C851      1.0  0.49379  0.02431  0.79665  1.0000
  H   H1512     1.0  0.82099  0.10746  0.83042  1.0000
  C   C852      1.0  0.58666  0.02178  0.84054  1.0000
  C   C853      1.0  0.68946  0.00421  0.82253  1.0000
  C   C854      1.0  0.78633  0.01860  0.83786  1.0000
  C   C855      1.0  0.90489  0.20112  0.97374  1.0000
  H   H1513     1.0  0.59042  0.08987  0.80633  1.0000
  H   H1514     1.0  0.74374  0.08275  0.85572  1.0000
  H   H1515     1.0  0.88258  0.10679  0.94765  1.0000
  H   H1516     1.0  0.96914  0.19106  0.96905  1.0000
  H   H1517     1.0  0.82372  0.09972  0.85496  1.0000
  H   H1518     1.0  0.58823  0.07496  0.82953  1.0000
  C   C856      1.0  0.53297  0.44369  0.76582  1.0000
  H   H1519     1.0  0.75896  0.12239  0.82806  1.0000
  C   C857      1.0  0.81674  0.04337  0.99007  1.0000
  H   H1520     1.0  0.79961  0.28053  0.81287  1.0000
  S   S185      1.0  0.64046  0.09455  0.76534  1.0000
  C   C858      1.0  0.76311  0.10531  0.89439  1.0000
  H   H1521     1.0  0.77310  0.17837  0.77928  1.0000
  H   H1522     1.0  0.54540  0.05218  0.80999  1.0000
  H   H1523     1.0  0.75188  0.12922  0.79361  1.0000
  H   H1524     1.0  0.78988  0.13058  0.81531  1.0000
  H   H1525     1.0  0.92742  0.21172  0.97105  1.0000
  C   C859      1.0  0.76667  0.09546  0.85865  1.0000
  H   H1526     1.0  0.74028  0.09706  0.89178  1.0000
  N   N46       1.0  0.56608  0.02691  0.80655  1.0000
  H   H1527     1.0  0.61116  0.04692  0.81029  1.0000
  H   H1528     1.0  0.79624  0.09963  0.88309  1.0000
  C   C860      1.0  0.85416  0.15601  0.84994  1.0000
  H   H1529     1.0  0.64149  0.10436  0.80759  1.0000
  C   C861      1.0  0.50539  0.42193  0.76145  1.0000
  C   C862      1.0  0.76816  0.08719  0.82365  1.0000
  C   C863      1.0  0.81257  0.10743  0.84480  1.0000
  H   H1530     1.0  0.86605  0.14781  0.85880  1.0000
  H   H1531     1.0  0.82631  0.31338  0.77722  1.0000
  H   H1532     1.0  0.77170  0.03896  0.81786  1.0000
  H   H1533     1.0  0.93978  0.22896  0.79080  1.0000
  H   H1534     1.0  0.55929  0.09555  0.75919  1.0000
  H   H1535     1.0  0.89396  0.22510  0.77911  1.0000
  H   H1536     1.0  0.72142  0.24469  0.77009  1.0000
  H   H1537     1.0  0.51016  0.34734  0.75826  1.0000
  H   H1538     1.0  0.49725  0.40355  0.76988  1.0000
  C   C864      1.0  0.54473  0.03571  0.79977  1.0000
  H   H1539     1.0  0.56482  0.01249  0.86723  1.0000
  H   H1540     1.0  0.93933  0.26032  0.76638  1.0000
  H   H1541     1.0  0.60043  0.01519  0.83338  1.0000
  H   H1542     1.0  0.49491  0.03517  0.81078  1.0000
  C   C865      1.0  0.57788  0.00582  0.85906  1.0000
  C   C866      1.0  0.56297  0.00358  0.79265  1.0000
  H   H1543     1.0  0.59668  0.01011  0.86857  1.0000
  C   C867      1.0  0.51403  0.01225  0.79747  1.0000
  H   H1544     1.0  0.55091  0.02780  0.83501  1.0000
  C   C868      1.0  0.73931  0.16331  0.75700  1.0000
  C   C869      1.0  0.72793  0.23719  0.75725  1.0000
  N   N47       1.0  0.76898  0.28747  0.75770  1.0000
  S   S186      1.0  0.77179  0.99787  0.93536  1.0000
  H   H1545     1.0  0.54542  0.99459  0.82666  1.0000
  H   H1546     1.0  0.97950  0.21860  0.76469  1.0000
  H   H1547     1.0  0.51037  0.99974  0.78361  1.0000
  H   H1548     1.0  0.71089  0.27887  0.75869  1.0000
  H   H1549     1.0  0.70052  0.31796  0.76138  1.0000
  H   H1550     1.0  0.57416  0.48778  0.81148  1.0000
  N   N48       1.0  0.97392  0.25454  0.75814  1.0000
  C   C870      1.0  0.72846  0.30030  0.75819  1.0000
  Fe  Fe91      1.0  0.72745  0.99212  0.88676  1.0000
  C   C871      1.0  0.51590  0.08630  0.75755  1.0000
  H   H1551     1.0  0.60869  0.73460  0.24294  1.0000
  C   C872      1.0  0.92875  0.81538  0.08895  1.0000
  H   H1552     1.0  0.89184  0.82819  0.10612  1.0000
  C   C873      1.0  0.56242  0.68775  0.18365  1.0000
  H   H1553     1.0  0.85117  0.90370  0.07198  1.0000
  H   H1554     1.0  0.71457  0.87882  0.12813  1.0000
  Fe  Fe92      1.0  0.59219  0.91341  0.22634  1.0000
  S   S187      1.0  0.61778  0.94588  0.20488  1.0000
  S   S188      1.0  0.54778  0.87986  0.21991  1.0000
  S   S189      1.0  0.98212  0.75606  0.13254  1.0000
  H   H1555     1.0  0.88378  0.90504  0.06680  1.0000
  S   S190      1.0  0.69914  0.96596  0.04897  1.0000
  H   H1556     1.0  0.57338  0.96869  0.23178  1.0000
  C   C874      1.0  0.60698  0.77844  0.19312  1.0000
  H   H1557     1.0  0.92051  0.84765  0.07844  1.0000
  Fe  Fe93      1.0  0.59669  0.66393  0.23558  1.0000
  S   S191      1.0  0.63205  0.68892  0.21566  1.0000
  S   S192      1.0  0.55314  0.65895  0.23280  1.0000
  Fe  Fe94      1.0  0.70133  0.72125  0.11227  1.0000
  S   S193      1.0  0.74483  0.74696  0.12575  1.0000
  S   S194      1.0  0.66594  0.68738  0.12800  1.0000
  Fe  Fe95      1.0  0.71668  0.75012  0.07299  1.0000
  S   S195      1.0  0.76058  0.77862  0.08438  1.0000
  S   S196      1.0  0.70229  0.75500  0.04235  1.0000
  Fe  Fe96      1.0  0.75943  0.74038  0.09702  1.0000
  S   S197      1.0  0.79132  0.72698  0.08861  1.0000
  Fe  Fe97      1.0  0.74205  0.78267  0.11182  1.0000
  S   S198      1.0  0.75266  0.82139  0.13058  1.0000
  S   S199      1.0  0.71592  0.71151  0.08436  1.0000
  S   S200      1.0  0.69794  0.75727  0.09956  1.0000
  Fe  Fe98      1.0  0.76960  0.95767  0.09581  1.0000
  S   S201      1.0  0.72304  0.93627  0.09314  1.0000
  S   S202      1.0  0.79278  0.93424  0.08792  1.0000
  C   C875      1.0  0.67774  0.96481  0.01237  1.0000
  H   H1558     1.0  0.68450  0.80542  0.14756  1.0000
  H   H1559     1.0  0.68409  0.79320  0.12314  1.0000
  H   H1560     1.0  0.70734  0.59089  0.16928  1.0000
  H   H1561     1.0  0.68015  0.89171  0.25152  1.0000
  S   S203      1.0  0.97484  0.78646  0.09406  1.0000
  C   C876      1.0  0.53134  0.96436  0.22563  1.0000
  Fe  Fe99      1.0  0.94651  0.75219  0.11226  1.0000
  S   S204      1.0  0.91110  0.75508  0.12667  1.0000
  S   S205      1.0  0.94594  0.71755  0.09318  1.0000
  C   C877      1.0  0.96799  0.74639  0.02033  1.0000
  C   C878      1.0  0.71927  0.75239  0.02176  1.0000
  C   C879      1.0  0.85119  0.80736  0.06307  1.0000
  Fe  Fe100     1.0  0.72619  0.96183  0.12036  1.0000
  C   C880      1.0  0.76615  0.85317  0.11896  1.0000
  C   C881      1.0  0.77327  0.85480  0.09966  1.0000
  C   C882      1.0  0.78242  0.88010  0.09041  1.0000
  C   C883      1.0  0.78347  0.90349  0.10021  1.0000
  C   C884      1.0  0.77680  0.90197  0.11960  1.0000
  C   C885      1.0  0.76887  0.87706  0.12909  1.0000
  H   H1562     1.0  0.77143  0.83658  0.09177  1.0000
  H   H1563     1.0  0.78767  0.88127  0.07542  1.0000
  H   H1564     1.0  0.77796  0.92009  0.12731  1.0000
  H   H1565     1.0  0.76416  0.87611  0.14418  1.0000
  C   C886      1.0  0.82483  0.73589  0.09934  1.0000
  C   C887      1.0  0.83343  0.74736  0.11840  1.0000
  C   C888      1.0  0.85995  0.75319  0.12651  1.0000
  C   C889      1.0  0.87816  0.74775  0.11565  1.0000
  C   C890      1.0  0.86963  0.73657  0.09653  1.0000
  C   C891      1.0  0.84305  0.73058  0.08847  1.0000
  H   H1566     1.0  0.81953  0.75132  0.12698  1.0000
  H   H1567     1.0  0.86642  0.76181  0.14132  1.0000
  H   H1568     1.0  0.88341  0.73222  0.08806  1.0000
  H   H1569     1.0  0.83650  0.72157  0.07375  1.0000
  H   H1570     1.0  0.57656  0.93715  0.17135  1.0000
  Fe  Fe101     1.0  0.97636  0.75241  0.07571  1.0000
  C   C892      1.0  0.63614  0.85300  0.12648  1.0000
  C   C893      1.0  0.87271  0.85361  0.08143  1.0000
  C   C894      1.0  0.64028  0.68827  0.19097  1.0000
  C   C895      1.0  0.66494  0.71041  0.18496  1.0000
  C   C896      1.0  0.67270  0.71091  0.16568  1.0000
  C   C897      1.0  0.65615  0.68888  0.15216  1.0000
  C   C898      1.0  0.63144  0.66681  0.15812  1.0000
  C   C899      1.0  0.62340  0.66657  0.17733  1.0000
  H   H1571     1.0  0.67836  0.72712  0.19540  1.0000
  H   H1572     1.0  0.69178  0.72802  0.16139  1.0000
  H   H1573     1.0  0.61843  0.64964  0.14783  1.0000
  H   H1574     1.0  0.60441  0.64937  0.18166  1.0000
  C   C900      1.0  0.63966  0.94252  0.18780  1.0000
  C   C901      1.0  0.64215  0.91819  0.18560  1.0000
  C   C902      1.0  0.65980  0.91642  0.17200  1.0000
  C   C903      1.0  0.67548  0.93895  0.16049  1.0000
  C   C904      1.0  0.67293  0.96327  0.16267  1.0000
  C   C905      1.0  0.65512  0.96499  0.17622  1.0000
  H   H1575     1.0  0.63037  0.90069  0.19431  1.0000
  H   H1576     1.0  0.70093  0.77997  0.20327  1.0000
  C   C906      1.0  0.68125  0.67103  0.02271  1.0000
  C   C907      1.0  0.70072  0.85816  0.13381  1.0000
  S   S206      1.0  0.77323  0.98111  0.12405  1.0000
  C   C908      1.0  0.65713  0.81306  0.12674  1.0000
  S   S207      1.0  0.58283  0.92788  0.25473  1.0000
  H   H1577     1.0  0.82332  0.82156  0.14392  1.0000
  C   C909      1.0  0.82050  0.79725  0.05547  1.0000
  N   N49       1.0  0.74542  0.66856  0.14200  1.0000
  C   C910      1.0  0.72228  0.66654  0.12799  1.0000
  C   C911      1.0  0.75615  0.69488  0.15493  1.0000
  C   C912      1.0  0.76901  0.67138  0.13007  1.0000
  C   C913      1.0  0.73663  0.64321  0.15406  1.0000
  C   C914      1.0  0.70563  0.62775  0.15901  1.0000
  C   C915      1.0  0.71252  0.64344  0.11139  1.0000
  C   C916      1.0  0.79664  0.67773  0.14174  1.0000
  C   C917      1.0  0.73498  0.69761  0.16771  1.0000
  C   C918      1.0  0.74802  0.72604  0.17885  1.0000
  C   C919      1.0  0.68321  0.63545  0.10277  1.0000
  C   C920      1.0  0.81627  0.67302  0.12897  1.0000
  H   H1578     1.0  0.72883  0.68666  0.12088  1.0000
  H   H1579     1.0  0.70383  0.66350  0.13570  1.0000
  H   H1580     1.0  0.77337  0.69694  0.16533  1.0000
  H   H1581     1.0  0.76536  0.71349  0.14594  1.0000
  H   H1582     1.0  0.77405  0.68826  0.11967  1.0000
  H   H1583     1.0  0.76267  0.65197  0.12087  1.0000
  H   H1584     1.0  0.74048  0.62709  0.14661  1.0000
  H   H1585     1.0  0.74985  0.64892  0.16800  1.0000
  H   H1586     1.0  0.69203  0.61621  0.14586  1.0000
  H   H1587     1.0  0.69816  0.64211  0.16448  1.0000
  H   H1588     1.0  0.72691  0.65114  0.09949  1.0000
  H   H1589     1.0  0.71256  0.62429  0.11654  1.0000
  H   H1590     1.0  0.79282  0.66434  0.15432  1.0000
  H   H1591     1.0  0.80765  0.69996  0.14721  1.0000
  H   H1592     1.0  0.71650  0.69551  0.15888  1.0000
  H   H1593     1.0  0.72838  0.68168  0.17878  1.0000
  H   H1594     1.0  0.76626  0.72904  0.18850  1.0000
  H   H1595     1.0  0.75469  0.74317  0.16864  1.0000
  H   H1596     1.0  0.73243  0.72724  0.18800  1.0000
  H   H1597     1.0  0.68226  0.65400  0.09723  1.0000
  H   H1598     1.0  0.67732  0.61968  0.09050  1.0000
  H   H1599     1.0  0.66786  0.62644  0.11396  1.0000
  H   H1600     1.0  0.81995  0.68527  0.11577  1.0000
  H   H1601     1.0  0.83666  0.67989  0.13723  1.0000
  H   H1602     1.0  0.80743  0.65057  0.12446  1.0000
  H   H1603     1.0  0.56308  0.95023  0.20220  1.0000
  H   H1604     1.0  0.60250  0.71713  0.17563  1.0000
  H   H1605     1.0  0.63364  0.97835  0.24313  1.0000
  S   S208      1.0  0.49651  0.58066  0.23831  1.0000
  C   C921      1.0  0.49821  0.94545  0.19720  1.0000
  H   H1606     1.0  0.71505  0.93162  0.23658  1.0000
  C   C922      1.0  0.58535  0.71793  0.18305  1.0000
  C   C923      1.0  0.72709  0.97979  0.01413  1.0000
  H   H1607     1.0  0.71382  0.84768  0.13581  1.0000
  N   N50       1.0  0.61739  0.76212  0.20547  1.0000
  H   H1608     1.0  0.57054  0.67515  0.19148  1.0000
  H   H1609     1.0  0.74224  0.94764  0.20706  1.0000
  H   H1610     1.0  0.84378  0.85766  0.06008  1.0000
  H   H1611     1.0  0.69726  0.96607  0.21027  1.0000
  H   H1612     1.0  0.98184  0.64308  0.24581  1.0000
  H   H1613     1.0  0.64598  0.81499  0.13916  1.0000
  H   H1614     1.0  0.79365  0.78107  0.02895  1.0000
  H   H1615     1.0  0.49528  0.94317  0.18102  1.0000
  H   H1616     1.0  0.64053  0.80043  0.11515  1.0000
  C   C924      1.0  0.72386  0.94955  0.20133  1.0000
  H   H1617     1.0  0.68122  0.92278  0.22676  1.0000
  H   H1618     1.0  0.72714  0.87271  0.06294  1.0000
  H   H1619     1.0  0.53127  0.92181  0.20716  1.0000
  H   H1620     1.0  0.53806  0.75299  0.21374  1.0000
  H   H1621     1.0  0.81953  0.81430  0.09050  1.0000
  H   H1622     1.0  0.70194  0.82706  0.10437  1.0000
  H   H1623     1.0  0.65785  0.94793  0.23586  1.0000
  C   C925      1.0  0.56111  0.97925  0.23565  1.0000
  H   H1624     1.0  0.49688  0.50036  0.22259  1.0000
  H   H1625     1.0  0.58615  0.81433  0.18147  1.0000
  H   H1626     1.0  0.65849  0.95803  0.01938  1.0000
  H   H1627     1.0  0.67045  0.82037  0.09097  1.0000
  C   C926      1.0  0.84414  0.82288  0.11766  1.0000
  H   H1628     1.0  0.81399  0.81350  0.05735  1.0000
  C   C927      1.0  0.54699  0.73696  0.24006  1.0000
  H   H1629     1.0  0.67441  0.80419  0.21245  1.0000
  H   H1630     1.0  0.52164  0.97728  0.23022  1.0000
  H   H1631     1.0  0.71244  0.81225  0.19120  1.0000
  H   H1632     1.0  0.82001  0.77015  0.03145  1.0000
  H   H1633     1.0  0.95564  0.70489  0.02955  1.0000
  H   H1634     1.0  0.80628  0.79008  0.12841  1.0000
  H   H1635     1.0  0.73974  0.73160  0.03605  1.0000
  H   H1636     1.0  0.51328  0.91219  0.17425  1.0000
  H   H1637     1.0  0.70309  0.67904  0.01883  1.0000
  H   H1638     1.0  0.74616  0.98452  0.02259  1.0000
  H   H1639     1.0  0.67540  0.88002  0.11433  1.0000
  H   H1640     1.0  0.88420  0.86481  0.09539  1.0000
  C   C928      1.0  0.69477  0.79096  0.19220  1.0000
  C   C929      1.0  0.64926  0.76605  0.13849  1.0000
  H   H1641     1.0  0.58383  0.76887  0.19301  1.0000
  C   C930      1.0  0.54038  0.94062  0.19834  1.0000
  Fe  Fe102     1.0  0.53892  0.89213  0.24919  1.0000
  H   H1642     1.0  0.73543  0.89796  0.16237  1.0000
  S   S209      1.0  0.55140  0.80989  0.22289  1.0000
  N   N51       1.0  0.52889  0.96003  0.20374  1.0000
  H   H1643     1.0  0.63663  0.75449  0.12497  1.0000
  H   H1644     1.0  0.66309  0.88209  0.01550  1.0000
  H   H1645     1.0  0.60255  0.77291  0.23103  1.0000
  H   H1646     1.0  0.82908  0.80544  0.02500  1.0000
  H   H1647     1.0  0.70734  0.92868  0.19568  1.0000
  C   C931      1.0  0.54545  0.75767  0.22893  1.0000
  H   H1648     1.0  0.53196  0.98660  0.17985  1.0000
  H   H1649     1.0  0.60806  0.87031  0.13055  1.0000
  H   H1650     1.0  0.63842  0.79411  0.22882  1.0000
  H   H1651     1.0  0.64186  0.85538  0.14229  1.0000
  H   H1652     1.0  0.65110  0.85120  0.09892  1.0000
  H   H1653     1.0  0.57654  0.72949  0.21110  1.0000
  H   H1654     1.0  0.82811  0.78802  0.09648  1.0000
  H   H1655     1.0  0.60797  0.81108  0.21309  1.0000
  C   C932      1.0  0.66068  0.85716  0.11413  1.0000
  C   C933      1.0  0.73599  0.73930  0.02247  1.0000
  H   H1656     1.0  0.54054  0.71637  0.23354  1.0000
  H   H1657     1.0  0.68535  0.87942  0.15286  1.0000
  Fe  Fe103     1.0  0.72788  0.97280  0.07603  1.0000
  H   H1658     1.0  0.91853  0.79227  0.08932  1.0000
  H   H1659     1.0  0.54439  0.68676  0.19101  1.0000
  H   H1660     1.0  0.61859  0.87162  0.10603  1.0000
  C   C934      1.0  0.64361  0.76362  0.19818  1.0000
  H   H1661     1.0  0.86492  0.82044  0.05192  1.0000
  H   H1662     1.0  0.90252  0.81475  0.06459  1.0000
  H   H1663     1.0  0.66491  0.80534  0.18700  1.0000
  H   H1664     1.0  0.61859  0.82433  0.17020  1.0000
  H   H1665     1.0  0.98151  0.70786  0.16146  1.0000
  Fe  Fe104     1.0  0.53956  0.61875  0.24889  1.0000
  H   H1666     1.0  0.61657  0.84657  0.18917  1.0000
  C   C935      1.0  0.70104  0.60647  0.17439  1.0000
  H   H1667     1.0  0.80409  0.82101  0.12175  1.0000
  H   H1668     1.0  0.69065  0.77955  0.17781  1.0000
  S   S210      1.0  0.69849  0.93573  0.14428  1.0000
  H   H1669     1.0  0.66142  0.89747  0.17054  1.0000
  H   H1670     1.0  0.67863  0.59526  0.17722  1.0000
  H   H1671     1.0  0.71315  0.61709  0.18827  1.0000
  C   C936      1.0  0.88325  0.81669  0.09176  1.0000
  C   C937      1.0  0.61749  0.80962  0.19952  1.0000
  H   H1672     1.0  0.67607  0.65319  0.03214  1.0000
  H   H1673     1.0  0.69257  0.87278  0.08482  1.0000
  H   H1674     1.0  0.88868  0.86109  0.07055  1.0000
  H   H1675     1.0  0.54931  0.91074  0.15531  1.0000
  H   H1676     1.0  0.67829  0.84538  0.16068  1.0000
  H   H1677     1.0  0.72868  0.86397  0.17044  1.0000
  H   H1678     1.0  0.55424  0.90314  0.18009  1.0000
  S   S211      1.0  0.97831  0.76378  0.04376  1.0000
  H   H1679     1.0  0.53634  0.94641  0.16679  1.0000
  H   H1680     1.0  0.69483  0.84043  0.06044  1.0000
  H   H1681     1.0  0.63529  0.76686  0.14931  1.0000
  C   C938      1.0  0.67106  0.79547  0.13402  1.0000
  C   C939      1.0  0.55312  0.78428  0.23742  1.0000
  H   H1682     1.0  0.64984  0.74990  0.20644  1.0000
  C   C940      1.0  0.86641  0.89645  0.07655  1.0000
  H   H1683     1.0  0.65339  0.98393  0.17773  1.0000
  C   C941      1.0  0.90876  0.82469  0.07951  1.0000
  H   H1684     1.0  0.85498  0.84602  0.11853  1.0000
  C   C942      1.0  0.62772  0.75478  0.24162  1.0000
  H   H1685     1.0  0.94730  0.82224  0.08035  1.0000
  N   N52       1.0  0.69490  0.95183  0.25180  1.0000
  Fe  Fe105     1.0  0.56153  0.85248  0.23635  1.0000
  H   H1686     1.0  0.65978  0.75437  0.14447  1.0000
  H   H1687     1.0  0.67946  0.68772  0.03114  1.0000
  C   C943      1.0  0.71962  0.87826  0.16816  1.0000
  H   H1688     1.0  0.61841  0.83172  0.12323  1.0000
  H   H1689     1.0  0.68476  0.98080  0.15398  1.0000
  H   H1690     1.0  0.72503  0.84192  0.07363  1.0000
  H   H1691     1.0  0.93582  0.82462  0.10405  1.0000
  H   H1692     1.0  0.63985  0.75507  0.18293  1.0000
  H   H1693     1.0  0.85743  0.81537  0.12546  1.0000
  H   H1694     1.0  0.64472  0.75051  0.23745  1.0000
  C   C944      1.0  0.71340  0.85363  0.07041  1.0000
  C   C945      1.0  0.83700  0.81105  0.09622  1.0000
  C   C946      1.0  0.81779  0.81321  0.12856  1.0000
  H   H1695     1.0  0.48798  0.92378  0.20224  1.0000
  C   C947      1.0  0.55497  0.91961  0.17055  1.0000
  C   C948      1.0  0.68775  0.83605  0.10101  1.0000
  C   C949      1.0  0.67535  0.96329  0.24594  1.0000
  H   H1696     1.0  0.85331  0.78791  0.06286  1.0000
  C   C950      1.0  0.85202  0.86455  0.07538  1.0000
  C   C951      1.0  0.95820  0.71767  0.01724  1.0000
  C   C952      1.0  0.53473  0.92992  0.17662  1.0000
  C   C953      1.0  0.66909  0.79294  0.19799  1.0000
  C   C954      1.0  0.60918  0.82453  0.18405  1.0000
  H   H1697     1.0  0.51957  0.94390  0.23227  1.0000
  H   H1698     1.0  0.97736  0.73173  0.22160  1.0000
  H   H1699     1.0  0.71408  0.88339  0.18242  1.0000
  H   H1700     1.0  0.72390  0.87717  0.09769  1.0000
  C   C955      1.0  0.69363  0.86448  0.15411  1.0000
  H   H1701     1.0  0.87442  0.79411  0.09464  1.0000
  H   H1702     1.0  0.64252  0.89564  0.12510  1.0000
  H   H1703     1.0  0.60251  0.71873  0.21192  1.0000
  H   H1704     1.0  0.57693  0.72919  0.17399  1.0000
  N   N53       1.0  0.67639  0.84124  0.11937  1.0000
  C   C956      1.0  0.62574  0.87392  0.12168  1.0000
  H   H1705     1.0  0.61156  0.77724  0.17767  1.0000
  C   C957      1.0  0.62156  0.77231  0.22659  1.0000
  C   C958      1.0  0.70472  0.86198  0.08914  1.0000
  H   H1706     1.0  0.83452  0.85755  0.08496  1.0000
  C   C959      1.0  0.70087  0.94056  0.23342  1.0000
  N   N54       1.0  0.86064  0.82246  0.08300  1.0000
  H   H1707     1.0  0.80654  0.77894  0.06352  1.0000
  C   C960      1.0  0.70222  0.97088  0.02356  1.0000
  H   H1708     1.0  0.55519  0.67844  0.16859  1.0000
  C   C961      1.0  0.81568  0.78794  0.03389  1.0000
  H   H1709     1.0  0.49246  0.98259  0.20264  1.0000
  H   H1710     1.0  0.87456  0.90471  0.09173  1.0000
  S   S212      1.0  0.60625  0.88526  0.24069  1.0000
  H   H1711     1.0  0.64033  0.82127  0.20244  1.0000
  C   C962      1.0  0.59525  0.73185  0.20394  1.0000
  S   S213      1.0  0.58315  0.62276  0.25003  1.0000
  H   H1712     1.0  0.64763  0.90337  0.00783  1.0000
  H   H1713     1.0  0.73005  0.96361  0.18901  1.0000
  Fe  Fe106     1.0  0.98385  0.72408  0.11261  1.0000
  C   C963      1.0  0.71338  0.96152  0.21724  1.0000
  C   C964      1.0  0.54293  0.98767  0.19420  1.0000
  H   H1714     1.0  0.73121  0.98142  0.22306  1.0000
  H   H1715     1.0  0.63997  0.65199  0.00917  1.0000
  H   H1716     1.0  0.68620  0.98231  0.23754  1.0000
  H   H1717     1.0  0.75113  0.96079  0.25495  1.0000
  H   H1718     1.0  0.57607  0.98617  0.17809  1.0000
  H   H1719     1.0  0.98091  0.72119  0.25627  1.0000
  C   C965      1.0  0.64872  0.98880  0.25587  1.0000
  H   H1720     1.0  0.86852  0.69616  0.46168  1.0000
  S   S214      1.0  0.62242  0.90200  0.29619  1.0000
  S   S215      1.0  0.60734  0.68835  0.26448  1.0000
  Fe  Fe107     1.0  0.59141  0.64783  0.27871  1.0000
  S   S216      1.0  0.61169  0.64391  0.30786  1.0000
  S   S217      1.0  0.54739  0.64124  0.27828  1.0000
  Fe  Fe108     1.0  0.96879  0.76396  0.40014  1.0000
  S   S218      1.0  0.93974  0.78206  0.39247  1.0000
  S   S219      1.0  0.95210  0.71825  0.40356  1.0000
  Fe  Fe109     1.0  0.73716  0.74171  0.39223  1.0000
  S   S220      1.0  0.78370  0.77073  0.39520  1.0000
  S   S221      1.0  0.71637  0.73686  0.36124  1.0000
  Fe  Fe110     1.0  0.73580  0.73743  0.43699  1.0000
  S   S222      1.0  0.78132  0.76595  0.44264  1.0000
  S   S223      1.0  0.70802  0.71909  0.46188  1.0000
  Fe  Fe111     1.0  0.77497  0.79202  0.42024  1.0000
  S   S224      1.0  0.79760  0.83897  0.42592  1.0000
  Fe  Fe112     1.0  0.78626  0.74228  0.41736  1.0000
  S   S225      1.0  0.81814  0.72683  0.42231  1.0000
  S   S226      1.0  0.72870  0.76518  0.41616  1.0000
  S   S227      1.0  0.74045  0.71145  0.41285  1.0000
  Fe  Fe113     1.0  0.74657  0.94825  0.40689  1.0000
  S   S228      1.0  0.71488  0.96300  0.41038  1.0000
  S   S229      1.0  0.72749  0.90150  0.40810  1.0000
  H   H1721     1.0  0.87254  0.79921  0.47402  1.0000
  C   C966      1.0  0.86314  0.66967  0.39678  1.0000
  H   H1722     1.0  0.51513  0.67673  0.35763  1.0000
  H   H1723     1.0  0.75957  0.88098  0.48459  1.0000
  C   C967      1.0  0.77814  0.85693  0.42314  1.0000
  C   C968      1.0  0.74911  0.84262  0.42231  1.0000
  C   C969      1.0  0.73384  0.85684  0.41839  1.0000
  C   C970      1.0  0.74753  0.88552  0.41550  1.0000
  C   C971      1.0  0.77658  0.90027  0.41755  1.0000
  C   C972      1.0  0.79188  0.88591  0.42125  1.0000
  H   H1724     1.0  0.73838  0.82050  0.42436  1.0000
  H   H1725     1.0  0.71134  0.84548  0.41719  1.0000
  H   H1726     1.0  0.78724  0.92248  0.41552  1.0000
  H   H1727     1.0  0.81439  0.89713  0.42211  1.0000
  C   C973      1.0  0.90742  0.76977  0.40309  1.0000
  C   C974      1.0  0.88801  0.77796  0.39577  1.0000
  C   C975      1.0  0.86096  0.76612  0.40231  1.0000
  C   C976      1.0  0.85304  0.74576  0.41611  1.0000
  C   C977      1.0  0.87275  0.73831  0.42391  1.0000
  C   C978      1.0  0.89994  0.75056  0.41767  1.0000
  H   H1728     1.0  0.89368  0.79297  0.38460  1.0000
  H   H1729     1.0  0.84595  0.77198  0.39614  1.0000
  H   H1730     1.0  0.86679  0.72254  0.43452  1.0000
  H   H1731     1.0  0.91478  0.74428  0.42358  1.0000
  H   H1732     1.0  0.84394  0.78127  0.45598  1.0000
  H   H1733     1.0  0.60565  0.69548  0.33971  1.0000
  H   H1734     1.0  0.82645  0.62557  0.32515  1.0000
  H   H1735     1.0  0.75449  0.91361  0.36588  1.0000
  S   S230      1.0  0.97907  0.69086  0.36024  1.0000
  C   C979      1.0  0.53488  0.68520  0.38639  1.0000
  C   C980      1.0  0.71959  0.71872  0.48637  1.0000
  H   H1736     1.0  0.69343  0.93940  0.49993  1.0000
  C   C981      1.0  0.77284  0.94898  0.47858  1.0000
  C   C982      1.0  0.97287  0.71707  0.48316  1.0000
  S   S231      1.0  0.55811  0.71731  0.27438  1.0000
  H   H1737     1.0  0.72666  0.88820  0.45186  1.0000
  H   H1738     1.0  0.77925  0.94709  0.46375  1.0000
  C   C983      1.0  0.64111  0.66989  0.32241  1.0000
  C   C984      1.0  0.65789  0.69653  0.31596  1.0000
  C   C985      1.0  0.68085  0.71643  0.32798  1.0000
  C   C986      1.0  0.68721  0.71034  0.34677  1.0000
  C   C987      1.0  0.67040  0.68370  0.35325  1.0000
  C   C988      1.0  0.64774  0.66359  0.34108  1.0000
  H   H1739     1.0  0.65346  0.70166  0.30158  1.0000
  H   H1740     1.0  0.69394  0.73661  0.32255  1.0000
  H   H1741     1.0  0.67502  0.67847  0.36756  1.0000
  H   H1742     1.0  0.63519  0.64297  0.34620  1.0000
  H   H1743     1.0  0.78755  0.68996  0.36133  1.0000
  C   C989      1.0  0.64603  0.92838  0.31371  1.0000
  C   C990      1.0  0.66030  0.92104  0.32813  1.0000
  C   C991      1.0  0.67931  0.94099  0.34233  1.0000
  H   H1744     1.0  0.50034  0.64796  0.33160  1.0000
  H   H1745     1.0  0.63118  0.76243  0.31379  1.0000
  H   H1746     1.0  0.48539  0.54117  0.27003  1.0000
  C   C992      1.0  0.88071  0.66807  0.41425  1.0000
  H   H1747     1.0  0.84932  0.66259  0.47209  1.0000
  H   H1748     1.0  0.73716  0.83938  0.32729  1.0000
  H   H1749     1.0  0.57046  0.77377  0.28357  1.0000
  C   C993      1.0  0.84317  0.67035  0.33147  1.0000
  H   H1750     1.0  0.65644  0.89964  0.32843  1.0000
  H   H1751     1.0  0.87807  0.72647  0.34260  1.0000
  H   H1752     1.0  0.58106  0.60931  0.36278  1.0000
  H   H1753     1.0  0.76102  0.75273  0.48526  1.0000
  H   H1754     1.0  0.61930  0.77360  0.26697  1.0000
  H   H1755     1.0  0.76983  0.80346  0.47899  1.0000
  C   C994      1.0  0.62607  0.74060  0.31666  1.0000
  H   H1756     1.0  0.93473  0.77048  0.35001  1.0000
  H   H1757     1.0  0.60030  0.73787  0.33964  1.0000
  H   H1758     1.0  0.59173  0.68555  0.31522  1.0000
  C   C995      1.0  0.83886  0.64555  0.31816  1.0000
  H   H1759     1.0  0.73450  0.78788  0.46824  1.0000
  C   C996      1.0  0.65117  0.95613  0.31364  1.0000
  C   C997      1.0  0.77168  0.90279  0.48013  1.0000
  H   H1760     1.0  0.94662  0.79679  0.46491  1.0000
  H   H1761     1.0  0.78696  0.88358  0.35276  1.0000
  H   H1762     1.0  0.80634  0.66906  0.47615  1.0000
  H   H1763     1.0  0.80811  0.88801  0.46298  1.0000
  H   H1764     1.0  0.68569  0.77167  0.30263  1.0000
  H   H1765     1.0  0.94457  0.71686  0.31348  1.0000
  C   C998      1.0  0.77384  0.91217  0.36388  1.0000
  C   C999      1.0  0.68992  0.89232  0.45458  1.0000
  N   N55       1.0  0.73896  0.83066  0.35761  1.0000
  C   C1000     1.0  0.72314  0.82575  0.33806  1.0000
  C   C1001     1.0  0.74658  0.85958  0.36564  1.0000
  C   C1002     1.0  0.76456  0.82741  0.35494  1.0000
  C   C1003     1.0  0.72163  0.80983  0.37180  1.0000
  C   C1004     1.0  0.69291  0.80796  0.37499  1.0000
  C   C1005     1.0  0.70972  0.79551  0.32890  1.0000
  C   C1006     1.0  0.78556  0.83554  0.37301  1.0000
  C   C1007     1.0  0.76704  0.88405  0.35398  1.0000
  C   C1008     1.0  0.67686  0.78498  0.38874  1.0000
  C   C1009     1.0  0.69569  0.79359  0.30871  1.0000
  C   C1010     1.0  0.81138  0.83322  0.36814  1.0000
  H   H1766     1.0  0.70651  0.83201  0.33886  1.0000
  H   H1767     1.0  0.72764  0.86219  0.36643  1.0000
  H   H1768     1.0  0.77592  0.83943  0.34256  1.0000
  H   H1769     1.0  0.75852  0.80525  0.35086  1.0000
  H   H1770     1.0  0.71825  0.78862  0.36745  1.0000
  H   H1771     1.0  0.73303  0.81465  0.38636  1.0000
  H   H1772     1.0  0.67985  0.80312  0.36114  1.0000
  H   H1773     1.0  0.69545  0.82787  0.38162  1.0000
  H   H1774     1.0  0.72557  0.78851  0.32719  1.0000
  H   H1775     1.0  0.69365  0.78062  0.33801  1.0000
  H   H1776     1.0  0.77591  0.82136  0.38485  1.0000
  H   H1777     1.0  0.79280  0.85728  0.37864  1.0000
  H   H1778     1.0  0.75774  0.88326  0.33912  1.0000
  H   H1779     1.0  0.68845  0.78957  0.40324  1.0000
  H   H1780     1.0  0.65626  0.78374  0.39066  1.0000
  H   H1781     1.0  0.67351  0.76441  0.38270  1.0000
  H   H1782     1.0  0.67943  0.80026  0.30955  1.0000
  H   H1783     1.0  0.71128  0.80691  0.29864  1.0000
  H   H1784     1.0  0.82536  0.83785  0.38157  1.0000
  H   H1785     1.0  0.80552  0.81178  0.36238  1.0000
  H   H1786     1.0  0.82292  0.84842  0.35722  1.0000
  C   C1011     1.0  0.84476  0.75618  0.48002  1.0000
  H   H1787     1.0  0.84392  0.65152  0.35816  1.0000
  H   H1788     1.0  0.86710  0.65220  0.42410  1.0000
  H   H1789     1.0  0.81407  0.96746  0.49524  1.0000
  H   H1790     1.0  0.75824  0.82411  0.46507  1.0000
  C   C1012     1.0  0.88718  0.72265  0.35619  1.0000
  H   H1791     1.0  0.79762  0.72529  0.35506  1.0000
  H   H1792     1.0  0.85922  0.64717  0.31478  1.0000
  H   H1793     1.0  0.89781  0.68628  0.37870  1.0000
  Fe  Fe114     1.0  0.73405  0.98899  0.38504  1.0000
  H   H1794     1.0  0.68332  0.93731  0.28074  1.0000
  H   H1795     1.0  0.96022  0.70324  0.28386  1.0000
  C   C1013     1.0  0.93311  0.75209  0.34154  1.0000
  H   H1796     1.0  0.71602  0.98248  0.27574  1.0000
  H   H1797     1.0  0.51154  0.63601  0.31111  1.0000
  H   H1798     1.0  0.57243  0.60689  0.33700  1.0000
  H   H1799     1.0  0.73901  0.95408  0.27927  1.0000
  H   H1800     1.0  0.58270  0.72841  0.31570  1.0000
  H   H1801     1.0  0.92791  0.72604  0.36536  1.0000
  H   H1802     1.0  0.73200  0.92344  0.45183  1.0000
  C   C1014     1.0  0.59809  0.72623  0.32566  1.0000
  H   H1803     1.0  0.82743  0.64532  0.30428  1.0000
  H   H1804     1.0  0.80129  0.74429  0.48320  1.0000
  H   H1805     1.0  0.78515  0.91499  0.37830  1.0000
  H   H1806     1.0  0.54836  0.68233  0.30614  1.0000
  H   H1807     1.0  0.87658  0.66780  0.34822  1.0000
  H   H1808     1.0  0.75750  0.95684  0.47629  1.0000
  H   H1809     1.0  0.70646  0.96115  0.46815  1.0000
  H   H1810     1.0  0.96882  0.65437  0.32649  1.0000
  H   H1811     1.0  0.72568  0.82060  0.48945  1.0000
  H   H1812     1.0  0.64522  0.95159  0.26836  1.0000
  C   C1015     1.0  0.77392  0.68885  0.48133  1.0000
  C   C1016     1.0  0.67581  0.88521  0.28192  1.0000
  C   C1017     1.0  0.67033  0.97615  0.32778  1.0000
  H   H1813     1.0  0.80868  0.73201  0.46137  1.0000
  C   C1018     1.0  0.76337  0.68556  0.45959  1.0000
  C   C1019     1.0  0.74646  0.73737  0.49429  1.0000
  H   H1814     1.0  0.75541  0.86277  0.38094  1.0000
  N   N56       1.0  0.56056  0.67781  0.33577  1.0000
  H   H1815     1.0  0.65272  0.87483  0.28006  1.0000
  C   C1020     1.0  0.73326  0.66244  0.45623  1.0000
  C   C1021     1.0  0.58949  0.69513  0.32907  1.0000
  C   C1022     1.0  0.55621  0.74274  0.25976  1.0000
  C   C1023     1.0  0.68442  0.96873  0.34231  1.0000
  C   C1024     1.0  0.85831  0.67081  0.35118  1.0000
  H   H1816     1.0  0.93653  0.71550  0.49514  1.0000
  C   C1025     1.0  0.49181  0.66079  0.30391  1.0000
  C   C1026     1.0  0.70086  0.69906  0.49830  1.0000
  H   H1817     1.0  0.56223  0.71144  0.35410  1.0000
  H   H1818     1.0  0.68498  0.89009  0.43858  1.0000
  C   C1027     1.0  0.56358  0.76923  0.26828  1.0000
  H   H1819     1.0  0.68009  0.68450  0.49236  1.0000
  C   C1028     1.0  0.51050  0.65425  0.31778  1.0000
  H   H1820     1.0  0.77643  0.68058  0.45011  1.0000
  H   H1821     1.0  0.76370  0.70513  0.45498  1.0000
  H   H1822     1.0  0.53790  0.69857  0.32394  1.0000
  C   C1029     1.0  0.88166  0.69204  0.38283  1.0000
  S   S232      1.0  0.54999  0.86237  0.26526  1.0000
  H   H1823     1.0  0.57698  0.69225  0.36545  1.0000
  H   H1824     1.0  0.71847  0.91704  0.48812  1.0000
  S   S233      1.0  0.95917  0.71455  0.45874  1.0000
  H   H1825     1.0  0.76972  0.90099  0.46392  1.0000
  H   H1826     1.0  0.55894  0.64074  0.32235  1.0000
  C   C1030     1.0  0.84777  0.69719  0.48768  1.0000
  H   H1827     1.0  0.72599  0.66122  0.44070  1.0000
  H   H1828     1.0  0.73157  0.64192  0.45980  1.0000
  H   H1829     1.0  0.71948  0.66695  0.46531  1.0000
  N   N57       1.0  0.86696  0.69597  0.36488  1.0000
  C   C1031     1.0  0.55930  0.68990  0.35535  1.0000
  C   C1032     1.0  0.84191  0.69842  0.37095  1.0000
  H   H1830     1.0  0.82368  0.69777  0.46164  1.0000
  C   C1033     1.0  0.91578  0.72518  0.35170  1.0000
  Fe  Fe115     1.0  0.59430  0.89747  0.26878  1.0000
  C   C1034     1.0  0.83203  0.71584  0.35830  1.0000
  C   C1035     1.0  0.80382  0.71206  0.36393  1.0000
  C   C1036     1.0  0.72118  0.90330  0.45888  1.0000
  H   H1831     1.0  0.89165  0.74072  0.36634  1.0000
  H   H1832     1.0  0.80495  0.71847  0.37951  1.0000
  H   H1833     1.0  0.82392  0.67731  0.37224  1.0000
  H   H1834     1.0  0.84642  0.70893  0.38573  1.0000
  H   H1835     1.0  0.89316  0.71207  0.39158  1.0000
  H   H1836     1.0  0.92365  0.75114  0.32669  1.0000
  S   S234      1.0  0.76453  0.97280  0.38068  1.0000
  C   C1037     1.0  0.97910  0.67098  0.26781  1.0000
  H   H1837     1.0  0.84738  0.67464  0.40269  1.0000
  H   H1838     1.0  0.84716  0.73841  0.36062  1.0000
  H   H1839     1.0  0.83019  0.71031  0.34257  1.0000
  H   H1840     1.0  0.97902  0.77409  0.50595  1.0000
  H   H1841     1.0  0.78729  0.92938  0.35481  1.0000
  H   H1842     1.0  0.96209  0.69675  0.31881  1.0000
  H   H1843     1.0  0.59620  0.65590  0.35090  1.0000
  H   H1844     1.0  0.65550  0.93976  0.45346  1.0000
  H   H1845     1.0  0.68987  0.93485  0.35338  1.0000
  C   C1038     1.0  0.71768  0.97267  0.48151  1.0000
  H   H1846     1.0  0.67796  0.87155  0.46068  1.0000
  C   C1039     1.0  0.56033  0.97995  0.25781  1.0000
  H   H1847     1.0  0.95452  0.75509  0.34043  1.0000
  S   S235      1.0  0.77833  0.98064  0.42826  1.0000
  C   C1040     1.0  0.54014  0.67958  0.32081  1.0000
  H   H1848     1.0  0.85508  0.68949  0.32359  1.0000
  C   C1041     1.0  0.55569  0.64813  0.33675  1.0000
  C   C1042     1.0  0.75182  0.80720  0.47547  1.0000
  C   C1043     1.0  0.72882  0.90615  0.48115  1.0000
  H   H1849     1.0  0.91334  0.70738  0.34216  1.0000
  H   H1850     1.0  0.89630  0.66201  0.40940  1.0000
  H   H1851     1.0  0.85216  0.64868  0.38926  1.0000
  H   H1852     1.0  0.89173  0.68851  0.42263  1.0000
  C   C1044     1.0  0.66187  0.97090  0.26279  1.0000
  H   H1853     1.0  0.82222  0.66789  0.33387  1.0000
  H   H1854     1.0  0.62515  0.72964  0.30262  1.0000
  H   H1855     1.0  0.54557  0.59827  0.35389  1.0000
  C   C1045     1.0  0.53185  0.67388  0.36540  1.0000
  H   H1856     1.0  0.80730  0.91636  0.50198  1.0000
  C   C1046     1.0  0.57375  0.64290  0.35258  1.0000
  H   H1857     1.0  0.55084  0.68213  0.39511  1.0000
  H   H1858     1.0  0.65391  0.93592  0.42730  1.0000
  H   H1859     1.0  0.64013  0.96212  0.30289  1.0000
  H   H1860     1.0  0.95352  0.79998  0.50030  1.0000
  C   C1047     1.0  0.85003  0.78403  0.47186  1.0000
  C   C1048     1.0  0.95647  0.71630  0.49845  1.0000
  C   C1049     1.0  0.79804  0.97335  0.49030  1.0000
  H   H1861     1.0  0.68336  0.90710  0.46083  1.0000
  H   H1862     1.0  0.63948  0.97947  0.41631  1.0000
  H   H1863     1.0  0.69044  0.98285  0.44028  1.0000
  C   C1050     1.0  0.97224  0.80571  0.49206  1.0000
  C   C1051     1.0  0.97533  0.72133  0.29330  1.0000
  H   H1864     1.0  0.95149  0.76794  0.47285  1.0000
  H   H1865     1.0  0.64275  0.74084  0.32673  1.0000
  H   H1866     1.0  0.54926  0.95844  0.26297  1.0000
  H   H1867     1.0  0.68239  0.86877  0.28179  1.0000
  H   H1868     1.0  0.56931  0.64748  0.36737  1.0000
  H   H1869     1.0  0.76694  0.66738  0.48630  1.0000
  C   C1052     1.0  0.96499  0.71708  0.31373  1.0000
  H   H1870     1.0  0.68280  0.89703  0.29625  1.0000
  H   H1871     1.0  0.53387  0.63355  0.33954  1.0000
  C   C1053     1.0  0.74502  0.96910  0.26757  1.0000
  C   C1054     1.0  0.80282  0.91311  0.48598  1.0000
  C   C1055     1.0  0.74266  0.81570  0.49392  1.0000
  C   C1056     1.0  0.63614  0.76967  0.26183  1.0000
  H   H1872     1.0  0.97487  0.74023  0.28792  1.0000
  C   C1057     1.0  0.56771  0.61244  0.35145  1.0000
  H   H1873     1.0  0.65276  0.98799  0.37937  1.0000
  H   H1874     1.0  0.63978  0.75630  0.27227  1.0000
  H   H1875     1.0  0.85713  0.74875  0.47177  1.0000
  N   N58       1.0  0.80493  0.70666  0.48594  1.0000
  H   H1876     1.0  0.81571  0.93287  0.47895  1.0000
  C   C1058     1.0  0.81192  0.89197  0.47903  1.0000
  H   H1877     1.0  0.79084  0.97975  0.50336  1.0000
  N   N59       1.0  0.75952  0.92073  0.48749  1.0000
  H   H1878     1.0  0.62789  0.94147  0.43907  1.0000
  H   H1879     1.0  0.56809  0.81036  0.26386  1.0000
  C   C1059     1.0  0.96186  0.79099  0.47185  1.0000
  H   H1880     1.0  0.71848  0.88449  0.48611  1.0000
  H   H1881     1.0  0.97095  0.66854  0.28246  1.0000
  C   C1060     1.0  0.65025  0.94697  0.43966  1.0000
  H   H1882     1.0  0.65769  0.91782  0.26197  1.0000
  C   C1061     1.0  0.81352  0.73459  0.47733  1.0000
  H   H1883     1.0  0.96627  0.67623  0.25745  1.0000
  H   H1884     1.0  0.76050  0.83499  0.50053  1.0000
  H   H1885     1.0  0.80055  0.87192  0.48612  1.0000
  C   C1062     1.0  0.81980  0.69213  0.47707  1.0000
  C   C1063     1.0  0.68054  0.92860  0.26550  1.0000
  H   H1886     1.0  0.76219  0.69715  0.48957  1.0000
  C   C1064     1.0  0.72088  0.97541  0.26190  1.0000
  H   H1887     1.0  0.83810  0.79273  0.47939  1.0000
  H   H1888     1.0  0.83455  0.90026  0.48279  1.0000
  H   H1889     1.0  0.71265  0.77470  0.50117  1.0000
  C   C1065     1.0  0.86272  0.68531  0.47547  1.0000
  H   H1890     1.0  0.52529  0.65130  0.36581  1.0000
  C   C1066     1.0  0.66843  0.97852  0.43896  1.0000
  H   H1891     1.0  0.50094  0.66645  0.28959  1.0000
  H   H1892     1.0  0.51472  0.67387  0.39313  1.0000
  H   H1893     1.0  0.67016  0.98026  0.40823  1.0000
  H   H1894     1.0  0.54091  0.70779  0.38684  1.0000
  Fe  Fe116     1.0  0.56342  0.68098  0.26238  1.0000
  S   S236      1.0  0.50151  0.89870  0.25742  1.0000
  C   C1067     1.0  0.66245  0.98939  0.41953  1.0000
  C   C1068     1.0  0.71044  0.96038  0.49952  1.0000
  Fe  Fe117     1.0  0.98100  0.73109  0.43082  1.0000
  C   C1069     1.0  0.56225  0.78999  0.25714  1.0000
  H   H1895     1.0  0.65560  0.78978  0.26162  1.0000
  H   H1896     1.0  0.48916  0.67834  0.31010  1.0000
  H   H1897     1.0  0.95351  0.62647  0.26119  1.0000
  C   C1070     1.0  0.97565  0.64253  0.26094  1.0000
  H   H1898     1.0  0.88213  0.68844  0.48367  1.0000
  H   H1899     1.0  0.71116  0.91246  0.26681  1.0000
  H   H1900     1.0  0.86224  0.71957  0.49106  1.0000
  H   H1901     1.0  0.97997  0.73404  0.32418  1.0000
  C   C1071     1.0  0.68842  0.90462  0.26540  1.0000
  H   H1902     1.0  0.67702  0.98264  0.27517  1.0000
  H   H1903     1.0  0.66511  0.98853  0.45195  1.0000
  H   H1904     1.0  0.78773  0.99040  0.28000  1.0000
  H   H1905     1.0  0.84396  0.68671  0.50167  1.0000
  H   H1906     1.0  0.85247  0.76025  0.49557  1.0000
  H   H1907     1.0  0.58189  0.99024  0.26470  1.0000
  H   H1908     1.0  0.97948  0.79731  0.46241  1.0000
  H   H1909     1.0  0.98284  0.82857  0.49034  1.0000
  Fe  Fe118     1.0  0.90602  0.58315  0.72499  1.0000
  S   S237      1.0  0.87206  0.53862  0.72347  1.0000
  S   S238      1.0  0.93498  0.60470  0.70090  1.0000
  C   C1072     1.0  0.73202  0.58401  0.69891  1.0000
  S   S239      1.0  0.71530  0.95786  0.53911  1.0000
  H   H1910     1.0  0.79886  0.67032  0.54834  1.0000
  H   H1911     1.0  0.93601  0.49662  0.66784  1.0000
  H   H1912     1.0  0.81173  0.64692  0.63895  1.0000
  Fe  Fe119     1.0  0.64944  0.58587  0.72812  1.0000
  C   C1073     1.0  0.73635  0.54706  0.74404  1.0000
  S   S240      1.0  0.64910  0.59839  0.69646  1.0000
  C   C1074     1.0  0.97541  0.71414  0.72405  1.0000
  H   H1913     1.0  0.79914  0.83846  0.56593  1.0000
  H   H1914     1.0  0.68830  0.54521  0.67325  1.0000
  C   C1075     1.0  0.70614  0.80976  0.52658  1.0000
  S   S241      1.0  0.65018  0.54554  0.73468  1.0000
  Fe  Fe120     1.0  0.74093  0.72654  0.62249  1.0000
  S   S242      1.0  0.76443  0.77356  0.62722  1.0000
  S   S243      1.0  0.73341  0.70490  0.65178  1.0000
  Fe  Fe121     1.0  0.74934  0.73137  0.57786  1.0000
  S   S244      1.0  0.77366  0.77798  0.58037  1.0000
  S   S245      1.0  0.74700  0.70915  0.54870  1.0000
  Fe  Fe122     1.0  0.79463  0.77167  0.60717  1.0000
  S   S246      1.0  0.84087  0.79422  0.61491  1.0000
  Fe  Fe123     1.0  0.74113  0.77565  0.59999  1.0000
  S   S247      1.0  0.72010  0.80281  0.59435  1.0000
  S   S248      1.0  0.77279  0.72512  0.60359  1.0000
  S   S249      1.0  0.71508  0.72862  0.59626  1.0000
  C   C1076     1.0  0.97708  0.72798  0.68875  1.0000
  H   H1915     1.0  0.83249  0.72279  0.51235  1.0000
  C   C1077     1.0  0.72474  0.97506  0.51706  1.0000
  C   C1078     1.0  0.83080  0.64682  0.63438  1.0000
  H   H1916     1.0  0.91609  0.57180  0.66042  1.0000
  Fe  Fe124     1.0  0.75780  0.96205  0.60535  1.0000
  S   S250      1.0  0.77477  0.93339  0.61596  1.0000
  S   S251      1.0  0.71354  0.94788  0.59456  1.0000
  Fe  Fe125     1.0  0.94245  0.74499  0.58153  1.0000
  S   S252      1.0  0.93908  0.70230  0.58131  1.0000
  S   S253      1.0  0.90810  0.75009  0.56558  1.0000
  H   H1917     1.0  0.90620  0.51604  0.66946  1.0000
  H   H1918     1.0  0.67615  0.73523  0.56281  1.0000
  C   C1079     1.0  0.73570  0.71583  0.52575  1.0000
  H   H1919     1.0  0.94058  0.75056  0.65505  1.0000
  H   H1920     1.0  0.82337  0.59824  0.71679  1.0000
  C   C1080     1.0  0.85959  0.78218  0.60107  1.0000
  C   C1081     1.0  0.84774  0.76653  0.58353  1.0000
  C   C1082     1.0  0.86305  0.75725  0.57258  1.0000
  C   C1083     1.0  0.88986  0.76272  0.57942  1.0000
  C   C1084     1.0  0.90160  0.77810  0.59707  1.0000
  C   C1085     1.0  0.88659  0.78808  0.60776  1.0000
  H   H1921     1.0  0.82694  0.76195  0.57825  1.0000
  H   H1922     1.0  0.85403  0.74565  0.55885  1.0000
  H   H1923     1.0  0.92241  0.78276  0.60230  1.0000
  H   H1924     1.0  0.89584  0.80025  0.62130  1.0000
  C   C1086     1.0  0.73617  0.83931  0.59986  1.0000
  C   C1087     1.0  0.76228  0.85364  0.61002  1.0000
  C   C1088     1.0  0.77390  0.88249  0.61470  1.0000
  C   C1089     1.0  0.75988  0.89742  0.60890  1.0000
  C   C1090     1.0  0.73401  0.88320  0.59838  1.0000
  C   C1091     1.0  0.72204  0.85421  0.59420  1.0000
  H   H1925     1.0  0.77333  0.84241  0.61457  1.0000
  H   H1926     1.0  0.79391  0.89329  0.62287  1.0000
  H   H1927     1.0  0.72298  0.89440  0.59382  1.0000
  H   H1928     1.0  0.70160  0.84323  0.58669  1.0000
  C   C1092     1.0  0.67254  0.62852  0.68445  1.0000
  C   C1093     1.0  0.66776  0.62990  0.66429  1.0000
  C   C1094     1.0  0.68581  0.65313  0.65408  1.0000
  C   C1095     1.0  0.70910  0.67537  0.66388  1.0000
  C   C1096     1.0  0.71398  0.67392  0.68403  1.0000
  C   C1097     1.0  0.69580  0.65079  0.69427  1.0000
  H   H1929     1.0  0.64987  0.61287  0.65650  1.0000
  H   H1930     1.0  0.68174  0.65377  0.63861  1.0000
  H   H1931     1.0  0.73185  0.69097  0.69181  1.0000
  H   H1932     1.0  0.69971  0.65026  0.70977  1.0000
  C   C1098     1.0  0.75634  0.65481  0.75353  1.0000
  C   C1099     1.0  0.93343  0.62732  0.68314  1.0000
  C   C1100     1.0  0.95534  0.63976  0.67079  1.0000
  C   C1101     1.0  0.95520  0.65810  0.65664  1.0000
  C   C1102     1.0  0.93312  0.66431  0.65471  1.0000
  H   H1933     1.0  0.91925  0.68714  0.70942  1.0000
  C   C1103     1.0  0.91126  0.63338  0.68114  1.0000
  N   N60       1.0  0.93208  0.51619  0.69446  1.0000
  H   H1934     1.0  0.69464  0.68104  0.52634  1.0000
  H   H1935     1.0  0.89968  0.50602  0.71426  1.0000
  H   H1936     1.0  0.91018  0.54007  0.68889  1.0000
  C   C1104     1.0  0.75489  0.53937  0.73568  1.0000
  H   H1937     1.0  0.87165  0.67065  0.71905  1.0000
  C   C1105     1.0  0.95237  0.53777  0.70955  1.0000
  H   H1938     1.0  0.77525  0.57152  0.70037  1.0000
  H   H1939     1.0  0.78422  0.93557  0.51517  1.0000
  H   H1940     1.0  0.68770  0.79508  0.51695  1.0000
  H   H1941     1.0  0.81364  0.60260  0.63921  1.0000
  C   C1106     1.0  0.68883  0.74930  0.53387  1.0000
  H   H1942     1.0  0.66805  0.82953  0.55668  1.0000
  H   H1943     1.0  0.80533  0.70596  0.54783  1.0000
  H   H1944     1.0  0.77672  0.79811  0.54117  1.0000
  H   H1945     1.0  0.83321  0.62148  0.69687  1.0000
  H   H1946     1.0  0.96356  0.72594  0.72459  1.0000
  S   S254      1.0  0.88295  0.59987  0.74226  1.0000
  H   H1947     1.0  0.65971  0.70859  0.54339  1.0000
  H   H1948     1.0  0.74179  0.94552  0.64265  1.0000
  H   H1949     1.0  0.70252  0.59456  0.68284  1.0000
  H   H1950     1.0  0.94633  0.58275  0.64671  1.0000
  H   H1951     1.0  0.83167  0.69682  0.54076  1.0000
  H   H1952     1.0  0.70764  0.98261  0.66568  1.0000
  H   H1953     1.0  0.87114  0.67897  0.56865  1.0000
  H   H1954     1.0  0.85913  0.67633  0.65669  1.0000
  Fe  Fe126     1.0  0.85019  0.55492  0.74284  1.0000
  C   C1107     1.0  0.79672  0.68423  0.51933  1.0000
  C   C1108     1.0  0.96690  0.52761  0.72482  1.0000
  H   H1955     1.0  0.83428  0.62519  0.65985  1.0000
  N   N61       1.0  0.96466  0.69035  0.73757  1.0000
  C   C1109     1.0  0.93006  0.56481  0.65386  1.0000
  H   H1956     1.0  0.80990  0.86224  0.54638  1.0000
  H   H1957     1.0  0.95246  0.71537  0.52957  1.0000
  H   H1958     1.0  0.91786  0.54782  0.64259  1.0000
  H   H1959     1.0  0.75870  0.84324  0.53297  1.0000
  C   C1110     1.0  0.70249  0.58059  0.69433  1.0000
  H   H1960     1.0  0.96827  0.55422  0.74939  1.0000
  C   C1111     1.0  0.52903  0.54322  0.74517  1.0000
  S   S255      1.0  0.93178  0.68766  0.63745  1.0000
  C   C1112     1.0  0.70899  0.69728  0.51768  1.0000
  N   N62       1.0  0.75434  0.61295  0.70568  1.0000
  C   C1113     1.0  0.78168  0.61285  0.71033  1.0000
  C   C1114     1.0  0.74564  0.62102  0.72426  1.0000
  C   C1115     1.0  0.75730  0.63432  0.69110  1.0000
  C   C1116     1.0  0.76381  0.62922  0.67028  1.0000
  C   C1117     1.0  0.76821  0.64752  0.73604  1.0000
  C   C1118     1.0  0.78861  0.59372  0.69718  1.0000
  C   C1119     1.0  0.81888  0.60010  0.70112  1.0000
  C   C1120     1.0  0.75967  0.64854  0.65623  1.0000
  H   H1961     1.0  0.77651  0.91395  0.54703  1.0000
  H   H1962     1.0  0.79927  0.63450  0.71057  1.0000
  H   H1963     1.0  0.78219  0.60544  0.72527  1.0000
  H   H1964     1.0  0.73849  0.60355  0.73429  1.0000
  H   H1965     1.0  0.72745  0.62469  0.72117  1.0000
  H   H1966     1.0  0.73823  0.63682  0.68999  1.0000
  H   H1967     1.0  0.77419  0.65531  0.69621  1.0000
  H   H1968     1.0  0.75015  0.60758  0.66440  1.0000
  H   H1969     1.0  0.78589  0.63387  0.67027  1.0000
  H   H1970     1.0  0.77660  0.66593  0.72699  1.0000
  H   H1971     1.0  0.78575  0.64422  0.74176  1.0000
  H   H1972     1.0  0.78513  0.59581  0.68151  1.0000
  H   H1973     1.0  0.82279  0.58493  0.69254  1.0000
  H   H1974     1.0  0.76569  0.64568  0.64156  1.0000
  H   H1975     1.0  0.73741  0.64351  0.65483  1.0000
  H   H1976     1.0  0.77240  0.67076  0.66144  1.0000
  H   H1977     1.0  0.95198  0.50878  0.73181  1.0000
  H   H1978     1.0  0.95707  0.57331  0.67945  1.0000
  C   C1121     1.0  0.78044  0.81910  0.53710  1.0000
  H   H1979     1.0  0.89594  0.71609  0.66655  1.0000
  C   C1122     1.0  0.71770  0.77421  0.54043  1.0000
  H   H1980     1.0  0.95731  0.54798  0.66230  1.0000
  H   H1981     1.0  0.80143  0.72474  0.51330  1.0000
  N   N63       1.0  0.70203  0.88934  0.65458  1.0000
  C   C1123     1.0  0.69134  0.89945  0.63751  1.0000
  C   C1124     1.0  0.73232  0.90958  0.66017  1.0000
  C   C1125     1.0  0.70023  0.86176  0.64802  1.0000
  C   C1126     1.0  0.68465  0.88444  0.67182  1.0000
  C   C1127     1.0  0.68153  0.90960  0.67978  1.0000
  C   C1128     1.0  0.66034  0.88079  0.63033  1.0000
  C   C1129     1.0  0.71392  0.84930  0.66230  1.0000
  C   C1130     1.0  0.74191  0.94113  0.65827  1.0000
  C   C1131     1.0  0.97635  0.82768  0.56708  1.0000
  C   C1132     1.0  0.65924  0.90056  0.69447  1.0000
  C   C1133     1.0  0.65180  0.89347  0.61341  1.0000
  C   C1134     1.0  0.71121  0.82191  0.65369  1.0000
  H   H1982     1.0  0.70427  0.90198  0.62496  1.0000
  H   H1983     1.0  0.69370  0.92055  0.64073  1.0000
  H   H1984     1.0  0.73811  0.90655  0.67533  1.0000
  H   H1985     1.0  0.74604  0.90524  0.65079  1.0000
  H   H1986     1.0  0.71001  0.86379  0.63394  1.0000
  H   H1987     1.0  0.67819  0.84542  0.64521  1.0000
  H   H1988     1.0  0.66350  0.86650  0.66844  1.0000
  H   H1989     1.0  0.69358  0.87799  0.68433  1.0000
  H   H1990     1.0  0.67552  0.91984  0.66813  1.0000
  H   H1991     1.0  0.70135  0.92509  0.68760  1.0000
  H   H1992     1.0  0.65642  0.85977  0.62504  1.0000
  H   H1993     1.0  0.64651  0.87856  0.64214  1.0000
  H   H1994     1.0  0.70375  0.84474  0.67624  1.0000
  H   H1995     1.0  0.73646  0.86370  0.66544  1.0000
  H   H1996     1.0  0.77395  0.67665  0.51971  1.0000
  H   H1997     1.0  0.72827  0.94807  0.66516  1.0000
  H   H1998     1.0  0.97229  0.79193  0.53773  1.0000
  H   H1999     1.0  0.75687  0.88291  0.51681  1.0000
  H   H2000     1.0  0.73979  0.66012  0.74862  1.0000
  H   H2001     1.0  0.65800  0.91914  0.70030  1.0000
  H   H2002     1.0  0.63854  0.88563  0.68739  1.0000
  H   H2003     1.0  0.66443  0.89068  0.70684  1.0000
  H   H2004     1.0  0.66350  0.89411  0.60056  1.0000
  H   H2005     1.0  0.62925  0.88047  0.60921  1.0000
  H   H2006     1.0  0.65569  0.91494  0.61759  1.0000
  H   H2007     1.0  0.68899  0.80625  0.65058  1.0000
  H   H2008     1.0  0.72200  0.82540  0.64000  1.0000
  H   H2009     1.0  0.72092  0.81325  0.66415  1.0000
  C   C1135     1.0  0.75444  0.73604  0.51398  1.0000
  H   H2010     1.0  0.54964  0.55309  0.73889  1.0000
  H   H2011     1.0  0.73743  0.57619  0.68570  1.0000
  H   H2012     1.0  0.78724  0.82200  0.52205  1.0000
  N   N64       1.0  0.85739  0.70079  0.63285  1.0000
  H   H2013     1.0  0.94175  0.54779  0.71742  1.0000
  C   C1136     1.0  0.88629  0.72490  0.63684  1.0000
  C   C1137     1.0  0.83612  0.70576  0.64290  1.0000
  C   C1138     1.0  0.85013  0.69753  0.61120  1.0000
  C   C1139     1.0  0.86872  0.69003  0.59866  1.0000
  H   H2014     1.0  0.68529  0.84668  0.53561  1.0000
  C   C1140     1.0  0.83556  0.73337  0.63871  1.0000
  C   C1141     1.0  0.89622  0.73369  0.65858  1.0000
  H   H2015     1.0  0.73276  0.76586  0.54054  1.0000
  C   C1142     1.0  0.85657  0.68235  0.57762  1.0000
  H   H2016     1.0  0.74522  0.91750  0.54745  1.0000
  C   C1143     1.0  0.81424  0.73652  0.65058  1.0000
  S   S256      1.0  0.80506  0.54024  0.73230  1.0000
  H   H2017     1.0  0.96802  0.51857  0.68111  1.0000
  H   H2018     1.0  0.90180  0.71984  0.63052  1.0000
  H   H2019     1.0  0.88841  0.74356  0.62926  1.0000
  Fe  Fe127     1.0  0.95699  0.71350  0.61260  1.0000
  H   H2020     1.0  0.81480  0.68879  0.63854  1.0000
  H   H2021     1.0  0.82792  0.68188  0.60777  1.0000
  H   H2022     1.0  0.85193  0.71733  0.60565  1.0000
  C   C1144     1.0  0.83263  0.62246  0.64373  1.0000
  H   H2023     1.0  0.88980  0.70826  0.59859  1.0000
  C   C1145     1.0  0.97657  0.65193  0.74953  1.0000
  H   H2024     1.0  0.97674  0.66455  0.72025  1.0000
  H   H2025     1.0  0.82950  0.73358  0.62313  1.0000
  H   H2026     1.0  0.85603  0.75192  0.64242  1.0000
  H   H2027     1.0  0.85105  0.62095  0.63902  1.0000
  H   H2028     1.0  0.82854  0.64262  0.61838  1.0000
  H   H2029     1.0  0.51467  0.52478  0.73555  1.0000
  H   H2030     1.0  0.71374  0.83072  0.55555  1.0000
  H   H2031     1.0  0.85367  0.69959  0.57160  1.0000
  C   C1146     1.0  0.85704  0.67486  0.64051  1.0000
  H   H2032     1.0  0.83626  0.66298  0.57670  1.0000
  H   H2033     1.0  0.67242  0.75571  0.53212  1.0000
  H   H2034     1.0  0.96070  0.73703  0.75463  1.0000
  H   H2035     1.0  0.71739  0.77991  0.55599  1.0000
  H   H2036     1.0  0.81383  0.75618  0.64715  1.0000
  H   H2037     1.0  0.79306  0.71891  0.64690  1.0000
  H   H2038     1.0  0.81967  0.73733  0.66642  1.0000
  C   C1147     1.0  0.98137  0.67498  0.73509  1.0000
  H   H2039     1.0  0.93115  0.65304  0.72260  1.0000
  H   H2040     1.0  0.68974  0.73950  0.51983  1.0000
  H   H2041     1.0  0.66094  0.54878  0.68438  1.0000
  C   C1148     1.0  0.68202  0.55069  0.68709  1.0000
  C   C1149     1.0  0.67953  0.72695  0.54888  1.0000
  H   H2042     1.0  0.95405  0.63721  0.74985  1.0000
  C   C1150     1.0  0.78270  0.55078  0.74322  1.0000
  H   H2043     1.0  0.73039  0.56904  0.71013  1.0000
  H   H2044     1.0  0.77534  0.75009  0.51992  1.0000
  H   H2045     1.0  0.83878  0.70485  0.65895  1.0000
  H   H2046     1.0  0.68090  0.53575  0.69818  1.0000
  C   C1151     1.0  0.97565  0.70565  0.70239  1.0000
  H   H2047     1.0  0.98305  0.62419  0.72949  1.0000
  Fe  Fe128     1.0  0.89117  0.53223  0.75144  1.0000
  H   H2048     1.0  0.92782  0.77571  0.65261  1.0000
  S   S257      1.0  0.95769  0.75531  0.61290  1.0000
  H   H2049     1.0  0.96292  0.83554  0.55989  1.0000
  H   H2050     1.0  0.87544  0.67305  0.63617  1.0000
  C   C1152     1.0  0.90754  0.49513  0.70455  1.0000
  C   C1153     1.0  0.92606  0.75756  0.66070  1.0000
  H   H2051     1.0  0.72551  0.88615  0.51762  1.0000
  C   C1154     1.0  0.67529  0.82632  0.54254  1.0000
  C   C1155     1.0  0.69596  0.81508  0.54603  1.0000
  H   H2052     1.0  0.69440  0.58523  0.70756  1.0000
  H   H2053     1.0  0.74362  0.88401  0.55050  1.0000
  C   C1156     1.0  0.75385  0.90364  0.54272  1.0000
  C   C1157     1.0  0.74841  0.89715  0.52071  1.0000
  H   H2054     1.0  0.71484  0.53771  0.73841  1.0000
  H   H2055     1.0  0.77811  0.98143  0.66519  1.0000
  C   C1158     1.0  0.96545  0.71619  0.51801  1.0000
  H   H2056     1.0  0.74755  0.52418  0.72348  1.0000
  H   H2057     1.0  0.87104  0.67218  0.60406  1.0000
  H   H2058     1.0  0.69540  0.71995  0.55170  1.0000
  H   H2059     1.0  0.89411  0.62370  0.69032  1.0000
  Fe  Fe129     1.0  0.73239  0.97628  0.57002  1.0000
  N   N65       1.0  0.72745  0.79960  0.52840  1.0000
  C   C1159     1.0  0.75393  0.82252  0.53850  1.0000
  H   H2060     1.0  0.93235  0.76434  0.67629  1.0000
  S   S258      1.0  0.61405  0.57707  0.74728  1.0000
  H   H2061     1.0  0.71476  0.82983  0.51922  1.0000
  C   C1160     1.0  0.80458  0.84077  0.55051  1.0000
  H   H2062     1.0  0.75123  0.82445  0.55431  1.0000
  C   C1161     1.0  0.77157  0.95905  0.66726  1.0000
  H   H2063     1.0  0.68542  0.79565  0.55393  1.0000
  H   H2064     1.0  0.95809  0.73050  0.68922  1.0000
  H   H2065     1.0  0.98220  0.52298  0.71779  1.0000
  H   H2066     1.0  0.82319  0.83773  0.54936  1.0000
  C   C1162     1.0  0.98291  0.55009  0.74105  1.0000
  H   H2067     1.0  0.89407  0.65653  0.66582  1.0000
  C   C1163     1.0  0.91123  0.65190  0.66711  1.0000
  C   C1164     1.0  0.80898  0.68977  0.54037  1.0000
  Fe  Fe130     1.0  0.61641  0.53807  0.75516  1.0000
  C   C1165     1.0  0.92153  0.53106  0.68080  1.0000
  C   C1166     1.0  0.76213  0.92428  0.50947  1.0000
  H   H2068     1.0  0.88288  0.74095  0.66572  1.0000
  C   C1167     1.0  0.94377  0.55489  0.66953  1.0000
  H   H2069     1.0  0.52064  0.55826  0.74548  1.0000
  C   C1168     1.0  0.88442  0.66152  0.72545  1.0000
  H   H2070     1.0  0.97219  0.66748  0.64726  1.0000
  S   S259      1.0  0.92677  0.57604  0.75164  1.0000
  H   H2071     1.0  0.87898  0.65656  0.74070  1.0000
  H   H2072     1.0  0.92508  0.65916  0.74665  1.0000
  H   H2073     1.0  0.79981  0.66733  0.51251  1.0000
  H   H2074     1.0  0.77271  0.95603  0.68310  1.0000
  H   H2075     1.0  0.96972  0.55489  0.70259  1.0000
  H   H2076     1.0  0.96318  0.80549  0.57024  1.0000
  C   C1169     1.0  0.91528  0.68225  0.72486  1.0000
  Fe  Fe131     1.0  0.71741  0.98558  0.61182  1.0000
  H   H2077     1.0  0.78624  0.95361  0.66006  1.0000
  H   H2078     1.0  0.75286  0.93770  0.51415  1.0000
  H   H2079     1.0  0.97257  0.63519  0.67216  1.0000
  H   H2080     1.0  0.97832  0.72157  0.67355  1.0000
  C   C1170     1.0  0.73219  0.79189  0.50832  1.0000
  H   H2081     1.0  0.97517  0.82288  0.52768  1.0000
  Fe  Fe132     1.0  0.98330  0.72400  0.57276  1.0000
  S   S260      1.0  0.68226  0.61124  0.75166  1.0000
  H   H2082     1.0  0.95691  0.68580  0.69775  1.0000
  C   C1171     1.0  0.94600  0.50292  0.68292  1.0000
  H   H2083     1.0  0.65687  0.81122  0.53314  1.0000
  H   H2084     1.0  0.74696  0.78328  0.50929  1.0000
  H   H2085     1.0  0.91905  0.70169  0.73285  1.0000
  H   H2086     1.0  0.87928  0.64199  0.71687  1.0000
  C   C1172     1.0  0.93408  0.67008  0.73326  1.0000
  S   S261      1.0  0.90552  0.49842  0.75501  1.0000
  S   S262      1.0  0.77662  0.98876  0.58016  1.0000
  S   S263      1.0  0.68325  0.98868  0.62808  1.0000
  C   C1173     1.0  0.80996  0.71111  0.50781  1.0000
  H   H2087     1.0  0.61507  0.67359  0.98634  1.0000
  H   H2088     1.0  0.81457  0.71443  0.96113  1.0000
  C   C1174     1.0  0.74558  0.56631  0.75999  1.0000
  C   C1175     1.0  0.95196  0.70551  0.99808  1.0000
  C   C1176     1.0  0.48824  0.49474  0.81818  1.0000
  C   C1177     1.0  0.87712  0.66623  0.98630  1.0000
  Fe  Fe133     1.0  0.76142  0.96820  0.90912  1.0000
  S   S264      1.0  0.77883  0.93752  0.90963  1.0000
  S   S265      1.0  0.71604  0.95598  0.90642  1.0000
  Fe  Fe134     1.0  0.72326  0.77659  0.90855  1.0000
  S   S266      1.0  0.70138  0.73489  0.92204  1.0000
  S   S267      1.0  0.70385  0.80549  0.90804  1.0000
  Fe  Fe135     1.0  0.77066  0.76665  0.89743  1.0000
  S   S268      1.0  0.75331  0.72507  0.91054  1.0000
  S   S269      1.0  0.80770  0.78138  0.87943  1.0000
  Fe  Fe136     1.0  0.71235  0.71722  0.89585  1.0000
  S   S270      1.0  0.68550  0.67330  0.88164  1.0000
  Fe  Fe137     1.0  0.74393  0.74595  0.93555  1.0000
  S   S271      1.0  0.75425  0.73678  0.96619  1.0000
  S   S272      1.0  0.73035  0.75785  0.88125  1.0000
  S   S273      1.0  0.76519  0.78861  0.92352  1.0000
  H   H2089     1.0  0.90566  0.59859  0.86655  1.0000
  C   C1178     1.0  0.69611  0.65390  0.94264  1.0000
  H   H2090     1.0  0.82614  0.69923  0.90223  1.0000
  Fe  Fe138     1.0  0.94284  0.72751  0.88597  1.0000
  H   H2091     1.0  0.73200  0.61928  0.80107  1.0000
  S   S274      1.0  0.91427  0.69551  0.86161  1.0000
  Fe  Fe139     1.0  0.94200  0.77427  0.91097  1.0000
  S   S275      1.0  0.92210  0.80039  0.92010  1.0000
  S   S276      1.0  0.91849  0.72777  0.91145  1.0000
  H   H2092     1.0  0.82466  0.82150  0.82047  1.0000
  S   S277      1.0  0.86769  0.54657  0.77105  1.0000
  S   S278      1.0  0.93087  0.62670  0.79139  1.0000
  H   H2093     1.0  0.71496  0.81907  0.95728  1.0000
  C   C1179     1.0  0.91193  0.63212  0.89968  1.0000
  S   S279      1.0  0.64993  0.63544  0.79140  1.0000
  H   H2094     1.0  0.65121  0.76612  0.96487  1.0000
  C   C1180     1.0  0.56791  0.60234  0.81184  1.0000
  C   C1181     1.0  0.91941  0.67804  0.84126  1.0000
  C   C1182     1.0  0.94590  0.68424  0.83575  1.0000
  C   C1183     1.0  0.94890  0.66855  0.82029  1.0000
  C   C1184     1.0  0.92551  0.64669  0.80996  1.0000
  C   C1185     1.0  0.89899  0.64100  0.81512  1.0000
  C   C1186     1.0  0.89601  0.65657  0.83067  1.0000
  H   H2095     1.0  0.96773  0.76342  0.97285  1.0000
  H   H2096     1.0  0.88077  0.62431  0.80736  1.0000
  H   H2097     1.0  0.87538  0.65162  0.83471  1.0000
  C   C1187     1.0  0.83856  0.78471  0.89104  1.0000
  C   C1188     1.0  0.84449  0.79135  0.91102  1.0000
  C   C1189     1.0  0.87035  0.79643  0.91973  1.0000
  C   C1190     1.0  0.88970  0.79327  0.90875  1.0000
  C   C1191     1.0  0.88333  0.78562  0.88889  1.0000
  C   C1192     1.0  0.85802  0.78198  0.87996  1.0000
  H   H2098     1.0  0.82955  0.79346  0.91963  1.0000
  H   H2099     1.0  0.87534  0.80285  0.93500  1.0000
  H   H2100     1.0  0.89832  0.78349  0.88030  1.0000
  H   H2101     1.0  0.85359  0.77716  0.86445  1.0000
  C   C1193     1.0  0.67738  0.66348  0.85628  1.0000
  C   C1194     1.0  0.68145  0.68297  0.84224  1.0000
  C   C1195     1.0  0.67370  0.67410  0.82241  1.0000
  C   C1196     1.0  0.66255  0.64578  0.81622  1.0000
  C   C1197     1.0  0.65926  0.62637  0.83020  1.0000
  C   C1198     1.0  0.66638  0.63516  0.85010  1.0000
  H   H2102     1.0  0.68978  0.70479  0.84671  1.0000
  H   H2103     1.0  0.67598  0.68926  0.81178  1.0000
  H   H2104     1.0  0.65046  0.60450  0.82575  1.0000
  H   H2105     1.0  0.66320  0.61987  0.86080  1.0000
  H   H2106     1.0  0.72960  0.93480  0.97694  1.0000
  H   H2107     1.0  0.95272  0.56188  0.90495  1.0000
  C   C1199     1.0  0.95539  0.72190  0.98189  1.0000
  C   C1200     1.0  0.85429  0.73408  0.97867  1.0000
  H   H2108     1.0  0.63609  0.86963  0.99572  1.0000
  H   H2109     1.0  0.94754  0.61435  0.83521  1.0000
  C   C1201     1.0  0.72621  0.75871  0.98702  1.0000
  C   C1202     1.0  0.74194  0.74457  0.98756  1.0000
  H   H2110     1.0  0.76704  0.63973  0.84161  1.0000
  C   C1203     1.0  0.79664  0.69155  0.85479  1.0000
  H   H2111     1.0  0.72266  0.76653  0.97346  1.0000
  H   H2112     1.0  0.85061  0.69724  0.85403  1.0000
  C   C1204     1.0  0.75725  0.90100  0.90973  1.0000
  C   C1205     1.0  0.76918  0.88414  0.91531  1.0000
  C   C1206     1.0  0.75306  0.85489  0.91477  1.0000
  C   C1207     1.0  0.72470  0.84223  0.90894  1.0000
  C   C1208     1.0  0.71257  0.85912  0.90378  1.0000
  C   C1209     1.0  0.72883  0.88838  0.90398  1.0000
  H   H2113     1.0  0.79106  0.89380  0.92006  1.0000
  H   H2114     1.0  0.76253  0.84216  0.91907  1.0000
  H   H2115     1.0  0.69063  0.84952  0.89923  1.0000
  H   H2116     1.0  0.71946  0.90112  0.89943  1.0000
  C   C1210     1.0  0.95588  0.71948  0.76422  1.0000
  H   H2117     1.0  0.57023  0.57205  0.77235  1.0000
  H   H2118     1.0  0.60699  0.55131  0.82073  1.0000
  S   S280      1.0  0.96448  0.77462  0.88440  1.0000
  C   C1211     1.0  0.84005  0.71825  0.91148  1.0000
  H   H2119     1.0  0.69411  0.92061  0.99576  1.0000
  H   H2120     1.0  0.60411  0.62357  0.95855  1.0000
  H   H2121     1.0  0.63670  0.87626  0.91590  1.0000
  C   C1212     1.0  0.97024  0.70205  0.75839  1.0000
  H   H2122     1.0  0.65274  0.64051  0.96511  1.0000
  H   H2123     1.0  0.96922  0.60496  0.88449  1.0000
  H   H2124     1.0  0.60988  0.66987  0.96052  1.0000
  C   C1213     1.0  0.72699  0.98225  0.99358  1.0000
  C   C1214     1.0  0.58712  0.62673  0.82603  1.0000
  H   H2125     1.0  0.71882  0.66290  0.94103  1.0000
  Fe  Fe140     1.0  0.95430  0.73144  0.93101  1.0000
  H   H2126     1.0  0.59818  0.59000  0.80302  1.0000
  C   C1215     1.0  0.65809  0.75183  0.95823  1.0000
  C   C1216     1.0  0.93940  0.64708  0.88947  1.0000
  H   H2127     1.0  0.73087  0.59730  0.82074  1.0000
  H   H2128     1.0  0.86354  0.69462  0.99713  1.0000
  C   C1217     1.0  0.67761  0.96708  0.99218  1.0000
  H   H2129     1.0  0.75930  0.72436  0.00604  1.0000
  C   C1218     1.0  0.58703  0.53204  0.81688  1.0000
  H   H2130     1.0  0.75572  0.69046  0.87514  1.0000
  H   H2131     1.0  0.69951  0.69365  0.94968  1.0000
  C   C1219     1.0  0.75117  0.64953  0.87843  1.0000
  H   H2132     1.0  0.76957  0.76678  0.84029  1.0000
  H   H2133     1.0  0.74053  0.91247  0.98822  1.0000
  H   H2134     1.0  0.70879  0.63170  0.88751  1.0000
  C   C1220     1.0  0.90831  0.78412  0.97137  1.0000
  C   C1221     1.0  0.84756  0.71425  0.84762  1.0000
  H   H2135     1.0  0.74153  0.82740  0.97672  1.0000
  H   H2136     1.0  0.53773  0.54413  0.82686  1.0000
  H   H2137     1.0  0.79308  0.73913  0.84873  1.0000
  C   C1222     1.0  0.86734  0.73604  0.94446  1.0000
  H   H2138     1.0  0.83611  0.81190  0.84285  1.0000
  H   H2139     1.0  0.79099  0.94741  0.98480  1.0000
  H   H2140     1.0  0.85260  0.73090  0.85911  1.0000
  C   C1223     1.0  0.66145  0.66143  0.00434  1.0000
  H   H2141     1.0  0.80138  0.96164  0.96139  1.0000
  C   C1224     1.0  0.65449  0.88826  0.00266  1.0000
  H   H2142     1.0  0.59304  0.96034  0.78439  1.0000
  H   H2143     1.0  0.64826  0.65715  0.94448  1.0000
  C   C1225     1.0  0.65942  0.66132  0.95920  1.0000
  H   H2144     1.0  0.68104  0.76343  0.95759  1.0000
  C   C1226     1.0  0.55079  0.55912  0.77964  1.0000
  C   C1227     1.0  0.69091  0.67320  0.95632  1.0000
  N   N66       1.0  0.65140  0.67919  0.97175  1.0000
  H   H2145     1.0  0.85906  0.73061  0.90371  1.0000
  C   C1228     1.0  0.73047  0.64158  0.89421  1.0000
  H   H2146     1.0  0.65839  0.91141  0.92590  1.0000
  H   H2147     1.0  0.70285  0.67559  0.97040  1.0000
  Fe  Fe141     1.0  0.72694  0.98732  0.93172  1.0000
  H   H2148     1.0  0.93302  0.70587  0.76382  1.0000
  H   H2149     1.0  0.96953  0.67325  0.81641  1.0000
  C   C1229     1.0  0.65971  0.70620  0.96177  1.0000
  H   H2150     1.0  0.88579  0.64212  0.91745  1.0000
  C   C1230     1.0  0.97438  0.64793  0.86856  1.0000
  H   H2151     1.0  0.51740  0.54624  0.80680  1.0000
  N   N67       1.0  0.80378  0.86111  0.86598  1.0000
  C   C1231     1.0  0.82248  0.89157  0.86269  1.0000
  C   C1232     1.0  0.80795  0.84260  0.85122  1.0000
  C   C1233     1.0  0.77406  0.85589  0.86285  1.0000
  C   C1234     1.0  0.80796  0.85373  0.88641  1.0000
  C   C1235     1.0  0.83772  0.85958  0.89328  1.0000
  C   C1236     1.0  0.82009  0.91301  0.87671  1.0000
  C   C1237     1.0  0.75107  0.82519  0.86399  1.0000
  C   C1238     1.0  0.83780  0.85276  0.84463  1.0000
  C   C1239     1.0  0.84015  0.85642  0.91518  1.0000
  C   C1240     1.0  0.84111  0.94292  0.87266  1.0000
  C   C1241     1.0  0.72245  0.82179  0.85737  1.0000
  H   H2152     1.0  0.81831  0.89611  0.84753  1.0000
  H   H2153     1.0  0.84471  0.89672  0.86374  1.0000
  H   H2154     1.0  0.80062  0.82134  0.85670  1.0000
  H   H2155     1.0  0.79480  0.83945  0.83750  1.0000
  H   H2156     1.0  0.77086  0.86333  0.84845  1.0000
  H   H2157     1.0  0.76935  0.86794  0.87392  1.0000
  H   H2158     1.0  0.80113  0.86448  0.89697  1.0000
  H   H2159     1.0  0.79438  0.83108  0.88823  1.0000
  H   H2160     1.0  0.85362  0.88098  0.89038  1.0000
  H   H2161     1.0  0.84261  0.84421  0.88596  1.0000
  H   H2162     1.0  0.79919  0.91166  0.87493  1.0000
  H   H2163     1.0  0.82424  0.90976  0.89211  1.0000
  H   H2164     1.0  0.75018  0.81890  0.87924  1.0000
  H   H2165     1.0  0.75470  0.81046  0.85473  1.0000
  H   H2166     1.0  0.84314  0.87031  0.83487  1.0000
  H   H2167     1.0  0.85374  0.86018  0.85698  1.0000
  H   H2168     1.0  0.83720  0.87253  0.92339  1.0000
  H   H2169     1.0  0.82434  0.83542  0.91907  1.0000
  H   H2170     1.0  0.86111  0.85895  0.91956  1.0000
  H   H2171     1.0  0.86273  0.94620  0.87506  1.0000
  H   H2172     1.0  0.83757  0.94764  0.85748  1.0000
  H   H2173     1.0  0.83858  0.95770  0.88272  1.0000
  H   H2174     1.0  0.72151  0.82580  0.84169  1.0000
  H   H2175     1.0  0.70622  0.80013  0.85959  1.0000
  H   H2176     1.0  0.71774  0.83636  0.86597  1.0000
  N   N68       1.0  0.70758  0.89215  0.96522  1.0000
  H   H2177     1.0  0.65884  0.73383  0.98544  1.0000
  C   C1242     1.0  0.71330  0.86891  0.95841  1.0000
  C   C1243     1.0  0.73376  0.91701  0.97383  1.0000
  C   C1244     1.0  0.69637  0.90129  0.94792  1.0000
  C   C1245     1.0  0.66701  0.87986  0.93899  1.0000
  H   H2178     1.0  0.90939  0.75108  0.98667  1.0000
  C   C1246     1.0  0.75887  0.92839  0.96094  1.0000
  C   C1247     1.0  0.81769  0.70302  0.83883  1.0000
  C   C1248     1.0  0.71470  0.76235  0.00401  1.0000
  C   C1249     1.0  0.65815  0.89147  0.92157  1.0000
  H   H2179     1.0  0.54171  0.98558  0.79254  1.0000
  H   H2180     1.0  0.93812  0.66304  0.88021  1.0000
  H   H2181     1.0  0.66669  0.86029  0.93376  1.0000
  H   H2182     1.0  0.72711  0.66445  0.86092  1.0000
  H   H2183     1.0  0.69363  0.85033  0.95290  1.0000
  H   H2184     1.0  0.72625  0.87506  0.94569  1.0000
  H   H2185     1.0  0.95553  0.65893  0.90144  1.0000
  C   C1250     1.0  0.96532  0.73193  0.78508  1.0000
  H   H2186     1.0  0.69600  0.92114  0.95159  1.0000
  H   H2187     1.0  0.71059  0.90641  0.93596  1.0000
  C   C1251     1.0  0.67664  0.90194  0.98811  1.0000
  C   C1252     1.0  0.78400  0.95350  0.97116  1.0000
  H   H2188     1.0  0.58362  0.57684  0.82536  1.0000
  S   S281      1.0  0.72308  0.57621  0.77137  1.0000
  H   H2189     1.0  0.75361  0.93537  0.94709  1.0000
  H   H2190     1.0  0.76538  0.91241  0.95753  1.0000
  S   S282      1.0  0.64797  0.56078  0.78072  1.0000
  H   H2191     1.0  0.77195  0.74865  0.81883  1.0000
  H   H2192     1.0  0.80092  0.67586  0.86217  1.0000
  H   H2193     1.0  0.56324  0.62894  0.96789  1.0000
  H   H2194     1.0  0.80211  0.70868  0.86609  1.0000
  H   H2195     1.0  0.90014  0.70987  0.99360  1.0000
  H   H2196     1.0  0.56784  0.61120  0.79748  1.0000
  H   H2197     1.0  0.73920  0.73605  0.83012  1.0000
  H   H2198     1.0  0.82814  0.69648  0.93775  1.0000
  C   C1253     1.0  0.72719  0.85833  0.97396  1.0000
  S   S283      1.0  0.94695  0.70596  0.95799  1.0000
  C   C1254     1.0  0.64960  0.72624  0.97041  1.0000
  Fe  Fe142     1.0  0.68107  0.57090  0.75957  1.0000
  C   C1255     1.0  0.97104  0.76260  0.00414  1.0000
  H   H2199     1.0  0.88190  0.66118  0.00109  1.0000
  C   C1256     1.0  0.90316  0.75353  0.97154  1.0000
  H   H2200     1.0  0.90096  0.66576  0.89846  1.0000
  H   H2201     1.0  0.64831  0.74553  0.94315  1.0000
  H   H2202     1.0  0.91820  0.75146  0.96215  1.0000
  S   S284      1.0  0.69851  0.97591  0.95671  1.0000
  C   C1257     1.0  0.79200  0.57028  0.75905  1.0000
  H   H2203     1.0  0.66088  0.69994  0.00048  1.0000
  H   H2204     1.0  0.89382  0.56044  0.84154  1.0000
  C   C1258     1.0  0.76218  0.74587  0.83291  1.0000
  C   C1259     1.0  0.59357  0.50776  0.81482  1.0000
  H   H2205     1.0  0.90874  0.58108  0.89627  1.0000
  C   C1260     1.0  0.72716  0.63422  0.82941  1.0000
  H   H2206     1.0  0.69628  0.87667  0.99378  1.0000
  C   C1261     1.0  0.57741  0.96773  0.78175  1.0000
  S   S285      1.0  0.97620  0.77797  0.93222  1.0000
  H   H2207     1.0  0.94447  0.68331  0.99579  1.0000
  H   H2208     1.0  0.75025  0.84592  0.95470  1.0000
  C   C1262     1.0  0.57816  0.58021  0.81022  1.0000
  H   H2209     1.0  0.68850  0.63292  0.94856  1.0000
  N   N69       1.0  0.94763  0.62886  0.87753  1.0000
  C   C1263     1.0  0.92562  0.61394  0.86108  1.0000
  H   H2210     1.0  0.97067  0.66096  0.85782  1.0000
  H   H2211     1.0  0.85847  0.75073  0.94420  1.0000
  H   H2212     1.0  0.68272  0.71865  0.96206  1.0000
  H   H2213     1.0  0.81335  0.57917  0.76498  1.0000
  H   H2214     1.0  0.89245  0.66568  0.97654  1.0000
  H   H2215     1.0  0.68560  0.65186  0.92797  1.0000
  H   H2216     1.0  0.91634  0.54334  0.90938  1.0000
  C   C1264     1.0  0.75872  0.65298  0.83494  1.0000
  H   H2217     1.0  0.94239  0.82646  0.97369  1.0000
  H   H2218     1.0  0.57899  0.97515  0.76676  1.0000
  H   H2219     1.0  0.77229  0.65803  0.88587  1.0000
  H   H2220     1.0  0.73270  0.62646  0.90373  1.0000
  H   H2221     1.0  0.69952  0.59735  0.81122  1.0000
  H   H2222     1.0  0.81627  0.72027  0.83148  1.0000
  H   H2223     1.0  0.89408  0.61870  0.88930  1.0000
  H   H2224     1.0  0.60835  0.63761  0.82078  1.0000
  H   H2225     1.0  0.66747  0.90889  0.97610  1.0000
  C   C1265     1.0  0.74932  0.67157  0.86540  1.0000
  C   C1266     1.0  0.60462  0.63267  0.97328  1.0000
  H   H2226     1.0  0.71305  0.84842  0.98567  1.0000
  H   H2227     1.0  0.91420  0.61945  0.91132  1.0000
  C   C1267     1.0  0.72222  0.61061  0.81477  1.0000
  C   C1268     1.0  0.92760  0.57991  0.89253  1.0000
  H   H2228     1.0  0.89975  0.78822  0.95767  1.0000
  H   H2229     1.0  0.76052  0.72672  0.85989  1.0000
  C   C1269     1.0  0.93938  0.80481  0.97381  1.0000
  H   H2230     1.0  0.74652  0.63011  0.86992  1.0000
  C   C1270     1.0  0.77345  0.57793  0.76742  1.0000
  H   H2231     1.0  0.55634  0.94982  0.78282  1.0000
  H   H2232     1.0  0.60768  0.51114  0.80297  1.0000
  H   H2233     1.0  0.92212  0.66750  0.92011  1.0000
  H   H2234     1.0  0.86120  0.83749  0.82821  1.0000
  H   H2235     1.0  0.61466  0.62449  0.98375  1.0000
  H   H2236     1.0  0.76918  0.70130  0.82175  1.0000
  H   H2237     1.0  0.94441  0.58786  0.85147  1.0000
  C   C1271     1.0  0.90779  0.57761  0.83264  1.0000
  H   H2238     1.0  0.51024  0.52340  0.77076  1.0000
  C   C1272     1.0  0.83996  0.82942  0.83333  1.0000
  H   H2239     1.0  0.54662  0.59310  0.81697  1.0000
  H   H2240     1.0  0.95030  0.80171  0.96160  1.0000
  N   N70       1.0  0.76629  0.67871  0.84784  1.0000
  C   C1273     1.0  0.58286  0.99110  0.79686  1.0000
  H   H2241     1.0  0.88674  0.74663  0.93666  1.0000
  C   C1274     1.0  0.90487  0.65324  0.90950  1.0000
  Fe  Fe143     1.0  0.90222  0.59102  0.76912  1.0000
  H   H2242     1.0  0.86237  0.72317  0.83610  1.0000
  C   C1275     1.0  0.74709  0.73524  0.00542  1.0000
  N   N71       1.0  0.87390  0.73125  0.96530  1.0000
  H   H2243     1.0  0.76886  0.65896  0.82097  1.0000
  S   S286      1.0  0.97697  0.72721  0.90580  1.0000
  H   H2244     1.0  0.66857  0.86142  0.97556  1.0000
  H   H2245     1.0  0.78068  0.59275  0.77983  1.0000
  H   H2246     1.0  0.57908  0.64200  0.82705  1.0000
  H   H2247     1.0  0.92045  0.62898  0.85360  1.0000
  H   H2248     1.0  0.94871  0.80222  0.98781  1.0000
  H   H2249     1.0  0.85460  0.75453  0.97704  1.0000
  H   H2250     1.0  0.80763  0.73666  0.99064  1.0000
  C   C1276     1.0  0.68695  0.88154  0.98066  1.0000
  H   H2251     1.0  0.71580  0.62460  0.84238  1.0000
  C   C1277     1.0  0.53238  0.53845  0.81099  1.0000
  H   H2252     1.0  0.73737  0.68979  0.83283  1.0000
  H   H2253     1.0  0.58976  0.54533  0.78740  1.0000
  C   C1278     1.0  0.77015  0.72800  0.84593  1.0000
  H   H2254     1.0  0.81392  0.68639  0.82766  1.0000
  H   H2255     1.0  0.68934  0.69892  0.99049  1.0000
  H   H2256     1.0  0.67227  0.89510  0.90970  1.0000
  H   H2257     1.0  0.74698  0.87553  0.98062  1.0000
  H   H2258     1.0  0.49112  0.50190  0.83376  1.0000
  C   C1279     1.0  0.84772  0.70997  0.93103  1.0000
  H   H2259     1.0  0.73429  0.66032  0.90333  1.0000
  C   C1280     1.0  0.76018  0.69860  0.83617  1.0000
  C   C1281     1.0  0.87351  0.70336  0.96654  1.0000
  H   H2260     1.0  0.85318  0.68603  0.96081  1.0000
  H   H2261     1.0  0.88916  0.70270  0.95705  1.0000
  C   C1282     1.0  0.80614  0.71557  0.99093  1.0000
  H   H2262     1.0  0.65204  0.70171  0.94610  1.0000
  Fe  Fe144     1.0  0.64766  0.59986  0.77156  1.0000
  H   H2263     1.0  0.53990  0.57191  0.78060  1.0000
  C   C1283     1.0  0.93346  0.59883  0.84509  1.0000
  C   C1284     1.0  0.73380  0.83633  0.96506  1.0000
  C   C1285     1.0  0.70198  0.97557  0.98253  1.0000
  H   H2264     1.0  0.89835  0.78863  0.98361  1.0000
  H   H2265     1.0  0.65824  0.96193  0.98393  1.0000
  N   N72       1.0  0.55806  0.55269  0.79969  1.0000
  H   H2266     1.0  0.85832  0.69735  0.92791  1.0000
  C   C1286     1.0  0.96495  0.75052  0.98507  1.0000
  H   H2267     1.0  0.71773  0.64630  0.82258  1.0000
  H   H2268     1.0  0.66462  0.64534  0.99642  1.0000
  H   H2269     1.0  0.82903  0.73071  0.91363  1.0000
  H   H2270     1.0  0.56608  0.98299  0.85546  1.0000
  C   C1287     1.0  0.51631  0.50598  0.80926  1.0000
  H   H2271     1.0  0.65110  0.87474  0.94972  1.0000
  C   C1288     1.0  0.62018  0.66506  0.97319  1.0000
  H   H2272     1.0  0.89615  0.58781  0.82605  1.0000
  H   H2273     1.0  0.96410  0.70088  0.84356  1.0000
  H   H2274     1.0  0.92223  0.56689  0.87876  1.0000
  C   C1289     1.0  0.95275  0.60914  0.89019  1.0000
  H   H2275     1.0  0.51236  0.49752  0.79401  1.0000
  H   H2276     1.0  0.53944  0.51868  0.76421  1.0000
  H   H2277     1.0  0.96128  0.61918  0.90501  1.0000
  H   H2278     1.0  0.78390  0.69986  0.98798  1.0000
  C   C1290     1.0  0.93437  0.56441  0.90839  1.0000
  H   H2279     1.0  0.81336  0.71263  0.00565  1.0000
  C   C1291     1.0  0.53152  0.53390  0.76562  1.0000
  H   H2280     1.0  0.70213  0.77287  0.00339  1.0000
  C   C1292     1.0  0.57313  0.53570  0.79771  1.0000
  C   C1293     1.0  0.57450  0.62193  0.97839  1.0000
  H   H2281     1.0  0.85586  0.65010  0.98096  1.0000
  H   H2282     1.0  0.57352  0.52825  0.82914  1.0000
  H   H2283     1.0  0.96009  0.71512  0.79548  1.0000
  H   H2284     1.0  0.60398  0.50607  0.82862  1.0000
  H   H2285     1.0  0.77876  0.97041  0.97463  1.0000
  H   H2286     1.0  0.74600  0.98896  0.98631  1.0000
  C   C1294     1.0  0.82332  0.71192  0.97540  1.0000
  S   S287      1.0  0.57993  0.49431  0.76097  1.0000
  H   H2287     1.0  0.82055  0.69043  0.97596  1.0000
  H   H2288     1.0  0.93868  0.57591  0.92275  1.0000
  S   S288      1.0  0.70653  0.98806  0.85609  1.0000
  H   H2289     1.0  0.69053  0.98678  0.81552  1.0000
  H   H2290     1.0  0.62664  0.71596  0.97074  1.0000
  H   H2291     1.0  0.55913  0.51463  0.79098  1.0000
  C   C1295     1.0  0.87905  0.69519  0.98714  1.0000
  H   H2292     1.0  0.58833  0.61941  0.84079  1.0000
  H   H2293     1.0  0.52842  0.49722  0.81715  1.0000
  H   H2294     1.0  0.56366  0.59874  0.97778  1.0000
  H   H2295     1.0  0.95450  0.74403  0.78904  1.0000
  H   H2296     1.0  0.96293  0.68489  0.76867  1.0000
  C   C1296     1.0  0.66659  0.68628  0.99168  1.0000
  H   H2297     1.0  0.57381  0.62954  0.99336  1.0000
  H   H2298     1.0  0.91433  0.56852  0.82064  1.0000
  H   H2299     1.0  0.86144  0.73449  0.99417  1.0000
  H   H2300     1.0  0.57927  0.98150  0.81115  1.0000
  H   H2301     1.0  0.77307  0.67316  0.76204  1.0000
  H   H2302     1.0  0.74761  0.63705  0.76321  1.0000
  H   H2303     1.0  0.98202  0.63549  0.86018  1.0000
  H   H2304     1.0  0.97842  0.78478  0.00636  1.0000
