data_image0
_chemical_formula_structural       H3FeS2FeSFeHSFeH3CH2C2HC2HCH2FeC2H2C2HCHCSC3H3CNSHCH2CH5C2H2SCHCHSCH4CH2SHSC3HCH4CH3CHC2HC2SH2CHSCH4C3H6CSNCH3SHCH2C2H2SHCFeH5CH2CSH2CNHCH2CH4CH2FeC4NH2CH4CHC3H5CHCH5NH2C2H2C2HSHCHCHCH2CH14CH2S2CHSCH4CSC2Fe2H3SFeCH3S2HFeHCH3SH3FeC4H6C3H4CHSHCHC2FeHCHCH2FeC2H2CH3CHCHFeHSCHC2NSHC3H4C2HCHC3HCHC3H7CH8CHNHCH6SH2CH2CH3CH2CH2C3HC3HSHCHSCHC4HC2H2CNH3CH5CHCSH4CH7FeSFeCHCHCH3CH5C2H2C2HNH3CH5CHS2HC3H2CH3NHFeH3CNHC2HSCHCHCH2SH4CH3CH2SH4CHCH2CHCHCH2C2HC2H2CH9CH5CHCH3FeC2HCH2SCH4CH2CH2CH5FeSHCHSCHCSCHCH2FeCH2C2NCH2CH4CH4CHCFeHC2HC3H6SCSC2FeCSH2FeH2C3HNH2CH5CHCH3CHSHC2HSHCHCH5Fe2HCH5CHSCH5CH3CH2CSNSC2HCHCHCFeC2H6C3H6CH2CHCH3CSFeH2CNCH2SH5CHC3HC3H2C2SH6CHFe2SCH2CH2C2HCFeHC2HC2H2SCHCHSCHFeCHFeC3HSHCHS2C2HS2H6C3HCH2CH2CSH7CH3C2H2CHCH6C5SH4CNH3CH2CH3CSC3SCHCH2SCH5SC2HCFe2S2FeS2FeSFeHSH2FeSHFeSHFeSFeSH2CH3C2HCH6CHC2H2C6H10C2HCH5CH5C2HSCH2C2HCH4SH4C2H2SHCH2NC2HCHCHC2H2SC3H9CHNCH3CH2SCHCSHC2H5SH4C2H2CH2NC11H24SCH2CH2CH3C2HC2H2SH9C2HFeH2CHCHC2H6NHCH2CH2C2HCH2C2SCH2CH5C2HC2H2CH2CH2C5HCH2CH3CHCHCHNH2S2H2CH2C2NH5CNHCH2C2H3C2H4C3HC2SH2CH3CH2Fe2SC2HC2SHFeSCFeSFeSFeS3FeSCFeCFeHFeSFeSHCH3FeNFeH2SCHCFeCSH3C2SHCH5C6HSH5NCH3C2SH3C2SH5CHCH4C3NC11H27C2HCH4CH3NSHC2H5CH3CHCH2NHC10H3CH6SH2CHCH3C2H2CHCHC3H2CHC2H2CHCH4SC2SCH2CH4CNHSH2C3HC2HSH2CHSH4CSH2CH6CH4CH4NHCHCH5SHC4H2C4HCSH2C2H2CH2CH2CHFeH3CH2SH8CHCH2CHCH2CH4C3H3C3H2SHC2H4CSH2C2H2C4H4CHC3H2C2H5CH2CH4CH2CH3CHCHCSH3C4HCHFeSHFeSFeSFeS3FeS2FeS2FeHFeSHSFeSCFeSCFeCFeSHSFeS2FeH3FeHS2C2SC2H2CHC2H3C2H6C3HC7H4C2HCHSHC6H4C2HCHCH3C3H3C2H5NH2CH4CHSH2CH6C3H2NH2CH5SNC6H10CH4CHCH4CH2CH3C3H2CH4CH3CH3SC2H3CH3CH3CHCNC4HC2H2C2H14CH7CHCH4CHC2HCH2C3H3CH6CHC2H2CH8C3H2C2HCH2CH2CH2C2HCSCH4CH3C2HC2H4NH3CSH3C3FeHC2H2CHCH4C2HNHCH7CSCHCHSHNCH2CH3CH2CHCH2FeSH2C2FeSCSHFeSCFeSHFeNFeSHSFeS2FeSHFeCFeCS2CSH2FeSCHC3SH2CHS2H3C2HCH2CNH2CH2CH2CHC2H3CHNH4C7H4C5HCHCNHCHSHC3HCHCH8NC12H24CHCH3C2H2SCHCH2C3H3CH5CHC2H6CHCHSH2CHCHC2H2CH16C2H2CSHSH2CH3CHCH4CHC2HCH9CH2SHC2H2CH3FeH2CHC2NHCH5CSHCH2FeH3CHNC2HFeS2FeSCFeSFeS2FeS2CHFeHFeCS2FeS2FeH3FeHCSFeS2FeSCFeSFeCSH2CH2C2H3C7H4CH2C3HCFeH2C9H4CSH7SNCHC5HNCHCHCHSH9CHFeH11CH2C2H3CH3CH4C2H5NH2CH4CH4SCSH3CH2CHSHCH2NC12H32CH3SH4C2SHC2HC3HCSHC3HSCHCH3CH3CH2CHSH2C3H2CH11CHCHC4H2FeS2FeH2FeHFeS3CFeSC2H2CH2FeS2FeSFeSFeHS2HCH5FeCSC3HCH2C4H2CHC3HC2H3C3H3C7H5CH3C2HSCHCHCH2SH2NHFeH3CH2C2H3NC2HCHCH17CH2CH2CH2NC11H23CSH2C2H3C2H2CSH3CH2CSCHCHCHC2H8SH2C3HCH6CH4C3H3CH4CHCHNH7CH3SH3CH3CH2CH2CH4CHC5H7C4H10CSCHC2H3CH3S2H2C4H2C5FeS2FeHCFeCFeHS2H2S2HFeH2FeS2FeHCFeHFeHS2H3SCFeC2SH3CH2CH4CHSHC3H3SH2FeHCH3CH3CH3C6H6C3SH5C2H2C2SH2CHCH5SCH3CSH6CH2C3NCH2C2H2CH5CH3CHCH2CH3C2H4CH3NCHCH4C4H4CHCSH9CH3C2NC3HC5HC2H2CH3C2HCH8CH5CH3NHCH2CH3NH2C2H2C2HSCNC2H2SFeS2FeSHFeSFeS3FeHS2CHFeHSFeSCFeSHFeSFeSHSFeS2FeCSFeHSCH2C4H6C2HCHCHNHC2HCNC2H3C3H4CHC2H2SH5C6H7CHCH6CH3CHC2H4C2H2CH6CH2NH3CNH2C2H2CH2C3H2CH2CH8C2H6CH3CH2C2H2CHC3H3CSH3NH5CHC2HNHCSHCHCH2CNHC2HC5H3CH2CH5CHCH2CH7C2HCHSC2HCH2C5H9CH2CFeHCHCH8CH3CH3CH2C2HC3H2SCSH4CH3C3H3CH2NH2CHCHCHCHCHCHCSHCNCH3C2H5CH2CSH2SC3H4CH2C2H2SHCH2CHSH3FeSHFeH2FeCSFeSCH4C3H2FeSHFeSCFeHSCHCH3FeS2HC2H4CH6C3HNCH2CH2CH4C4HCH3CH5C2HCHCHC3SFeC2SC6H2CHCHCHCHC2H3CS2HC3H12CSH9CHCH2CH4C3FeH6CH4FeCH2NCH3SHCHC2H2CHCSCH3NC2HC2HC4H3C2HFeH2C2H3CH3C2H3CFeCH3FeH2CH3CHCHCNHCH5SCH4C2H4C4H2CHCHCSH3SH2CH6C2HSCHC2HC4HCH2CSH2NHCH3CH2CH2CH2SH2CH2C3H3SHC2H2NHCH4C2H2CH2CH2SC2SCH2CHCHS2H2CH2C2H2C4H3CHNCHCH4CHCHCH4CH2C3H2C2H3FeHCH4CFeHSHCH2SH4FeS2FeSHFeCFeS3HSCFeS2FeHFeSFeS3HCHCH2CHNC5H2C2H3C2H6CH2CHC2H2C4HC6H5C2H4CH2CSHCHC2H3SC2H3C2HCHCSH3CHCH6CNH3C3H7C2H2C2H2SCH6C2H2CHC2H2C3H4C2H3CNCHCH3CSH4C2H2C4H3CH13C3H5CHCH2CH4CH2CH2CHCH5CFeC2H3CHCH9CH3CH2C2H8C2H3C2H2CSCNCHCH4CFeH9C2HCHCH2CH2CHSHCH8C2HC3FeS2FeSCFe2S2FeS2FeS2FeSHFeSFeS2H2FeHSHSH2SHSCFeCH4CH2CNHC2HCH2C8FeH3C2H3C2H6CH3C4H2C6H5CSHC2HC2HCH2SH2SHCH2CS2CH2CHSH2FeCH3CHCH5C2SNH3C2HCH5SCNC10SCHCH14C3H4C2H5CH3CH3CSH2CH5CH3CHC2HCH2CHCSC2H2CHSH3C2HC2H2C3HCH3FeH3CHC2H2NSCHCHC2H5CH5CH2NH5C2H2CHCH4CH4CHCH3C3NFeH3C3H9NCH2CH2SCH9NHCH2CHC2HC3HCHC3HCH4CH2SH6CHCH5CHCHSCH5CH6CH5C2HCH3CH3CHFeHNH2CH6CHCHCHNCFeS2FeSHFeCFeS2HFeS2FeSHFeSFeS3H2CH3C7H4C2H4C2HC4H2CH6CHCH12CH3CH2CH3SCH5CHC2HCH6CH9C2HCHCHCHCH2C4H3CHCH2C2NCHCH7CHNH2CH8CSHCNCH5C2HC2HCHC3H2CHC2HSCH2CH3CH3CHCHC2HFeSH2SCSFeH2CHS2CHC2H4NC2H5CHCH2SC2H3SCHCH3CNH4CSHCH8SHCH2CHC3HNCH4C2HCH3CH2CH2CHC2HCHCHC2HC2HCHCH15C2H3CH2C2HCH2C2HC2H2CHCH2C2FeH4CH2NH3SH2CH4CHSHC2H4CH3CNHCHCHC4H10
_chemical_formula_sum              "H3072 Fe192 S384 C1728 N96"
_cell_length_a       78.671
_cell_length_b       77.867
_cell_length_c       37.4522
_cell_angle_alpha    88.5614
_cell_angle_beta     88.788
_cell_angle_gamma    111.157

_space_group_name_H-M_alt    "P 1"
_space_group_IT_number       1

loop_
  _space_group_symop_operation_xyz
  'x, y, z'

loop_
  _atom_site_type_symbol
  _atom_site_label
  _atom_site_symmetry_multiplicity
  _atom_site_fract_x
  _atom_site_fract_y
  _atom_site_fract_z
  _atom_site_occupancy
  H   H1        1.0  0.31163  0.15183  0.43769  1.0000
  H   H2        1.0  0.31667  0.00505  0.43841  1.0000
  H   H3        1.0  0.12968  0.24219  0.04531  1.0000
  Fe  Fe1       1.0  0.45812  0.16381  0.42445  1.0000
  S   S1        1.0  0.45694  0.19112  0.40720  1.0000
  S   S2        1.0  0.43025  0.14067  0.42919  1.0000
  Fe  Fe2       1.0  0.32323  0.22973  0.04652  1.0000
  S   S3        1.0  0.31228  0.19784  0.04378  1.0000
  Fe  Fe3       1.0  0.46486  0.17200  0.03675  1.0000
  H   H4        1.0  0.44527  0.23782  0.18273  1.0000
  S   S4        1.0  0.46553  0.18968  0.08395  1.0000
  Fe  Fe4       1.0  0.48316  0.17593  0.10978  1.0000
  H   H5        1.0  0.39240  0.22338  0.36154  1.0000
  H   H6        1.0  0.42655  0.24188  0.45833  1.0000
  H   H7        1.0  0.25275  0.23519  0.13683  1.0000
  C   C1        1.0  0.36694  0.22829  0.18345  1.0000
  H   H8        1.0  0.32937  0.00059  0.40147  1.0000
  H   H9        1.0  0.35283  0.02668  0.48077  1.0000
  C   C2        1.0  0.33049  0.00615  0.42872  1.0000
  C   C3        1.0  0.47455  0.16636  0.24007  1.0000
  H   H10       1.0  0.33519  0.11015  0.07583  1.0000
  C   C4        1.0  0.43045  0.22967  0.18639  1.0000
  C   C5        1.0  0.31820  0.07205  0.42994  1.0000
  H   H11       1.0  0.38393  0.24177  0.35397  1.0000
  C   C6        1.0  0.39681  0.19333  0.45873  1.0000
  H   H12       1.0  0.33812  0.03398  0.40849  1.0000
  H   H13       1.0  0.36648  0.20234  0.16058  1.0000
  Fe  Fe5       1.0  0.47809  0.20239  0.44818  1.0000
  C   C7        1.0  0.31271  0.15011  0.49509  1.0000
  C   C8        1.0  0.38417  0.21441  0.48572  1.0000
  H   H14       1.0  0.39224  0.15201  0.02189  1.0000
  H   H15       1.0  0.43084  0.19492  0.04932  1.0000
  C   C9        1.0  0.41590  0.13560  0.46822  1.0000
  C   C10       1.0  0.26076  0.23900  0.41021  1.0000
  H   H16       1.0  0.24554  0.22522  0.45739  1.0000
  C   C11       1.0  0.31808  0.18839  0.49123  1.0000
  H   H17       1.0  0.36607  0.16918  0.41488  1.0000
  C   C12       1.0  0.36888  0.18350  0.40521  1.0000
  S   S5        1.0  0.32072  0.21219  0.49078  1.0000
  C   C13       1.0  0.41948  0.24186  0.17770  1.0000
  C   C14       1.0  0.31622  0.17843  0.46001  1.0000
  C   C15       1.0  0.31343  0.15943  0.46199  1.0000
  H   H18       1.0  0.31649  0.18525  0.43437  1.0000
  H   H19       1.0  0.38898  0.08425  0.48313  1.0000
  H   H20       1.0  0.39262  0.10693  0.04612  1.0000
  C   C16       1.0  0.48196  0.24436  0.37968  1.0000
  N   N1        1.0  0.37917  0.19586  0.46879  1.0000
  S   S6        1.0  0.30885  0.24219  0.41092  1.0000
  H   H21       1.0  0.32453  0.12046  0.04398  1.0000
  C   C17       1.0  0.48454  0.20455  0.23953  1.0000
  H   H22       1.0  0.33196  0.03023  0.47895  1.0000
  H   H23       1.0  0.43449  0.20124  0.46106  1.0000
  C   C18       1.0  0.34568  0.03427  0.46540  1.0000
  H   H24       1.0  0.24858  0.23528  0.39339  1.0000
  H   H25       1.0  0.48085  0.23289  0.39884  1.0000
  H   H26       1.0  0.40680  0.07929  0.41221  1.0000
  H   H27       1.0  0.14925  0.23626  0.03307  1.0000
  H   H28       1.0  0.35282  0.14337  0.06831  1.0000
  C   C19       1.0  0.47515  0.17538  0.27249  1.0000
  C   C20       1.0  0.48516  0.24390  0.49024  1.0000
  H   H29       1.0  0.33427  0.19011  0.14579  1.0000
  H   H30       1.0  0.45405  0.23327  0.36515  1.0000
  S   S7        1.0  0.48228  0.20667  0.31270  1.0000
  C   C21       1.0  0.36811  0.22083  0.49495  1.0000
  H   H31       1.0  0.42142  0.17031  0.05701  1.0000
  C   C22       1.0  0.39876  0.23076  0.18146  1.0000
  H   H32       1.0  0.35383  0.19327  0.44372  1.0000
  S   S8        1.0  0.35206  0.24236  0.06509  1.0000
  C   C23       1.0  0.41799  0.18294  0.05464  1.0000
  H   H33       1.0  0.26728  0.22864  0.40655  1.0000
  H   H34       1.0  0.30717  0.13538  0.00901  1.0000
  H   H35       1.0  0.26391  0.05330  0.03107  1.0000
  H   H36       1.0  0.32128  0.23629  0.18182  1.0000
  C   C24       1.0  0.48031  0.19456  0.27243  1.0000
  H   H37       1.0  0.37484  0.05631  0.42346  1.0000
  H   H38       1.0  0.42697  0.21786  0.16831  1.0000
  S   S9        1.0  0.47995  0.16560  0.38264  1.0000
  H   H39       1.0  0.31075  0.22348  0.24328  1.0000
  S   S10       1.0  0.47839  0.17493  0.46743  1.0000
  C   C25       1.0  0.32751  0.24404  0.20473  1.0000
  C   C26       1.0  0.36469  0.17786  0.01351  1.0000
  C   C27       1.0  0.48382  0.19551  0.20707  1.0000
  H   H40       1.0  0.42198  0.23035  0.39711  1.0000
  C   C28       1.0  0.41486  0.13080  0.02469  1.0000
  H   H41       1.0  0.33144  0.21119  0.15766  1.0000
  H   H42       1.0  0.34383  0.14456  0.00094  1.0000
  H   H43       1.0  0.37083  0.11368  0.49268  1.0000
  H   H44       1.0  0.33610  0.19672  0.19178  1.0000
  C   C29       1.0  0.39785  0.11617  0.02310  1.0000
  H   H45       1.0  0.32145  0.05851  0.47856  1.0000
  H   H46       1.0  0.30686  0.15927  0.05163  1.0000
  H   H47       1.0  0.33776  0.10705  0.02891  1.0000
  C   C30       1.0  0.25504  0.23921  0.44939  1.0000
  H   H48       1.0  0.35234  0.08023  0.45081  1.0000
  C   C31       1.0  0.35477  0.18303  0.37740  1.0000
  C   C32       1.0  0.35957  0.21239  0.15706  1.0000
  H   H49       1.0  0.40156  0.19408  0.02393  1.0000
  C   C33       1.0  0.35858  0.17898  0.05259  1.0000
  C   C34       1.0  0.26571  0.05544  0.00160  1.0000
  S   S11       1.0  0.30845  0.12590  0.49603  1.0000
  H   H50       1.0  0.37327  0.21045  0.42325  1.0000
  H   H51       1.0  0.39447  0.18100  0.44258  1.0000
  C   C35       1.0  0.40701  0.08278  0.44081  1.0000
  H   H52       1.0  0.34970  0.06483  0.41580  1.0000
  S   S12       1.0  0.48059  0.15664  0.06405  1.0000
  C   C36       1.0  0.47891  0.17635  0.20718  1.0000
  H   H53       1.0  0.35979  0.22071  0.47139  1.0000
  H   H54       1.0  0.35576  0.17426  0.35510  1.0000
  H   H55       1.0  0.38262  0.08896  0.43912  1.0000
  H   H56       1.0  0.28141  0.23899  0.46539  1.0000
  C   C37       1.0  0.33911  0.20199  0.16362  1.0000
  C   C38       1.0  0.32162  0.23678  0.23960  1.0000
  C   C39       1.0  0.34351  0.02624  0.42752  1.0000
  H   H57       1.0  0.41583  0.09751  0.44304  1.0000
  H   H58       1.0  0.47069  0.15154  0.24045  1.0000
  H   H59       1.0  0.35714  0.19712  0.36635  1.0000
  H   H60       1.0  0.39140  0.12378  0.43874  1.0000
  H   H61       1.0  0.42261  0.17647  0.46039  1.0000
  H   H62       1.0  0.27501  0.24077  0.11598  1.0000
  C   C40       1.0  0.38782  0.16369  0.02815  1.0000
  S   S13       1.0  0.47882  0.16431  0.16742  1.0000
  N   N2        1.0  0.35574  0.05479  0.46688  1.0000
  C   C41       1.0  0.36777  0.18130  0.49567  1.0000
  H   H63       1.0  0.34076  0.17710  0.38955  1.0000
  H   H64       1.0  0.47169  0.16746  0.29750  1.0000
  H   H65       1.0  0.38144  0.05042  0.46543  1.0000
  S   S14       1.0  0.34936  0.23896  0.40163  1.0000
  H   H66       1.0  0.41173  0.18482  0.08039  1.0000
  C   C42       1.0  0.36840  0.19631  0.43594  1.0000
  H   H67       1.0  0.35009  0.20173  0.03578  1.0000
  H   H68       1.0  0.30316  0.06722  0.43416  1.0000
  C   C43       1.0  0.31037  0.16312  0.02372  1.0000
  C   C44       1.0  0.34661  0.06531  0.44483  1.0000
  H   H69       1.0  0.42776  0.22434  0.21455  1.0000
  H   H70       1.0  0.39077  0.23962  0.11939  1.0000
  S   S15       1.0  0.32213  0.23639  0.31298  1.0000
  H   H71       1.0  0.37029  0.20845  0.06178  1.0000
  C   C45       1.0  0.35402  0.13426  0.04701  1.0000
  Fe  Fe6       1.0  0.32828  0.23462  0.44580  1.0000
  H   H72       1.0  0.35756  0.23606  0.18326  1.0000
  H   H73       1.0  0.38253  0.18871  0.39141  1.0000
  H   H74       1.0  0.36824  0.17751  0.07236  1.0000
  H   H75       1.0  0.35689  0.02663  0.41664  1.0000
  H   H76       1.0  0.38381  0.16145  0.05689  1.0000
  C   C46       1.0  0.35669  0.19756  0.05860  1.0000
  H   H77       1.0  0.13856  0.23001  0.07693  1.0000
  H   H78       1.0  0.39587  0.22319  0.20781  1.0000
  C   C47       1.0  0.33678  0.11696  0.04891  1.0000
  S   S16       1.0  0.47286  0.22013  0.49045  1.0000
  H   H79       1.0  0.35123  0.15728  0.46666  1.0000
  H   H80       1.0  0.42254  0.13281  0.04886  1.0000
  C   C48       1.0  0.14237  0.24080  0.05515  1.0000
  N   N3        1.0  0.38632  0.24145  0.17642  1.0000
  H   H81       1.0  0.39593  0.21984  0.16143  1.0000
  C   C49       1.0  0.32557  0.05900  0.45001  1.0000
  H   H82       1.0  0.31867  0.04504  0.43969  1.0000
  H   H83       1.0  0.36526  0.22151  0.21048  1.0000
  C   C50       1.0  0.37495  0.05939  0.45233  1.0000
  H   H84       1.0  0.36160  0.21759  0.12891  1.0000
  H   H85       1.0  0.45051  0.23573  0.42803  1.0000
  H   H86       1.0  0.32134  0.07237  0.40082  1.0000
  H   H87       1.0  0.34503  0.16802  0.05818  1.0000
  C   C51       1.0  0.31414  0.18155  0.01211  1.0000
  H   H88       1.0  0.36566  0.12986  0.05299  1.0000
  H   H89       1.0  0.37431  0.15835  0.47181  1.0000
  Fe  Fe7       1.0  0.48010  0.19378  0.36880  1.0000
  C   C52       1.0  0.42586  0.18882  0.47698  1.0000
  C   C53       1.0  0.39699  0.12656  0.46504  1.0000
  C   C54       1.0  0.36284  0.16102  0.48499  1.0000
  C   C55       1.0  0.35707  0.14398  0.00943  1.0000
  N   N4        1.0  0.37196  0.16287  0.00535  1.0000
  H   H90       1.0  0.40545  0.20507  0.44101  1.0000
  H   H91       1.0  0.32418  0.08623  0.43994  1.0000
  C   C56       1.0  0.40501  0.18151  0.02411  1.0000
  H   H92       1.0  0.41305  0.07426  0.45655  1.0000
  H   H93       1.0  0.37474  0.19155  0.00464  1.0000
  H   H94       1.0  0.34810  0.19657  0.08298  1.0000
  H   H95       1.0  0.33560  0.99761  0.44663  1.0000
  C   C57       1.0  0.39647  0.23838  0.35535  1.0000
  H   H96       1.0  0.39395  0.22530  0.46779  1.0000
  C   C58       1.0  0.38778  0.07980  0.45511  1.0000
  C   C59       1.0  0.40844  0.19123  0.49042  1.0000
  C   C60       1.0  0.38530  0.12081  0.49559  1.0000
  H   H97       1.0  0.25681  0.20697  0.48549  1.0000
  H   H98       1.0  0.37205  0.24379  0.24917  1.0000
  H   H99       1.0  0.39421  0.24179  0.25037  1.0000
  H   H100      1.0  0.40369  0.24174  0.32882  1.0000
  H   H101      1.0  0.26697  0.08336  0.00363  1.0000
  C   C61       1.0  0.31068  0.14950  0.99958  1.0000
  H   H102      1.0  0.44780  0.23271  0.99953  1.0000
  C   C62       1.0  0.07834  0.23046  0.53102  1.0000
  H   H103      1.0  0.06879  0.22655  0.55468  1.0000
  H   H104      1.0  0.19362  0.08433  0.90556  1.0000
  H   H105      1.0  0.19626  0.07211  0.94529  1.0000
  H   H106      1.0  0.09210  0.23128  0.53925  1.0000
  H   H107      1.0  0.19934  0.06403  0.90153  1.0000
  N   N5        1.0  0.26855  0.24420  0.51338  1.0000
  H   H108      1.0  0.24794  0.24268  0.55376  1.0000
  H   H109      1.0  0.24547  0.00438  0.66526  1.0000
  C   C63       1.0  0.38749  0.11352  0.99211  1.0000
  C   C64       1.0  0.25869  0.00477  0.65374  1.0000
  H   H110      1.0  0.34145  0.05541  0.51644  1.0000
  H   H111      1.0  0.26903  0.01168  0.77936  1.0000
  C   C65       1.0  0.37514  0.24055  0.50792  1.0000
  C   C66       1.0  0.31215  0.00877  0.85116  1.0000
  H   H112      1.0  0.26927  0.19044  0.52879  1.0000
  S   S17       1.0  0.36579  0.09540  0.99181  1.0000
  H   H113      1.0  0.25294  0.19149  0.56273  1.0000
  C   C67       1.0  0.35564  0.06030  0.50522  1.0000
  H   H114      1.0  0.45347  0.19537  0.94539  1.0000
  C   C68       1.0  0.26899  0.22607  0.52776  1.0000
  H   H115      1.0  0.35454  0.18296  0.50141  1.0000
  C   C69       1.0  0.44808  0.23631  0.97044  1.0000
  H   H116      1.0  0.47079  0.21794  0.94197  1.0000
  H   H117      1.0  0.37450  0.18316  0.52190  1.0000
  C   C70       1.0  0.38357  0.22914  0.94548  1.0000
  H   H118      1.0  0.35070  0.05306  0.57923  1.0000
  H   H119      1.0  0.35167  0.13348  0.50900  1.0000
  H   H120      1.0  0.29354  0.00675  0.66320  1.0000
  H   H121      1.0  0.25743  0.00623  0.62438  1.0000
  H   H122      1.0  0.27664  0.07928  0.94199  1.0000
  H   H123      1.0  0.22826  0.07586  0.96303  1.0000
  H   H124      1.0  0.39122  0.21461  0.51119  1.0000
  H   H125      1.0  0.26694  0.07133  0.64093  1.0000
  H   H126      1.0  0.22883  0.06423  0.92359  1.0000
  H   H127      1.0  0.36059  0.07557  0.50699  1.0000
  H   H128      1.0  0.40421  0.13270  0.70969  1.0000
  H   H129      1.0  0.38150  0.05844  0.52344  1.0000
  H   H130      1.0  0.37361  0.05432  0.58730  1.0000
  H   H131      1.0  0.38343  0.24167  0.53199  1.0000
  C   C71       1.0  0.45803  0.20934  0.95655  1.0000
  H   H132      1.0  0.40081  0.17889  0.50757  1.0000
  H   H133      1.0  0.36980  0.07437  0.56978  1.0000
  S   S18       1.0  0.30153  0.09282  0.67324  1.0000
  S   S19       1.0  0.31583  0.08785  0.96756  1.0000
  C   C72       1.0  0.25442  0.99645  0.55334  1.0000
  H   H134      1.0  0.36185  0.03779  0.53238  1.0000
  S   S20       1.0  0.37854  0.11579  0.56899  1.0000
  C   C73       1.0  0.20152  0.07646  0.91746  1.0000
  H   H135      1.0  0.38942  0.17967  0.96210  1.0000
  H   H136      1.0  0.38394  0.22094  0.92184  1.0000
  H   H137      1.0  0.26052  0.06900  0.81426  1.0000
  H   H138      1.0  0.41178  0.22481  0.98157  1.0000
  C   C74       1.0  0.26305  0.08126  0.83083  1.0000
  S   S21       1.0  0.34727  0.11421  0.90843  1.0000
  C   C75       1.0  0.25909  0.07077  0.98935  1.0000
  C   C76       1.0  0.25671  0.07504  0.86950  1.0000
  Fe  Fe8       1.0  0.33508  0.09143  0.87008  1.0000
  Fe  Fe9       1.0  0.30642  0.06664  0.92429  1.0000
  H   H139      1.0  0.35867  0.17517  0.94042  1.0000
  H   H140      1.0  0.35246  0.17623  0.99760  1.0000
  H   H141      1.0  0.26808  0.22560  0.55755  1.0000
  S   S22       1.0  0.33502  0.06892  0.90921  1.0000
  Fe  Fe10      1.0  0.31387  0.10731  0.53960  1.0000
  C   C77       1.0  0.42297  0.13923  0.50232  1.0000
  H   H142      1.0  0.26410  0.06604  0.87853  1.0000
  H   H143      1.0  0.24192  0.06675  0.86947  1.0000
  H   H144      1.0  0.38685  0.12346  0.93829  1.0000
  S   S23       1.0  0.33176  0.07801  0.60363  1.0000
  S   S24       1.0  0.29453  0.08254  0.57191  1.0000
  H   H145      1.0  0.40445  0.13400  0.62684  1.0000
  Fe  Fe11      1.0  0.31849  0.11013  0.92593  1.0000
  H   H146      1.0  0.43046  0.20750  0.96380  1.0000
  C   C78       1.0  0.29187  0.01942  0.65218  1.0000
  H   H147      1.0  0.22607  0.09272  0.88880  1.0000
  H   H148      1.0  0.30419  0.99835  0.55036  1.0000
  H   H149      1.0  0.32682  0.01602  0.84387  1.0000
  S   S25       1.0  0.33097  0.09111  0.52093  1.0000
  H   H150      1.0  0.25052  0.13511  0.97670  1.0000
  H   H151      1.0  0.25130  0.10313  0.97795  1.0000
  H   H152      1.0  0.27409  0.10787  0.96229  1.0000
  Fe  Fe12      1.0  0.34460  0.09166  0.94894  1.0000
  C   C79       1.0  0.25993  0.10498  0.95313  1.0000
  C   C80       1.0  0.32647  0.03149  0.64755  1.0000
  C   C81       1.0  0.26169  0.07432  0.94817  1.0000
  C   C82       1.0  0.41133  0.13322  0.53288  1.0000
  H   H153      1.0  0.27485  0.14037  0.97693  1.0000
  H   H154      1.0  0.24316  0.03061  0.65445  1.0000
  H   H155      1.0  0.34852  0.07965  0.74160  1.0000
  H   H156      1.0  0.36869  0.14974  0.53512  1.0000
  H   H157      1.0  0.28247  0.03611  0.71500  1.0000
  H   H158      1.0  0.41737  0.17624  0.62484  1.0000
  C   C83       1.0  0.31851  0.18614  0.97577  1.0000
  C   C84       1.0  0.30696  0.09506  0.74550  1.0000
  C   C85       1.0  0.22176  0.08858  0.91704  1.0000
  H   H159      1.0  0.32131  0.20014  0.96613  1.0000
  H   H160      1.0  0.25462  0.05553  0.60762  1.0000
  H   H161      1.0  0.28457  0.05084  0.65947  1.0000
  H   H162      1.0  0.38815  0.09997  0.70454  1.0000
  C   C86       1.0  0.28715  0.01471  0.55069  1.0000
  H   H163      1.0  0.24243  0.06144  0.64368  1.0000
  S   S26       1.0  0.34552  0.09102  0.81290  1.0000
  H   H164      1.0  0.33151  0.08013  0.68651  1.0000
  C   C87       1.0  0.32733  0.08427  0.71152  1.0000
  H   H165      1.0  0.25569  0.04634  0.68771  1.0000
  C   C88       1.0  0.35696  0.14793  0.51770  1.0000
  C   C89       1.0  0.26308  0.13847  0.95962  1.0000
  Fe  Fe13      1.0  0.31358  0.09346  0.61720  1.0000
  H   H166      1.0  0.38345  0.17879  0.89544  1.0000
  C   C90       1.0  0.27514  0.02166  0.70691  1.0000
  H   H167      1.0  0.38544  0.15579  0.96043  1.0000
  C   C91       1.0  0.31649  0.09471  0.77679  1.0000
  H   H168      1.0  0.26549  0.15169  0.94466  1.0000
  H   H169      1.0  0.22287  0.10090  0.93245  1.0000
  Fe  Fe14      1.0  0.31319  0.06740  0.55752  1.0000
  C   C92       1.0  0.36417  0.16395  0.93840  1.0000
  C   C93       1.0  0.33216  0.14003  0.68931  1.0000
  H   H170      1.0  0.32586  0.02892  0.61845  1.0000
  H   H171      1.0  0.25546  0.08963  0.81961  1.0000
  C   C94       1.0  0.37235  0.16522  0.90061  1.0000
  H   H172      1.0  0.41706  0.13549  0.55909  1.0000
  H   H173      1.0  0.26514  0.03303  0.77217  1.0000
  H   H174      1.0  0.24853  0.00911  0.90314  1.0000
  C   C95       1.0  0.23309  0.07825  0.93463  1.0000
  H   H175      1.0  0.30463  0.01785  0.84328  1.0000
  C   C96       1.0  0.31490  0.16016  0.52625  1.0000
  H   H176      1.0  0.34599  0.15044  0.53326  1.0000
  Fe  Fe15      1.0  0.34762  0.10259  0.56830  1.0000
  H   H177      1.0  0.29898  0.01566  0.95296  1.0000
  S   S27       1.0  0.33107  0.11920  0.58631  1.0000
  C   C97       1.0  0.40660  0.14698  0.64071  1.0000
  H   H178      1.0  0.31875  0.18656  0.54868  1.0000
  C   C98       1.0  0.39248  0.12388  0.52971  1.0000
  C   C99       1.0  0.42169  0.14295  0.99521  1.0000
  N   N6        1.0  0.37928  0.13325  0.68670  1.0000
  S   S28       1.0  0.28076  0.03970  0.92133  1.0000
  H   H179      1.0  0.27498  0.03868  0.62078  1.0000
  C   C100      1.0  0.37899  0.08506  0.65719  1.0000
  C   C101      1.0  0.34812  0.13603  0.67231  1.0000
  C   C102      1.0  0.44331  0.21759  0.95178  1.0000
  H   H180      1.0  0.32727  0.01927  0.66233  1.0000
  H   H181      1.0  0.31025  0.04828  0.64610  1.0000
  H   H182      1.0  0.36157  0.16363  0.88091  1.0000
  H   H183      1.0  0.24627  0.01198  0.78327  1.0000
  C   C103      1.0  0.38374  0.12558  0.75277  1.0000
  C   C104      1.0  0.38635  0.10329  0.67622  1.0000
  H   H184      1.0  0.31420  0.15324  0.55194  1.0000
  C   C105      1.0  0.31439  0.15395  0.96304  1.0000
  H   H185      1.0  0.24907  0.12169  0.91724  1.0000
  C   C106      1.0  0.25748  0.00319  0.91577  1.0000
  C   C107      1.0  0.41467  0.16267  0.61274  1.0000
  C   C108      1.0  0.31833  0.17240  0.95146  1.0000
  H   H186      1.0  0.29551  0.09963  0.74660  1.0000
  C   C109      1.0  0.26065  0.09182  0.89381  1.0000
  H   H187      1.0  0.29136  0.01800  0.62267  1.0000
  C   C110      1.0  0.27460  0.01505  0.92722  1.0000
  C   C111      1.0  0.39221  0.13626  0.71716  1.0000
  C   C112      1.0  0.31743  0.17910  0.52430  1.0000
  H   H188      1.0  0.44139  0.21880  0.92280  1.0000
  H   H189      1.0  0.36845  0.11345  0.64561  1.0000
  H   H190      1.0  0.31240  0.09903  0.80171  1.0000
  H   H191      1.0  0.40770  0.13873  0.78435  1.0000
  H   H192      1.0  0.41687  0.14882  0.66147  1.0000
  H   H193      1.0  0.40637  0.11692  0.76611  1.0000
  H   H194      1.0  0.35356  0.14622  0.64984  1.0000
  C   C113      1.0  0.41148  0.14008  0.96405  1.0000
  H   H195      1.0  0.39174  0.11734  0.80346  1.0000
  H   H196      1.0  0.32134  0.13796  0.66950  1.0000
  H   H197      1.0  0.36060  0.10501  0.68913  1.0000
  H   H198      1.0  0.24683  0.01997  0.71889  1.0000
  H   H199      1.0  0.34271  0.12199  0.66156  1.0000
  H   H200      1.0  0.36541  0.07628  0.66879  1.0000
  H   H201      1.0  0.33670  0.15447  0.69804  1.0000
  H   H202      1.0  0.28342  0.01375  0.71732  1.0000
  C   C114      1.0  0.25674  0.01397  0.72852  1.0000
  H   H203      1.0  0.35549  0.12737  0.72217  1.0000
  N   N7        1.0  0.25358  0.08755  0.93207  1.0000
  H   H204      1.0  0.38850  0.07752  0.66020  1.0000
  C   C115      1.0  0.33690  0.08396  0.74277  1.0000
  H   H205      1.0  0.37775  0.08766  0.62827  1.0000
  H   H206      1.0  0.33902  0.04353  0.65229  1.0000
  H   H207      1.0  0.37448  0.11131  0.74801  1.0000
  H   H208      1.0  0.37564  0.13263  0.76681  1.0000
  H   H209      1.0  0.27320  0.12796  0.91477  1.0000
  H   H210      1.0  0.23906  0.23562  0.51163  1.0000
  S   S29       1.0  0.31193  0.13672  0.93042  1.0000
  H   H211      1.0  0.39046  0.16121  0.66506  1.0000
  H   H212      1.0  0.39999  0.11133  0.66444  1.0000
  C   C116      1.0  0.25438  0.20834  0.51439  1.0000
  H   H213      1.0  0.35909  0.21183  0.51646  1.0000
  H   H214      1.0  0.32094  0.17608  0.92330  1.0000
  C   C117      1.0  0.26108  0.12320  0.93336  1.0000
  H   H215      1.0  0.25528  0.10152  0.88028  1.0000
  H   H216      1.0  0.32618  0.13058  0.71271  1.0000
  H   H217      1.0  0.40523  0.16108  0.59032  1.0000
  C   C118      1.0  0.39451  0.12546  0.96245  1.0000
  H   H218      1.0  0.36724  0.15124  0.71154  1.0000
  H   H219      1.0  0.37783  0.15406  0.89679  1.0000
  C   C119      1.0  0.41666  0.23446  0.95788  1.0000
  H   H220      1.0  0.27789  0.08953  0.82922  1.0000
  H   H221      1.0  0.26618  0.02637  0.55134  1.0000
  C   C120      1.0  0.36510  0.05911  0.56923  1.0000
  C   C121      1.0  0.25953  0.01793  0.76821  1.0000
  C   C122      1.0  0.30974  0.03551  0.66030  1.0000
  H   H222      1.0  0.31087  0.03805  0.68933  1.0000
  C   C123      1.0  0.27326  0.03853  0.65049  1.0000
  C   C124      1.0  0.25495  0.05869  0.63644  1.0000
  C   C125      1.0  0.38824  0.14698  0.65645  1.0000
  H   H223      1.0  0.25587  0.06059  0.93599  1.0000
  S   S30       1.0  0.30639  0.03619  0.54860  1.0000
  H   H224      1.0  0.42778  0.16237  0.60168  1.0000
  C   C126      1.0  0.26902  0.01377  0.55197  1.0000
  H   H225      1.0  0.41586  0.22565  0.93473  1.0000
  S   S31       1.0  0.30652  0.08890  0.88398  1.0000
  C   C127      1.0  0.28583  0.00694  0.94376  1.0000
  H   H226      1.0  0.37918  0.14454  0.63321  1.0000
  C   C128      1.0  0.25573  0.04249  0.65938  1.0000
  C   C129      1.0  0.37876  0.16575  0.96682  1.0000
  C   C130      1.0  0.36285  0.13728  0.70006  1.0000
  C   C131      1.0  0.37294  0.11379  0.67369  1.0000
  H   H227      1.0  0.41666  0.14932  0.94103  1.0000
  C   C132      1.0  0.39838  0.12466  0.77810  1.0000
  C   C133      1.0  0.33176  0.08951  0.77540  1.0000
  H   H228      1.0  0.27569  0.09931  0.89337  1.0000
  H   H229      1.0  0.39795  0.15117  0.72325  1.0000
  C   C134      1.0  0.31267  0.09036  0.71256  1.0000
  N   N8        1.0  0.27440  0.02099  0.66660  1.0000
  H   H230      1.0  0.35266  0.15059  0.94148  1.0000
  H   H231      1.0  0.24052  0.99602  0.55381  1.0000
  H   H232      1.0  0.41253  0.18129  0.99880  1.0000
  C   C135      1.0  0.25557  0.19123  0.53352  1.0000
  H   H233      1.0  0.46070  0.20806  0.98534  1.0000
  H   H234      1.0  0.43751  0.14605  0.50515  1.0000
  H   H235      1.0  0.41264  0.20352  0.50714  1.0000
  H   H236      1.0  0.25049  0.99880  0.72634  1.0000
  H   H237      1.0  0.37377  0.23619  0.94058  1.0000
  C   C136      1.0  0.29031  0.99797  0.55131  1.0000
  H   H238      1.0  0.42998  0.24298  0.88823  1.0000
  C   C137      1.0  0.36679  0.05304  0.53131  1.0000
  S   S32       1.0  0.44200  0.16277  0.99644  1.0000
  H   H239      1.0  0.35995  0.13415  0.99122  1.0000
  H   H240      1.0  0.31078  0.00637  0.88064  1.0000
  H   H241      1.0  0.24522  0.17864  0.52306  1.0000
  H   H242      1.0  0.28219  0.22466  0.52030  1.0000
  C   C138      1.0  0.40241  0.24357  0.95169  1.0000
  H   H243      1.0  0.25779  0.04227  0.98907  1.0000
  H   H244      1.0  0.24458  0.06646  0.99812  1.0000
  H   H245      1.0  0.24038  0.20819  0.51912  1.0000
  H   H246      1.0  0.28038  0.05908  0.99439  1.0000
  H   H247      1.0  0.37855  0.21982  0.96942  1.0000
  H   H248      1.0  0.07340  0.21949  0.51123  1.0000
  H   H249      1.0  0.43377  0.18695  0.50001  1.0000
  Fe  Fe16      1.0  0.19873  0.35803  0.05323  1.0000
  S   S33       1.0  0.16747  0.34970  0.05182  1.0000
  Fe  Fe17      1.0  0.19671  0.35417  0.44548  1.0000
  C   C139      1.0  0.14142  0.34372  0.45778  1.0000
  H   H250      1.0  0.14819  0.34289  0.43279  1.0000
  C   C140      1.0  0.13285  0.34156  0.02653  1.0000
  H   H251      1.0  0.12852  0.33898  0.05434  1.0000
  C   C141      1.0  0.19079  0.29178  0.10595  1.0000
  H   H252      1.0  0.40845  0.27484  0.26300  1.0000
  H   H253      1.0  0.18038  0.27858  0.11560  1.0000
  H   H254      1.0  0.18462  0.34926  0.23808  1.0000
  C   C142      1.0  0.16791  0.38699  0.33640  1.0000
  H   H255      1.0  0.16468  0.38723  0.36535  1.0000
  H   H256      1.0  0.16746  0.37292  0.33041  1.0000
  H   H257      1.0  0.15739  0.39006  0.32093  1.0000
  H   H258      1.0  0.19968  0.30967  0.06005  1.0000
  H   H259      1.0  0.20947  0.28802  0.14461  1.0000
  C   C143      1.0  0.13507  0.37646  0.12077  1.0000
  C   C144      1.0  0.45276  0.28124  0.04197  1.0000
  H   H260      1.0  0.21298  0.28127  0.10012  1.0000
  H   H261      1.0  0.18862  0.30295  0.12111  1.0000
  C   C145      1.0  0.18978  0.29542  0.06514  1.0000
  C   C146      1.0  0.20949  0.29157  0.11571  1.0000
  H   H262      1.0  0.37452  0.24975  0.13021  1.0000
  N   N9        1.0  0.17139  0.29364  0.05076  1.0000
  H   H263      1.0  0.12960  0.29598  0.12095  1.0000
  H   H264      1.0  0.42849  0.24904  0.01871  1.0000
  H   H265      1.0  0.22013  0.30540  0.11039  1.0000
  C   C147      1.0  0.18689  0.40122  0.32733  1.0000
  H   H266      1.0  0.39678  0.27912  0.14244  1.0000
  H   H267      1.0  0.26036  0.25282  0.10177  1.0000
  H   H268      1.0  0.18709  0.41502  0.33453  1.0000
  H   H269      1.0  0.19652  0.39761  0.34432  1.0000
  H   H270      1.0  0.15848  0.29181  0.10344  1.0000
  C   C148      1.0  0.23417  0.46399  0.00901  1.0000
  H   H271      1.0  0.28902  0.40669  0.47780  1.0000
  S   S34       1.0  0.20183  0.33435  0.40728  1.0000
  S   S35       1.0  0.12457  0.43937  0.43950  1.0000
  H   H272      1.0  0.14506  0.41830  0.03558  1.0000
  C   C149      1.0  0.13890  0.38516  0.08231  1.0000
  C   C150      1.0  0.13348  0.40487  0.03402  1.0000
  C   C151      1.0  0.19214  0.40097  0.28725  1.0000
  H   H273      1.0  0.18063  0.40222  0.27201  1.0000
  H   H274      1.0  0.15365  0.39405  0.08011  1.0000
  C   C152      1.0  0.13073  0.41147  0.09715  1.0000
  H   H275      1.0  0.13750  0.37382  0.06399  1.0000
  H   H276      1.0  0.12235  0.40834  0.02158  1.0000
  H   H277      1.0  0.19419  0.43339  0.27436  1.0000
  N   N10       1.0  0.12746  0.39619  0.07104  1.0000
  H   H278      1.0  0.19220  0.38697  0.28199  1.0000
  Fe  Fe18      1.0  0.14038  0.47027  0.43438  1.0000
  H   H279      1.0  0.09930  0.40276  0.29244  1.0000
  H   H280      1.0  0.12848  0.41689  0.37553  1.0000
  H   H281      1.0  0.09904  0.40467  0.35078  1.0000
  C   C153      1.0  0.09518  0.41637  0.35903  1.0000
  N   N11       1.0  0.10543  0.43370  0.33694  1.0000
  H   H282      1.0  0.09910  0.41852  0.38748  1.0000
  C   C154      1.0  0.10572  0.41641  0.27860  1.0000
  C   C155      1.0  0.10102  0.43152  0.29790  1.0000
  H   H283      1.0  0.10857  0.35770  0.06070  1.0000
  S   S36       1.0  0.16146  0.47757  0.38941  1.0000
  C   C156      1.0  0.10727  0.38483  0.07254  1.0000
  H   H284      1.0  0.12043  0.36790  0.12518  1.0000
  C   C157      1.0  0.14611  0.36418  0.12781  1.0000
  H   H285      1.0  0.14389  0.35893  0.15602  1.0000
  C   C158      1.0  0.10105  0.36662  0.05241  1.0000
  H   H286      1.0  0.16093  0.37200  0.12288  1.0000
  H   H287      1.0  0.10276  0.36952  0.02315  1.0000
  S   S37       1.0  0.19599  0.35365  0.31064  1.0000
  H   H288      1.0  0.12501  0.40575  0.12414  1.0000
  H   H289      1.0  0.14172  0.35220  0.11027  1.0000
  H   H290      1.0  0.13906  0.38731  0.14091  1.0000
  H   H291      1.0  0.12960  0.43467  0.06380  1.0000
  C   C159      1.0  0.12248  0.42627  0.08776  1.0000
  H   H292      1.0  0.09937  0.39285  0.06110  1.0000
  H   H293      1.0  0.07801  0.35222  0.08910  1.0000
  H   H294      1.0  0.10216  0.38156  0.10077  1.0000
  C   C160      1.0  0.08081  0.35558  0.06007  1.0000
  H   H295      1.0  0.11490  0.33693  0.43483  1.0000
  H   H296      1.0  0.10774  0.41998  0.08275  1.0000
  S   S38       1.0  0.16353  0.47656  0.08078  1.0000
  H   H297      1.0  0.14566  0.41888  0.10022  1.0000
  H   H298      1.0  0.12073  0.42017  0.27679  1.0000
  H   H299      1.0  0.10290  0.40400  0.22668  1.0000
  H   H300      1.0  0.13894  0.44542  0.12603  1.0000
  C   C161      1.0  0.12448  0.43934  0.11843  1.0000
  H   H301      1.0  0.11987  0.45069  0.11005  1.0000
  C   C162      1.0  0.12250  0.34035  0.45904  1.0000
  H   H302      1.0  0.11606  0.43197  0.14216  1.0000
  H   H303      1.0  0.08638  0.42917  0.29406  1.0000
  C   C163      1.0  0.06562  0.39190  0.38217  1.0000
  H   H304      1.0  0.10072  0.44701  0.04450  1.0000
  C   C164      1.0  0.09983  0.43760  0.02325  1.0000
  H   H305      1.0  0.06985  0.39452  0.41028  1.0000
  C   C165      1.0  0.09912  0.41469  0.24026  1.0000
  H   H306      1.0  0.08405  0.41061  0.24006  1.0000
  H   H307      1.0  0.18722  0.39503  0.21556  1.0000
  C   C166      1.0  0.07407  0.40946  0.35874  1.0000
  C   C167      1.0  0.09945  0.44884  0.35051  1.0000
  H   H308      1.0  0.12902  0.41290  0.32871  1.0000
  C   C168      1.0  0.13336  0.42366  0.34882  1.0000
  C   C169      1.0  0.12576  0.43930  0.34190  1.0000
  H   H309      1.0  0.12987  0.44803  0.36553  1.0000
  H   H310      1.0  0.15905  0.41966  0.35367  1.0000
  C   C170      1.0  0.15418  0.43118  0.34885  1.0000
  H   H311      1.0  0.07367  0.41797  0.04176  1.0000
  H   H312      1.0  0.15910  0.44093  0.37074  1.0000
  H   H313      1.0  0.13350  0.44809  0.31873  1.0000
  H   H314      1.0  0.05051  0.38724  0.38190  1.0000
  H   H315      1.0  0.10557  0.42797  0.22488  1.0000
  H   H316      1.0  0.10857  0.44450  0.28236  1.0000
  H   H317      1.0  0.06914  0.40628  0.33127  1.0000
  H   H318      1.0  0.08510  0.44628  0.34337  1.0000
  H   H319      1.0  0.16002  0.43824  0.32284  1.0000
  C   C171      1.0  0.29911  0.42870  0.42008  1.0000
  H   H320      1.0  0.06887  0.41980  0.36966  1.0000
  H   H321      1.0  0.06982  0.38069  0.37208  1.0000
  H   H322      1.0  0.07676  0.34246  0.04576  1.0000
  H   H323      1.0  0.19184  0.41943  0.21386  1.0000
  H   H324      1.0  0.27748  0.40546  0.39871  1.0000
  C   C172      1.0  0.19926  0.35633  0.23728  1.0000
  H   H325      1.0  0.20123  0.35952  0.17953  1.0000
  C   C173      1.0  0.47389  0.40155  0.09877  1.0000
  H   H326      1.0  0.22531  0.47232  0.28842  1.0000
  H   H327      1.0  0.21333  0.46103  0.48799  1.0000
  H   H328      1.0  0.48083  0.37664  0.06055  1.0000
  Fe  Fe19      1.0  0.23168  0.34722  0.42028  1.0000
  C   C174      1.0  0.44448  0.26825  0.47648  1.0000
  C   C175      1.0  0.08453  0.42113  0.02165  1.0000
  H   H329      1.0  0.07237  0.36346  0.05060  1.0000
  C   C176      1.0  0.15017  0.47739  0.25094  1.0000
  H   H330      1.0  0.42797  0.32472  0.03401  1.0000
  H   H331      1.0  0.15028  0.46356  0.25045  1.0000
  S   S39       1.0  0.20109  0.37637  0.40330  1.0000
  C   C177      1.0  0.27194  0.24603  0.47332  1.0000
  H   H332      1.0  0.18838  0.42505  0.40611  1.0000
  H   H333      1.0  0.14481  0.29524  0.46622  1.0000
  H   H334      1.0  0.44484  0.29017  0.03575  1.0000
  H   H335      1.0  0.21174  0.43921  0.30552  1.0000
  C   C178      1.0  0.20852  0.43428  0.27791  1.0000
  H   H336      1.0  0.25236  0.40806  0.48992  1.0000
  H   H337      1.0  0.20524  0.46808  0.26205  1.0000
  C   C179      1.0  0.39343  0.26778  0.26615  1.0000
  H   H338      1.0  0.41391  0.28752  0.08460  1.0000
  H   H339      1.0  0.46496  0.25769  0.35689  1.0000
  C   C180      1.0  0.21952  0.46852  0.26168  1.0000
  H   H340      1.0  0.42321  0.24712  0.14974  1.0000
  H   H341      1.0  0.09966  0.44892  0.38033  1.0000
  H   H342      1.0  0.25057  0.45256  0.08865  1.0000
  H   H343      1.0  0.08075  0.38331  0.49718  1.0000
  H   H344      1.0  0.12414  0.28042  0.44656  1.0000
  Fe  Fe20      1.0  0.14434  0.48235  0.04308  1.0000
  S   S40       1.0  0.14634  0.47450  0.17824  1.0000
  H   H345      1.0  0.03867  0.28013  0.45177  1.0000
  C   C181      1.0  0.40860  0.24957  0.38431  1.0000
  H   H346      1.0  0.38994  0.26338  0.29465  1.0000
  S   S41       1.0  0.13065  0.49309  0.08623  1.0000
  C   C182      1.0  0.44756  0.27676  0.39535  1.0000
  H   H347      1.0  0.06271  0.26884  0.47085  1.0000
  C   C183      1.0  0.38996  0.25681  0.20245  1.0000
  S   S42       1.0  0.21119  0.34400  0.09301  1.0000
  C   C184      1.0  0.29817  0.44279  0.39178  1.0000
  H   H348      1.0  0.31145  0.37187  0.46460  1.0000
  C   C185      1.0  0.09981  0.40825  0.47176  1.0000
  H   H349      1.0  0.46648  0.29017  0.05050  1.0000
  H   H350      1.0  0.42052  0.26134  0.44682  1.0000
  Fe  Fe21      1.0  0.15148  0.48920  0.12313  1.0000
  C   C186      1.0  0.19885  0.43645  0.41953  1.0000
  H   H351      1.0  0.20946  0.41705  0.44142  1.0000
  H   H352      1.0  0.22036  0.43596  0.38221  1.0000
  C   C187      1.0  0.31398  0.39844  0.43698  1.0000
  C   C188      1.0  0.19804  0.40882  0.21045  1.0000
  N   N12       1.0  0.21003  0.41555  0.27452  1.0000
  C   C189      1.0  0.29035  0.45299  0.00812  1.0000
  H   H353      1.0  0.31359  0.28447  0.26447  1.0000
  H   H354      1.0  0.27506  0.32961  0.48597  1.0000
  C   C190      1.0  0.43215  0.25643  0.44786  1.0000
  H   H355      1.0  0.19301  0.40719  0.15360  1.0000
  H   H356      1.0  0.22186  0.45184  0.06185  1.0000
  H   H357      1.0  0.22290  0.41768  0.32585  1.0000
  H   H358      1.0  0.41537  0.27099  0.14034  1.0000
  C   C191      1.0  0.22025  0.44991  0.25136  1.0000
  H   H359      1.0  0.22763  0.47938  0.24182  1.0000
  H   H360      1.0  0.38105  0.26480  0.19662  1.0000
  H   H361      1.0  0.40404  0.26697  0.19891  1.0000
  H   H362      1.0  0.33654  0.30253  0.15859  1.0000
  C   C192      1.0  0.34428  0.31914  0.11034  1.0000
  H   H363      1.0  0.46245  0.31456  0.41172  1.0000
  C   C193      1.0  0.47107  0.30947  0.39420  1.0000
  Fe  Fe22      1.0  0.20824  0.35765  0.36583  1.0000
  H   H364      1.0  0.39686  0.30055  0.03431  1.0000
  C   C194      1.0  0.38683  0.25098  0.24272  1.0000
  C   C195      1.0  0.34371  0.26372  0.26468  1.0000
  H   H365      1.0  0.27211  0.42844  0.30315  1.0000
  C   C196      1.0  0.20864  0.36208  0.20404  1.0000
  C   C197      1.0  0.20864  0.35983  0.26945  1.0000
  C   C198      1.0  0.26479  0.24661  0.12515  1.0000
  H   H366      1.0  0.20874  0.45122  0.36889  1.0000
  H   H367      1.0  0.30292  0.32642  0.04413  1.0000
  H   H368      1.0  0.16848  0.31440  0.08489  1.0000
  H   H369      1.0  0.19297  0.44680  0.42732  1.0000
  H   H370      1.0  0.43833  0.28390  0.40414  1.0000
  H   H371      1.0  0.26175  0.26581  0.16207  1.0000
  S   S43       1.0  0.39192  0.28230  0.42103  1.0000
  C   C199      1.0  0.33014  0.30380  0.13303  1.0000
  S   S44       1.0  0.35167  0.26953  0.15669  1.0000
  C   C200      1.0  0.20466  0.40968  0.17154  1.0000
  C   C201      1.0  0.21377  0.41146  0.23659  1.0000
  Fe  Fe23      1.0  0.18078  0.49387  0.42963  1.0000
  C   C202      1.0  0.28303  0.30214  0.16901  1.0000
  S   S45       1.0  0.25160  0.33182  0.42903  1.0000
  H   H372      1.0  0.29968  0.40990  0.37980  1.0000
  H   H373      1.0  0.46197  0.39362  0.08297  1.0000
  Fe  Fe24      1.0  0.23004  0.37228  0.10605  1.0000
  H   H374      1.0  0.36079  0.28404  0.22615  1.0000
  H   H375      1.0  0.16714  0.25657  0.07962  1.0000
  C   C203      1.0  0.08519  0.39818  0.49516  1.0000
  C   C204      1.0  0.23691  0.37503  0.23489  1.0000
  C   C205      1.0  0.42395  0.31567  0.01179  1.0000
  H   H376      1.0  0.46321  0.26266  0.01627  1.0000
  N   N13       1.0  0.29715  0.29373  0.16049  1.0000
  H   H377      1.0  0.24729  0.24859  0.45086  1.0000
  H   H378      1.0  0.21686  0.39862  0.23627  1.0000
  C   C206      1.0  0.27448  0.30830  0.13639  1.0000
  H   H379      1.0  0.21064  0.39896  0.16703  1.0000
  H   H380      1.0  0.19862  0.45358  0.03458  1.0000
  H   H381      1.0  0.30742  0.38233  0.36996  1.0000
  H   H382      1.0  0.16966  0.26983  0.02034  1.0000
  H   H383      1.0  0.13261  0.28466  0.06064  1.0000
  C   C207      1.0  0.14034  0.39378  0.00701  1.0000
  H   H384      1.0  0.30800  0.31044  0.11212  1.0000
  C   C208      1.0  0.15507  0.25905  0.06938  1.0000
  H   H385      1.0  0.15047  0.38594  0.42842  1.0000
  H   H386      1.0  0.14898  0.27369  0.02418  1.0000
  H   H387      1.0  0.22328  0.39887  0.30041  1.0000
  C   C209      1.0  0.15164  0.48627  0.28371  1.0000
  H   H388      1.0  0.15353  0.41555  0.48350  1.0000
  S   S46       1.0  0.23809  0.36937  0.37646  1.0000
  H   H389      1.0  0.16349  0.42026  0.43927  1.0000
  C   C210      1.0  0.40631  0.30196  0.01205  1.0000
  C   C211      1.0  0.40411  0.29292  0.45890  1.0000
  H   H390      1.0  0.38154  0.28266  0.49692  1.0000
  S   S47       1.0  0.30923  0.29104  0.44842  1.0000
  H   H391      1.0  0.21504  0.44725  0.22396  1.0000
  C   C212      1.0  0.22466  0.41363  0.29814  1.0000
  H   H392      1.0  0.28887  0.29417  0.23883  1.0000
  C   C213      1.0  0.43338  0.31118  0.48400  1.0000
  H   H393      1.0  0.40890  0.26359  0.07570  1.0000
  H   H394      1.0  0.34409  0.37658  0.46192  1.0000
  H   H395      1.0  0.23951  0.28209  0.03934  1.0000
  H   H396      1.0  0.33903  0.32012  0.08332  1.0000
  H   H397      1.0  0.23497  0.37168  0.29255  1.0000
  Fe  Fe25      1.0  0.34144  0.25903  0.10176  1.0000
  Fe  Fe26      1.0  0.23211  0.34520  0.04963  1.0000
  H   H398      1.0  0.30022  0.27094  0.13265  1.0000
  C   C214      1.0  0.24473  0.42499  0.28702  1.0000
  H   H399      1.0  0.44583  0.27143  0.06437  1.0000
  H   H400      1.0  0.24811  0.42236  0.25930  1.0000
  H   H401      1.0  0.27563  0.42593  0.03240  1.0000
  H   H402      1.0  0.21929  0.43901  0.45935  1.0000
  H   H403      1.0  0.30063  0.45672  0.02818  1.0000
  C   C215      1.0  0.45560  0.24932  0.41314  1.0000
  H   H404      1.0  0.23265  0.43854  0.03736  1.0000
  S   S48       1.0  0.34111  0.26373  0.46444  1.0000
  C   C216      1.0  0.16057  0.29989  0.07790  1.0000
  H   H405      1.0  0.21509  0.42344  0.16441  1.0000
  H   H406      1.0  0.23470  0.45120  0.25017  1.0000
  H   H407      1.0  0.26811  0.29666  0.11866  1.0000
  H   H408      1.0  0.22621  0.42226  0.22476  1.0000
  H   H409      1.0  0.27912  0.26067  0.46479  1.0000
  C   C217      1.0  0.14496  0.39252  0.44941  1.0000
  H   H410      1.0  0.12454  0.47368  0.34843  1.0000
  H   H411      1.0  0.11273  0.46993  0.30729  1.0000
  H   H412      1.0  0.20277  0.42455  0.02996  1.0000
  C   C218      1.0  0.15153  0.34700  0.01708  1.0000
  H   H413      1.0  0.28915  0.31443  0.18560  1.0000
  H   H414      1.0  0.44796  0.28309  0.46974  1.0000
  C   C219      1.0  0.14879  0.48641  0.21870  1.0000
  S   S49       1.0  0.24524  0.41747  0.41691  1.0000
  N   N14       1.0  0.44074  0.25729  0.41108  1.0000
  S   S50       1.0  0.17467  0.34934  0.49007  1.0000
  C   C220      1.0  0.15130  0.34724  0.48911  1.0000
  C   C221      1.0  0.11324  0.34084  0.49141  1.0000
  H   H415      1.0  0.09885  0.48150  0.37658  1.0000
  C   C222      1.0  0.45479  0.27089  0.00898  1.0000
  H   H416      1.0  0.31119  0.27854  0.18932  1.0000
  C   C223      1.0  0.21422  0.44584  0.39192  1.0000
  H   H417      1.0  0.27047  0.37203  0.41107  1.0000
  C   C224      1.0  0.28549  0.37581  0.41180  1.0000
  Fe  Fe27      1.0  0.33093  0.24855  0.36750  1.0000
  C   C225      1.0  0.28907  0.31665  0.04332  1.0000
  C   C226      1.0  0.25780  0.42004  0.31132  1.0000
  H   H418      1.0  0.44677  0.27676  0.36568  1.0000
  H   H419      1.0  0.47364  0.39382  0.12425  1.0000
  H   H420      1.0  0.25589  0.40524  0.30935  1.0000
  H   H421      1.0  0.41199  0.26439  0.37732  1.0000
  H   H422      1.0  0.47269  0.41493  0.10516  1.0000
  H   H423      1.0  0.26312  0.46272  0.04787  1.0000
  C   C227      1.0  0.27691  0.32119  0.46481  1.0000
  C   C228      1.0  0.27620  0.43551  0.01056  1.0000
  C   C229      1.0  0.28229  0.29940  0.41043  1.0000
  H   H424      1.0  0.35001  0.27139  0.28762  1.0000
  H   H425      1.0  0.27673  0.25399  0.17591  1.0000
  H   H426      1.0  0.28492  0.31964  0.12069  1.0000
  H   H427      1.0  0.47727  0.28514  0.38679  1.0000
  H   H428      1.0  0.31660  0.32164  0.15237  1.0000
  H   H429      1.0  0.28645  0.28108  0.11095  1.0000
  C   C230      1.0  0.14136  0.29894  0.06677  1.0000
  H   H430      1.0  0.25197  0.47524  0.07354  1.0000
  H   H431      1.0  0.15385  0.39375  0.01490  1.0000
  C   C231      1.0  0.29206  0.40890  0.40558  1.0000
  H   H432      1.0  0.35695  0.31605  0.10722  1.0000
  C   C232      1.0  0.28752  0.35548  0.36077  1.0000
  H   H433      1.0  0.30202  0.26165  0.24810  1.0000
  H   H434      1.0  0.29101  0.27068  0.28135  1.0000
  H   H435      1.0  0.29733  0.31403  0.49256  1.0000
  C   C233      1.0  0.26680  0.31943  0.43382  1.0000
  S   S51       1.0  0.23722  0.31812  0.04058  1.0000
  Fe  Fe28      1.0  0.35524  0.26443  0.02285  1.0000
  H   H436      1.0  0.11826  0.30486  0.08792  1.0000
  H   H437      1.0  0.38670  0.27767  0.25902  1.0000
  C   C234      1.0  0.10152  0.48220  0.34724  1.0000
  N   N15       1.0  0.29400  0.39392  0.42984  1.0000
  C   C235      1.0  0.26269  0.45023  0.44911  1.0000
  H   H438      1.0  0.22498  0.45767  0.40380  1.0000
  H   H439      1.0  0.27248  0.34822  0.36168  1.0000
  S   S52       1.0  0.20632  0.48731  0.43307  1.0000
  H   H440      1.0  0.27711  0.33780  0.04452  1.0000
  H   H441      1.0  0.14765  0.26264  0.09170  1.0000
  H   H442      1.0  0.40032  0.24609  0.40965  1.0000
  H   H443      1.0  0.39067  0.27257  0.07865  1.0000
  H   H444      1.0  0.32718  0.29079  0.11888  1.0000
  C   C236      1.0  0.29242  0.37524  0.37287  1.0000
  H   H445      1.0  0.31346  0.43279  0.42829  1.0000
  C   C237      1.0  0.34974  0.27087  0.22980  1.0000
  C   C238      1.0  0.25088  0.46137  0.06468  1.0000
  C   C239      1.0  0.25965  0.31552  0.14816  1.0000
  H   H446      1.0  0.34935  0.39830  0.43780  1.0000
  C   C240      1.0  0.22757  0.36897  0.26806  1.0000
  C   C241      1.0  0.25564  0.43092  0.45351  1.0000
  C   C242      1.0  0.32030  0.38196  0.44449  1.0000
  H   H447      1.0  0.24754  0.43987  0.28989  1.0000
  H   H448      1.0  0.29260  0.35559  0.33285  1.0000
  C   C243      1.0  0.28600  0.29769  0.04181  1.0000
  C   C244      1.0  0.28968  0.27704  0.13787  1.0000
  S   S53       1.0  0.25168  0.37310  0.06448  1.0000
  H   H449      1.0  0.28593  0.38224  0.35434  1.0000
  H   H450      1.0  0.14223  0.30807  0.04309  1.0000
  H   H451      1.0  0.25420  0.32024  0.12422  1.0000
  H   H452      1.0  0.24823  0.30448  0.16250  1.0000
  H   H453      1.0  0.25149  0.38249  0.23412  1.0000
  H   H454      1.0  0.25549  0.42289  0.33955  1.0000
  C   C245      1.0  0.22751  0.37167  0.20272  1.0000
  H   H455      1.0  0.26104  0.45661  0.42408  1.0000
  Fe  Fe29      1.0  0.23627  0.38518  0.02747  1.0000
  Fe  Fe30      1.0  0.31815  0.26788  0.04463  1.0000
  S   S54       1.0  0.21614  0.38642  0.07004  1.0000
  C   C246      1.0  0.46752  0.28921  0.40322  1.0000
  H   H456      1.0  0.12942  0.30503  0.44710  1.0000
  H   H457      1.0  0.38352  0.25021  0.48647  1.0000
  C   C247      1.0  0.34187  0.26098  0.19968  1.0000
  H   H458      1.0  0.27851  0.27168  0.22144  1.0000
  H   H459      1.0  0.32015  0.37441  0.41968  1.0000
  C   C248      1.0  0.23350  0.45267  0.04388  1.0000
  C   C249      1.0  0.27442  0.32318  0.04362  1.0000
  H   H460      1.0  0.31616  0.30135  0.20369  1.0000
  C   C250      1.0  0.26796  0.28531  0.04083  1.0000
  Fe  Fe31      1.0  0.36097  0.26846  0.41842  1.0000
  H   H461      1.0  0.26528  0.27071  0.03957  1.0000
  C   C251      1.0  0.30016  0.27434  0.25714  1.0000
  C   C252      1.0  0.26954  0.30839  0.40666  1.0000
  H   H462      1.0  0.46817  0.31141  0.36579  1.0000
  C   C253      1.0  0.38783  0.24908  0.13832  1.0000
  C   C254      1.0  0.11084  0.46882  0.33673  1.0000
  H   H463      1.0  0.13995  0.31955  0.10387  1.0000
  H   H464      1.0  0.29381  0.34778  0.37812  1.0000
  S   S55       1.0  0.34407  0.27844  0.38080  1.0000
  C   C255      1.0  0.29253  0.30144  0.44140  1.0000
  H   H465      1.0  0.03354  0.27028  0.49659  1.0000
  C   C256      1.0  0.25333  0.29184  0.04072  1.0000
  H   H466      1.0  0.26897  0.39189  0.45753  1.0000
  S   S56       1.0  0.22620  0.36530  0.46193  1.0000
  C   C257      1.0  0.42279  0.30348  0.45452  1.0000
  H   H467      1.0  0.42906  0.30600  0.42805  1.0000
  Fe  Fe32      1.0  0.23059  0.38637  0.41738  1.0000
  C   C258      1.0  0.13175  0.30521  0.09684  1.0000
  H   H468      1.0  0.27153  0.29260  0.18564  1.0000
  Fe  Fe33      1.0  0.32303  0.27167  0.42614  1.0000
  C   C259      1.0  0.28959  0.31232  0.46851  1.0000
  C   C260      1.0  0.25639  0.31081  0.04199  1.0000
  C   C261      1.0  0.31252  0.30812  0.13920  1.0000
  H   H469      1.0  0.28433  0.29112  0.38920  1.0000
  S   S57       1.0  0.08893  0.33380  0.49210  1.0000
  H   H470      1.0  0.04258  0.29505  0.48913  1.0000
  C   C262      1.0  0.30486  0.28901  0.19451  1.0000
  H   H471      1.0  0.28716  0.36429  0.42752  1.0000
  S   S58       1.0  0.34724  0.28207  0.06063  1.0000
  S   S59       1.0  0.21812  0.35722  0.00903  1.0000
  C   C263      1.0  0.20597  0.42863  0.45189  1.0000
  C   C264      1.0  0.29171  0.28234  0.22773  1.0000
  H   H472      1.0  0.26195  0.30696  0.38246  1.0000
  S   S60       1.0  0.30513  0.29028  0.04212  1.0000
  S   S61       1.0  0.23961  0.38118  0.16207  1.0000
  H   H473      1.0  0.19569  0.28652  0.05037  1.0000
  H   H474      1.0  0.34773  0.33260  0.12330  1.0000
  H   H475      1.0  0.45715  0.26536  0.47881  1.0000
  H   H476      1.0  0.26529  0.32740  0.16576  1.0000
  H   H477      1.0  0.32265  0.40630  0.41376  1.0000
  H   H478      1.0  0.46710  0.25793  0.42908  1.0000
  C   C265      1.0  0.13020  0.29294  0.46237  1.0000
  C   C266      1.0  0.27276  0.26103  0.15322  1.0000
  C   C267      1.0  0.10601  0.42758  0.46926  1.0000
  H   H479      1.0  0.15310  0.47941  0.30821  1.0000
  C   C268      1.0  0.39595  0.29056  0.49315  1.0000
  H   H480      1.0  0.10529  0.33473  0.00817  1.0000
  H   H481      1.0  0.44774  0.31927  0.48010  1.0000
  C   C269      1.0  0.28323  0.39347  0.46395  1.0000
  H   H482      1.0  0.27773  0.47625  0.47275  1.0000
  H   H483      1.0  0.30273  0.45670  0.40326  1.0000
  C   C270      1.0  0.40173  0.26889  0.13002  1.0000
  S   S62       1.0  0.16017  0.48534  0.47523  1.0000
  H   H484      1.0  0.47104  0.28823  0.43143  1.0000
  H   H485      1.0  0.10639  0.40096  0.45573  1.0000
  H   H486      1.0  0.29070  0.42978  0.44335  1.0000
  H   H487      1.0  0.16155  0.30423  0.00452  1.0000
  H   H488      1.0  0.30713  0.44322  0.36820  1.0000
  H   H489      1.0  0.17990  0.39701  0.45627  1.0000
  H   H490      1.0  0.43169  0.24561  0.35982  1.0000
  C   C271      1.0  0.16116  0.27425  0.03940  1.0000
  H   H491      1.0  0.08841  0.47895  0.33347  1.0000
  H   H492      1.0  0.28393  0.43935  0.38312  1.0000
  H   H493      1.0  0.23840  0.48464  0.46366  1.0000
  C   C272      1.0  0.40390  0.27332  0.08978  1.0000
  C   C273      1.0  0.25781  0.42287  0.48605  1.0000
  H   H494      1.0  0.47743  0.38818  0.00715  1.0000
  H   H495      1.0  0.31806  0.40788  0.45972  1.0000
  C   C274      1.0  0.27219  0.46141  0.47664  1.0000
  H   H496      1.0  0.07133  0.29342  0.46373  1.0000
  C   C275      1.0  0.17457  0.30638  0.01807  1.0000
  H   H497      1.0  0.21775  0.40131  0.48248  1.0000
  H   H498      1.0  0.08843  0.25171  0.49034  1.0000
  H   H499      1.0  0.13365  0.39601  0.43806  1.0000
  H   H500      1.0  0.13104  0.37929  0.00587  1.0000
  H   H501      1.0  0.34057  0.39549  0.48358  1.0000
  H   H502      1.0  0.09457  0.28012  0.47222  1.0000
  C   C276      1.0  0.04315  0.28181  0.47981  1.0000
  C   C277      1.0  0.06258  0.28188  0.48165  1.0000
  C   C278      1.0  0.15974  0.41002  0.46181  1.0000
  C   C279      1.0  0.42617  0.24502  0.38762  1.0000
  C   C280      1.0  0.33978  0.38857  0.45775  1.0000
  S   S63       1.0  0.31232  0.24506  0.08698  1.0000
  H   H503      1.0  0.17974  0.32103  0.02604  1.0000
  H   H504      1.0  0.27668  0.36442  0.48185  1.0000
  H   H505      1.0  0.20788  0.47659  0.02013  1.0000
  H   H506      1.0  0.10092  0.30312  0.48474  1.0000
  C   C281      1.0  0.28221  0.37843  0.49259  1.0000
  N   N16       1.0  0.19326  0.42219  0.48426  1.0000
  H   H507      1.0  0.23860  0.47883  0.01555  1.0000
  H   H508      1.0  0.48559  0.31784  0.39877  1.0000
  H   H509      1.0  0.18018  0.44247  0.47988  1.0000
  C   C282      1.0  0.17638  0.40587  0.47583  1.0000
  H   H510      1.0  0.27047  0.25281  0.40095  1.0000
  H   H511      1.0  0.13939  0.38253  0.47228  1.0000
  C   C283      1.0  0.09719  0.43680  0.48985  1.0000
  H   H512      1.0  0.18517  0.39397  0.00902  1.0000
  H   H513      1.0  0.10176  0.45168  0.48796  1.0000
  H   H514      1.0  0.42381  0.25350  0.19604  1.0000
  C   C284      1.0  0.32975  0.24650  0.26977  1.0000
  S   S64       1.0  0.32665  0.25149  0.00289  1.0000
  C   C285      1.0  0.10026  0.28931  0.49458  1.0000
  C   C286      1.0  0.11959  0.33916  0.00036  1.0000
  C   C287      1.0  0.46343  0.24623  0.37640  1.0000
  S   S65       1.0  0.13209  0.49440  0.42098  1.0000
  C   C288      1.0  0.20240  0.46238  0.00983  1.0000
  H   H515      1.0  0.17262  0.45277  0.00959  1.0000
  C   C289      1.0  0.19770  0.42379  0.00252  1.0000
  H   H516      1.0  0.18425  0.42535  0.00400  1.0000
  H   H517      1.0  0.25620  0.27149  0.49118  1.0000
  S   S66       1.0  0.13409  0.46162  0.99911  1.0000
  C   C290      1.0  0.12027  0.29060  0.49873  1.0000
  H   H518      1.0  0.30638  0.25720  0.49889  1.0000
  H   H519      1.0  0.99083  0.34739  0.00496  1.0000
  H   H520      1.0  0.18293  0.48642  0.00190  1.0000
  H   H521      1.0  0.22229  0.25591  0.49652  1.0000
  H   H522      1.0  0.08200  0.33272  0.82495  1.0000
  S   S67       1.0  0.43822  0.31826  0.55606  1.0000
  C   C291      1.0  0.23726  0.47145  0.93052  1.0000
  C   C292      1.0  0.12365  0.35618  0.77613  1.0000
  H   H523      1.0  0.17671  0.37080  0.82648  1.0000
  C   C293      1.0  0.10910  0.36055  0.75400  1.0000
  Fe  Fe34      1.0  0.46931  0.32988  0.55232  1.0000
  Fe  Fe35      1.0  0.07989  0.33969  0.92974  1.0000
  S   S68       1.0  0.08210  0.36797  0.91071  1.0000
  S   S69       1.0  0.10833  0.33725  0.92985  1.0000
  Fe  Fe36      1.0  0.03696  0.32636  0.93375  1.0000
  S   S70       1.0  0.03757  0.35441  0.91590  1.0000
  S   S71       1.0  0.01001  0.30272  0.95216  1.0000
  Fe  Fe37      1.0  0.05886  0.35384  0.87490  1.0000
  S   S72       1.0  0.06050  0.36594  0.81798  1.0000
  Fe  Fe38      1.0  0.06098  0.36587  0.95299  1.0000
  H   H524      1.0  0.14963  0.35097  0.54575  1.0000
  S   S73       1.0  0.05760  0.32540  0.89112  1.0000
  H   H525      1.0  0.16910  0.35957  0.86996  1.0000
  H   H526      1.0  0.07582  0.26012  0.56429  1.0000
  Fe  Fe39      1.0  0.02657  0.32444  0.55779  1.0000
  S   S74       1.0  0.03326  0.34624  0.59942  1.0000
  H   H527      1.0  0.31753  0.28862  0.52457  1.0000
  Fe  Fe40      1.0  0.06839  0.33629  0.53454  1.0000
  S   S75       1.0  0.07701  0.35777  0.57576  1.0000
  H   H528      1.0  0.45618  0.33860  0.80210  1.0000
  Fe  Fe41      1.0  0.05656  0.33735  0.61360  1.0000
  S   S76       1.0  0.06298  0.32888  0.66905  1.0000
  Fe  Fe42      1.0  0.05322  0.36478  0.55758  1.0000
  S   S77       1.0  0.04950  0.31494  0.57347  1.0000
  H   H529      1.0  0.08658  0.28124  0.60713  1.0000
  H   H530      1.0  0.26953  0.36822  0.54478  1.0000
  C   C294      1.0  0.12539  0.46773  0.57837  1.0000
  H   H531      1.0  0.22319  0.25893  0.54441  1.0000
  H   H532      1.0  0.46082  0.37121  0.62505  1.0000
  H   H533      1.0  0.43205  0.32799  0.79517  1.0000
  C   C295      1.0  0.29137  0.46556  0.97974  1.0000
  C   C296      1.0  0.20332  0.41608  0.51295  1.0000
  H   H534      1.0  0.18787  0.46397  0.54914  1.0000
  C   C297      1.0  0.44370  0.25259  0.89504  1.0000
  H   H535      1.0  0.29070  0.44001  0.90794  1.0000
  H   H536      1.0  0.19534  0.41343  0.53879  1.0000
  H   H537      1.0  0.46402  0.27752  0.87068  1.0000
  H   H538      1.0  0.11649  0.34575  0.54756  1.0000
  H   H539      1.0  0.42193  0.26733  0.51240  1.0000
  H   H540      1.0  0.20857  0.48173  0.53195  1.0000
  C   C298      1.0  0.25072  0.24595  0.52457  1.0000
  H   H541      1.0  0.44374  0.27367  0.53289  1.0000
  C   C299      1.0  0.26423  0.44289  0.95584  1.0000
  C   C300      1.0  0.27803  0.46052  0.95394  1.0000
  H   H542      1.0  0.25445  0.43881  0.93494  1.0000
  H   H543      1.0  0.27868  0.46998  0.93190  1.0000
  C   C301      1.0  0.05916  0.35477  0.77677  1.0000
  C   C302      1.0  0.05648  0.33605  0.77518  1.0000
  C   C303      1.0  0.05735  0.32820  0.74196  1.0000
  C   C304      1.0  0.06011  0.33877  0.70988  1.0000
  C   C305      1.0  0.06190  0.35726  0.71134  1.0000
  C   C306      1.0  0.06159  0.36525  0.74462  1.0000
  H   H544      1.0  0.05388  0.32764  0.79954  1.0000
  H   H545      1.0  0.05581  0.31384  0.74112  1.0000
  H   H546      1.0  0.06396  0.36543  0.68683  1.0000
  H   H547      1.0  0.06330  0.37965  0.74552  1.0000
  H   H548      1.0  0.12583  0.36790  0.70468  1.0000
  H   H549      1.0  0.45509  0.27440  0.67415  1.0000
  H   H550      1.0  0.09917  0.39419  0.85292  1.0000
  H   H551      1.0  0.26850  0.45557  0.80765  1.0000
  H   H552      1.0  0.14759  0.34888  0.92657  1.0000
  H   H553      1.0  0.46038  0.31073  0.63227  1.0000
  C   C307      1.0  0.08155  0.30518  0.82977  1.0000
  C   C308      1.0  0.44778  0.30619  0.68625  1.0000
  H   H554      1.0  0.10985  0.34425  0.70792  1.0000
  C   C309      1.0  0.43090  0.30615  0.95411  1.0000
  H   H555      1.0  0.11970  0.40248  0.53310  1.0000
  H   H556      1.0  0.36338  0.24467  0.51490  1.0000
  H   H557      1.0  0.09840  0.39360  0.80483  1.0000
  H   H558      1.0  0.44017  0.30783  0.93145  1.0000
  H   H559      1.0  0.19140  0.33108  0.96239  1.0000
  C   C310      1.0  0.30301  0.25879  0.52718  1.0000
  H   H560      1.0  0.32044  0.42580  0.93221  1.0000
  H   H561      1.0  0.10988  0.37486  0.75823  1.0000
  H   H562      1.0  0.25703  0.27481  0.53834  1.0000
  H   H563      1.0  0.13683  0.36758  0.76928  1.0000
  H   H564      1.0  0.06519  0.24705  0.50599  1.0000
  C   C311      1.0  0.18430  0.45972  0.99056  1.0000
  C   C312      1.0  0.46290  0.28630  0.65610  1.0000
  H   H565      1.0  0.43825  0.29406  0.70201  1.0000
  S   S78       1.0  0.24573  0.40817  0.98403  1.0000
  C   C313      1.0  0.30385  0.43816  0.90286  1.0000
  H   H566      1.0  0.40896  0.28420  0.93121  1.0000
  H   H567      1.0  0.44498  0.35063  0.77546  1.0000
  C   C314      1.0  0.18272  0.47798  0.97838  1.0000
  C   C315      1.0  0.13846  0.35974  0.83441  1.0000
  H   H568      1.0  0.40009  0.29653  0.54904  1.0000
  C   C316      1.0  0.11398  0.44177  0.99746  1.0000
  H   H569      1.0  0.22992  0.27872  0.51389  1.0000
  H   H570      1.0  0.48583  0.28132  0.53590  1.0000
  H   H571      1.0  0.27453  0.47801  0.78593  1.0000
  H   H572      1.0  0.19557  0.38681  0.49934  1.0000
  S   S79       1.0  0.48593  0.35315  0.58640  1.0000
  H   H573      1.0  0.34804  0.44587  0.78231  1.0000
  H   H574      1.0  0.32793  0.49283  0.87099  1.0000
  H   H575      1.0  0.22915  0.40441  0.54480  1.0000
  H   H576      1.0  0.00010  0.34978  0.95990  1.0000
  C   C317      1.0  0.27613  0.47053  0.81054  1.0000
  C   C318      1.0  0.33523  0.44261  0.83554  1.0000
  H   H577      1.0  0.32828  0.42490  0.78968  1.0000
  H   H578      1.0  0.09625  0.40385  0.94659  1.0000
  S   S80       1.0  0.48299  0.31084  0.57202  1.0000
  H   H579      1.0  0.28904  0.45070  0.85186  1.0000
  C   C319      1.0  0.15675  0.34979  0.98079  1.0000
  H   H580      1.0  0.09881  0.26435  0.55230  1.0000
  H   H581      1.0  0.35457  0.48106  0.88130  1.0000
  N   N17       1.0  0.08791  0.28347  0.52761  1.0000
  C   C320      1.0  0.46611  0.37306  0.65254  1.0000
  C   C321      1.0  0.08581  0.26441  0.54127  1.0000
  H   H582      1.0  0.14444  0.33438  0.84125  1.0000
  C   C322      1.0  0.40086  0.29037  0.98318  1.0000
  H   H583      1.0  0.08585  0.30692  0.64279  1.0000
  C   C323      1.0  0.11022  0.33379  0.82699  1.0000
  H   H584      1.0  0.34964  0.42708  0.80936  1.0000
  C   C324      1.0  0.29941  0.46493  0.85083  1.0000
  C   C325      1.0  0.32193  0.45271  0.82663  1.0000
  H   H585      1.0  0.46545  0.28096  0.63011  1.0000
  H   H586      1.0  0.43168  0.24995  0.52234  1.0000
  S   S81       1.0  0.47904  0.32061  0.89349  1.0000
  C   C326      1.0  0.42331  0.31458  0.66140  1.0000
  C   C327      1.0  0.41294  0.32790  0.65565  1.0000
  C   C328      1.0  0.39575  0.31883  0.63451  1.0000
  H   H587      1.0  0.42268  0.31216  0.73131  1.0000
  H   H588      1.0  0.42694  0.31169  0.63392  1.0000
  H   H589      1.0  0.41351  0.30127  0.67301  1.0000
  H   H590      1.0  0.27492  0.39258  0.53668  1.0000
  H   H591      1.0  0.40868  0.33213  0.68133  1.0000
  H   H592      1.0  0.42160  0.34027  0.63965  1.0000
  H   H593      1.0  0.39936  0.31497  0.60779  1.0000
  H   H594      1.0  0.38629  0.30634  0.64915  1.0000
  H   H595      1.0  0.38861  0.32868  0.63048  1.0000
  C   C329      1.0  0.21643  0.39306  0.53784  1.0000
  H   H596      1.0  0.12322  0.43280  0.94931  1.0000
  N   N18       1.0  0.12034  0.35380  0.81625  1.0000
  C   C330      1.0  0.45221  0.29904  0.65030  1.0000
  H   H597      1.0  0.10996  0.33193  0.85659  1.0000
  H   H598      1.0  0.13629  0.35961  0.86403  1.0000
  H   H599      1.0  0.12527  0.34367  0.76516  1.0000
  C   C331      1.0  0.48084  0.25427  0.51647  1.0000
  H   H600      1.0  0.43951  0.29092  0.63686  1.0000
  H   H601      1.0  0.31779  0.46700  0.91266  1.0000
  S   S82       1.0  0.05932  0.33794  0.97381  1.0000
  C   C332      1.0  0.43634  0.31781  0.98285  1.0000
  H   H602      1.0  0.40099  0.25116  0.97545  1.0000
  C   C333      1.0  0.09337  0.30997  0.61655  1.0000
  S   S83       1.0  0.99866  0.30038  0.55248  1.0000
  H   H603      1.0  0.25038  0.47945  0.94279  1.0000
  C   C334      1.0  0.10759  0.39723  0.82779  1.0000
  C   C335      1.0  0.98647  0.29401  0.93978  1.0000
  H   H604      1.0  0.06717  0.29935  0.82141  1.0000
  H   H605      1.0  0.09171  0.32237  0.60416  1.0000
  H   H606      1.0  0.18912  0.47348  0.50417  1.0000
  H   H607      1.0  0.08157  0.30476  0.85946  1.0000
  H   H608      1.0  0.47528  0.39231  0.94175  1.0000
  S   S84       1.0  0.45826  0.33548  0.98310  1.0000
  H   H609      1.0  0.45801  0.26962  0.93629  1.0000
  H   H610      1.0  0.10179  0.36273  0.69899  1.0000
  H   H611      1.0  0.20894  0.46748  0.93794  1.0000
  H   H612      1.0  0.33107  0.27541  0.53808  1.0000
  C   C336      1.0  0.09720  0.41310  0.96808  1.0000
  C   C337      1.0  0.31735  0.27635  0.54061  1.0000
  H   H613      1.0  0.30408  0.24713  0.54347  1.0000
  H   H614      1.0  0.18233  0.45062  0.96749  1.0000
  C   C338      1.0  0.06941  0.28465  0.52046  1.0000
  H   H615      1.0  0.47047  0.24750  0.53688  1.0000
  H   H616      1.0  0.32869  0.43096  0.85494  1.0000
  N   N19       1.0  0.10112  0.41949  0.62683  1.0000
  C   C339      1.0  0.10598  0.41266  0.66178  1.0000
  C   C340      1.0  0.10358  0.40750  0.59764  1.0000
  C   C341      1.0  0.11333  0.43936  0.62011  1.0000
  C   C342      1.0  0.08154  0.41836  0.62761  1.0000
  C   C343      1.0  0.06706  0.39958  0.64064  1.0000
  C   C344      1.0  0.10245  0.42209  0.69571  1.0000
  C   C345      1.0  0.11201  0.44784  0.58275  1.0000
  C   C346      1.0  0.12343  0.40867  0.58955  1.0000
  C   C347      1.0  0.12439  0.39727  0.55741  1.0000
  C   C348      1.0  0.04787  0.40026  0.64109  1.0000
  C   C349      1.0  0.10600  0.41267  0.72954  1.0000
  H   H617      1.0  0.12072  0.41469  0.66147  1.0000
  H   H618      1.0  0.09874  0.39748  0.66549  1.0000
  H   H619      1.0  0.09550  0.39281  0.60444  1.0000
  H   H620      1.0  0.09786  0.41041  0.57235  1.0000
  H   H621      1.0  0.12784  0.44124  0.62435  1.0000
  H   H622      1.0  0.11013  0.44822  0.64005  1.0000
  H   H623      1.0  0.07981  0.42927  0.64434  1.0000
  H   H624      1.0  0.07758  0.42131  0.60042  1.0000
  H   H625      1.0  0.06954  0.39586  0.66823  1.0000
  H   H626      1.0  0.06713  0.38840  0.62294  1.0000
  H   H627      1.0  0.11166  0.43676  0.69539  1.0000
  H   H628      1.0  0.08819  0.42153  0.69789  1.0000
  H   H629      1.0  0.09810  0.44795  0.57898  1.0000
  H   H630      1.0  0.11526  0.44006  0.56091  1.0000
  H   H631      1.0  0.13271  0.42301  0.58322  1.0000
  H   H632      1.0  0.12873  0.40325  0.61275  1.0000
  H   H633      1.0  0.13868  0.39828  0.55227  1.0000
  H   H634      1.0  0.11583  0.38253  0.56247  1.0000
  H   H635      1.0  0.04674  0.41037  0.66052  1.0000
  H   H636      1.0  0.04445  0.40409  0.61416  1.0000
  H   H637      1.0  0.03778  0.38645  0.64913  1.0000
  H   H638      1.0  0.10344  0.41966  0.75345  1.0000
  H   H639      1.0  0.09670  0.39801  0.73157  1.0000
  H   H640      1.0  0.12035  0.41336  0.72958  1.0000
  S   S85       1.0  0.31011  0.48683  0.97600  1.0000
  C   C350      1.0  0.08566  0.29348  0.59266  1.0000
  H   H641      1.0  0.45073  0.31464  0.75793  1.0000
  H   H642      1.0  0.07540  0.43385  0.52843  1.0000
  C   C351      1.0  0.23711  0.48075  0.89417  1.0000
  H   H643      1.0  0.08891  0.29648  0.81939  1.0000
  H   H644      1.0  0.13965  0.46836  0.58062  1.0000
  C   C352      1.0  0.30826  0.42957  0.93686  1.0000
  H   H645      1.0  0.18483  0.29041  0.98056  1.0000
  H   H646      1.0  0.28465  0.27315  0.51935  1.0000
  H   H647      1.0  0.12898  0.39056  0.80231  1.0000
  C   C353      1.0  0.27487  0.45335  0.50880  1.0000
  C   C354      1.0  0.11006  0.36532  0.83064  1.0000
  H   H648      1.0  0.14873  0.39484  0.95124  1.0000
  C   C355      1.0  0.14342  0.34702  0.95452  1.0000
  C   C356      1.0  0.44355  0.26083  0.93207  1.0000
  H   H649      1.0  0.30318  0.48947  0.81669  1.0000
  H   H650      1.0  0.46240  0.28146  0.98826  1.0000
  S   S86       1.0  0.37903  0.27259  0.98204  1.0000
  H   H651      1.0  0.12247  0.47646  0.59885  1.0000
  H   H652      1.0  0.17101  0.35388  0.97292  1.0000
  H   H653      1.0  0.16966  0.47529  0.96480  1.0000
  H   H654      1.0  0.05862  0.27484  0.53847  1.0000
  H   H655      1.0  0.26942  0.42770  0.53828  1.0000
  H   H656      1.0  0.44031  0.35796  0.67819  1.0000
  H   H657      1.0  0.47628  0.29388  0.66784  1.0000
  H   H658      1.0  0.31087  0.43933  0.95900  1.0000
  H   H659      1.0  0.29651  0.41691  0.94507  1.0000
  C   C357      1.0  0.42531  0.30867  0.51830  1.0000
  C   C358      1.0  0.26319  0.43031  0.98413  1.0000
  H   H660      1.0  0.48039  0.37360  0.65188  1.0000
  Fe  Fe43      1.0  0.48098  0.33683  0.94297  1.0000
  H   H661      1.0  0.45357  0.24541  0.89438  1.0000
  H   H662      1.0  0.15155  0.41708  0.96885  1.0000
  C   C359      1.0  0.14215  0.34822  0.52133  1.0000
  H   H663      1.0  0.31453  0.27821  0.56915  1.0000
  C   C360      1.0  0.12474  0.34181  0.96408  1.0000
  H   H664      1.0  0.30177  0.46947  0.79199  1.0000
  C   C361      1.0  0.45427  0.33838  0.66613  1.0000
  C   C362      1.0  0.35210  0.48707  0.85570  1.0000
  H   H665      1.0  0.12971  0.39099  0.85013  1.0000
  H   H666      1.0  0.17769  0.34840  0.83627  1.0000
  H   H667      1.0  0.21671  0.42710  0.51768  1.0000
  H   H668      1.0  0.30174  0.42826  0.88116  1.0000
  H   H669      1.0  0.11559  0.41226  0.82591  1.0000
  H   H670      1.0  0.20454  0.43707  0.95047  1.0000
  N   N20       1.0  0.44006  0.32137  0.68372  1.0000
  H   H671      1.0  0.33107  0.49003  0.82459  1.0000
  C   C363      1.0  0.43478  0.26447  0.51323  1.0000
  H   H672      1.0  0.46827  0.33865  0.67090  1.0000
  H   H673      1.0  0.10648  0.36173  0.85950  1.0000
  C   C364      1.0  0.28359  0.25944  0.53084  1.0000
  H   H674      1.0  0.45013  0.26167  0.83941  1.0000
  H   H675      1.0  0.44062  0.27562  0.86483  1.0000
  C   C365      1.0  0.43449  0.32441  0.72118  1.0000
  C   C366      1.0  0.44955  0.32791  0.74921  1.0000
  H   H676      1.0  0.30900  0.44170  0.81914  1.0000
  C   C367      1.0  0.18826  0.30476  0.98898  1.0000
  H   H677      1.0  0.34790  0.45168  0.84752  1.0000
  H   H678      1.0  0.42829  0.26781  0.99073  1.0000
  C   C368      1.0  0.44998  0.26782  0.86578  1.0000
  C   C369      1.0  0.18831  0.31649  0.95558  1.0000
  S   S87       1.0  0.28782  0.46667  0.54340  1.0000
  C   C370      1.0  0.98976  0.34041  0.97915  1.0000
  H   H679      1.0  0.17847  0.43202  0.52288  1.0000
  H   H680      1.0  0.22392  0.48571  0.96269  1.0000
  C   C371      1.0  0.44533  0.33681  0.78245  1.0000
  H   H681      1.0  0.10804  0.31294  0.62117  1.0000
  H   H682      1.0  0.99292  0.32772  0.98323  1.0000
  H   H683      1.0  0.14692  0.37422  0.82634  1.0000
  H   H684      1.0  0.12906  0.40103  0.95890  1.0000
  H   H685      1.0  0.07104  0.29107  0.58917  1.0000
  C   C372      1.0  0.19683  0.46931  0.52496  1.0000
  C   C373      1.0  0.11245  0.42957  0.96964  1.0000
  H   H686      1.0  0.27027  0.47548  0.83356  1.0000
  C   C374      1.0  0.15041  0.34805  0.82708  1.0000
  C   C375      1.0  0.26982  0.37889  0.52430  1.0000
  H   H687      1.0  0.06935  0.29849  0.52700  1.0000
  H   H688      1.0  0.22343  0.43500  0.97224  1.0000
  C   C376      1.0  0.43585  0.25840  0.99584  1.0000
  H   H689      1.0  0.12792  0.30283  0.51425  1.0000
  H   H690      1.0  0.45954  0.36038  0.70489  1.0000
  C   C377      1.0  0.45415  0.35740  0.67768  1.0000
  H   H691      1.0  0.11017  0.29663  0.56296  1.0000
  H   H692      1.0  0.43622  0.27065  0.93015  1.0000
  C   C378      1.0  0.07631  0.40734  0.51568  1.0000
  C   C379      1.0  0.41321  0.29269  0.95413  1.0000
  C   C380      1.0  0.16964  0.35734  0.84082  1.0000
  C   C381      1.0  0.12333  0.34527  0.52245  1.0000
  C   C382      1.0  0.33169  0.48405  0.85156  1.0000
  H   H693      1.0  0.46077  0.31092  0.70090  1.0000
  C   C383      1.0  0.11193  0.35876  0.71397  1.0000
  H   H694      1.0  0.46300  0.33689  0.73783  1.0000
  H   H695      1.0  0.40632  0.25309  0.92792  1.0000
  C   C384      1.0  0.34058  0.43465  0.80208  1.0000
  H   H696      1.0  0.99002  0.31019  0.89092  1.0000
  H   H697      1.0  0.45319  0.33784  0.63650  1.0000
  H   H698      1.0  0.21982  0.38077  0.53177  1.0000
  C   C385      1.0  0.09653  0.29683  0.55641  1.0000
  H   H699      1.0  0.19389  0.48603  0.95938  1.0000
  C   C386      1.0  0.12048  0.38652  0.82732  1.0000
  H   H700      1.0  0.23677  0.45729  0.92588  1.0000
  C   C387      1.0  0.09038  0.32500  0.81498  1.0000
  H   H701      1.0  0.12403  0.47343  0.55152  1.0000
  N   N21       1.0  0.43602  0.24735  0.96327  1.0000
  H   H702      1.0  0.20670  0.38945  0.56118  1.0000
  H   H703      1.0  0.09508  0.35138  0.76160  1.0000
  S   S88       1.0  0.05834  0.39507  0.54634  1.0000
  S   S89       1.0  0.04495  0.34385  0.51487  1.0000
  H   H704      1.0  0.21156  0.45140  0.53277  1.0000
  H   H705      1.0  0.09888  0.31113  0.54655  1.0000
  C   C388      1.0  0.08226  0.42668  0.51273  1.0000
  H   H706      1.0  0.08998  0.32441  0.78548  1.0000
  H   H707      1.0  0.42937  0.33592  0.72174  1.0000
  C   C389      1.0  0.26749  0.43403  0.51343  1.0000
  C   C390      1.0  0.22103  0.47120  0.95503  1.0000
  N   N22       1.0  0.31831  0.46443  0.85529  1.0000
  H   H708      1.0  0.09672  0.36210  0.81793  1.0000
  H   H709      1.0  0.11739  0.32499  0.81614  1.0000
  H   H710      1.0  0.15155  0.34594  0.79806  1.0000
  H   H711      1.0  0.46603  0.38643  0.66202  1.0000
  H   H712      1.0  0.18792  0.40246  0.96318  1.0000
  C   C391      1.0  0.29636  0.47431  0.81572  1.0000
  N   N23       1.0  0.21695  0.45859  0.98800  1.0000
  H   H713      1.0  0.32709  0.46121  0.80156  1.0000
  C   C392      1.0  0.20385  0.45475  0.51094  1.0000
  H   H714      1.0  0.28041  0.25961  0.55995  1.0000
  H   H715      1.0  0.29575  0.47208  0.87349  1.0000
  C   C393      1.0  0.21119  0.43879  0.97679  1.0000
  C   C394      1.0  0.40651  0.29843  0.52268  1.0000
  H   H716      1.0  0.19891  0.31597  0.93601  1.0000
  H   H717      1.0  0.24960  0.48204  0.87828  1.0000
  H   H718      1.0  0.22501  0.47251  0.87916  1.0000
  C   C395      1.0  0.14258  0.40230  0.96922  1.0000
  C   C396      1.0  0.31896  0.45705  0.89269  1.0000
  H   H719      1.0  0.17484  0.31121  0.94290  1.0000
  H   H720      1.0  0.33232  0.45584  0.89763  1.0000
  H   H721      1.0  0.25567  0.37598  0.51565  1.0000
  H   H722      1.0  0.35699  0.48101  0.83301  1.0000
  C   C397      1.0  0.20790  0.39869  0.50539  1.0000
  C   C398      1.0  0.23002  0.26458  0.51816  1.0000
  C   C399      1.0  0.24970  0.26532  0.51738  1.0000
  H   H723      1.0  0.29591  0.38102  0.50329  1.0000
  C   C400      1.0  0.19436  0.40440  0.98961  1.0000
  C   C401      1.0  0.08318  0.40875  0.99419  1.0000
  S   S90       1.0  0.06393  0.38796  0.99374  1.0000
  H   H724      1.0  0.46253  0.24481  0.96353  1.0000
  H   H725      1.0  0.24556  0.46262  0.99281  1.0000
  C   C402      1.0  0.07915  0.24885  0.51424  1.0000
  H   H726      1.0  0.12100  0.27810  0.51231  1.0000
  H   H727      1.0  0.20735  0.40188  0.98747  1.0000
  H   H728      1.0  0.20235  0.30966  0.99894  1.0000
  C   C403      1.0  0.18795  0.43745  0.49927  1.0000
  H   H729      1.0  0.17098  0.39683  0.50024  1.0000
  H   H730      1.0  0.16994  0.59765  0.35909  1.0000
  Fe  Fe44      1.0  0.15493  0.50284  0.37933  1.0000
  Fe  Fe45      1.0  0.15248  0.52089  0.07173  1.0000
  S   S91       1.0  0.17216  0.51743  0.11174  1.0000
  C   C404      1.0  0.30840  0.73090  0.45598  1.0000
  C   C405      1.0  0.40672  0.69911  0.42954  1.0000
  H   H731      1.0  0.17141  0.57984  0.31091  1.0000
  C   C406      1.0  0.99172  0.72413  0.43431  1.0000
  C   C407      1.0  0.09247  0.73455  0.27134  1.0000
  S   S92       1.0  0.16452  0.51056  0.02585  1.0000
  H   H732      1.0  0.21529  0.62701  0.02561  1.0000
  Fe  Fe46      1.0  0.43711  0.64237  0.04973  1.0000
  S   S93       1.0  0.42186  0.65430  0.08675  1.0000
  C   C408      1.0  0.22571  0.50417  0.44980  1.0000
  Fe  Fe47      1.0  0.47442  0.66966  0.07194  1.0000
  S   S94       1.0  0.46156  0.68337  0.11091  1.0000
  Fe  Fe48      1.0  0.44271  0.65482  0.12774  1.0000
  S   S95       1.0  0.43077  0.64714  0.18481  1.0000
  Fe  Fe49      1.0  0.44198  0.68184  0.06757  1.0000
  S   S96       1.0  0.43259  0.70566  0.05674  1.0000
  S   S97       1.0  0.45682  0.64085  0.09187  1.0000
  S   S98       1.0  0.45596  0.67008  0.02750  1.0000
  Fe  Fe50      1.0  0.43326  0.64757  0.44673  1.0000
  S   S99       1.0  0.43713  0.66415  0.39473  1.0000
  C   C409      1.0  0.11119  0.70905  0.01239  1.0000
  Fe  Fe51      1.0  0.47438  0.66356  0.46131  1.0000
  C   C410      1.0  0.37339  0.57955  0.09582  1.0000
  Fe  Fe52      1.0  0.45637  0.68751  0.42466  1.0000
  H   H733      1.0  0.40016  0.59740  0.07414  1.0000
  Fe  Fe53      1.0  0.46134  0.65595  0.38483  1.0000
  S   S100      1.0  0.47072  0.64813  0.33176  1.0000
  Fe  Fe54      1.0  0.18261  0.50519  0.06658  1.0000
  S   S101      1.0  0.45641  0.63779  0.43502  1.0000
  H   H734      1.0  0.39539  0.60158  0.11960  1.0000
  C   C411      1.0  0.04412  0.68038  0.41175  1.0000
  H   H735      1.0  0.18691  0.70353  0.01189  1.0000
  H   H736      1.0  0.00639  0.69744  0.27550  1.0000
  H   H737      1.0  0.13740  0.73457  0.10528  1.0000
  Fe  Fe55      1.0  0.09092  0.72846  0.08701  1.0000
  N   N24       1.0  0.04259  0.68015  0.01069  1.0000
  Fe  Fe56      1.0  0.15391  0.51038  0.45829  1.0000
  H   H738      1.0  0.41629  0.73456  0.41609  1.0000
  H   H739      1.0  0.14076  0.58307  0.30458  1.0000
  S   S102      1.0  0.17630  0.52016  0.41602  1.0000
  C   C412      1.0  0.00942  0.65671  0.01868  1.0000
  H   H740      1.0  0.02681  0.68793  0.31032  1.0000
  C   C413      1.0  0.33815  0.56057  0.06071  1.0000
  Fe  Fe57      1.0  0.05842  0.74056  0.07526  1.0000
  C   C414      1.0  0.37036  0.56526  0.06614  1.0000
  S   S103      1.0  0.08193  0.74050  0.03962  1.0000
  H   H741      1.0  0.04342  0.69979  0.07513  1.0000
  H   H742      1.0  0.99608  0.72259  0.01371  1.0000
  H   H743      1.0  0.06180  0.68172  0.05220  1.0000
  C   C415      1.0  0.98959  0.65558  0.01948  1.0000
  C   C416      1.0  0.20530  0.62531  0.00423  1.0000
  S   S104      1.0  0.06678  0.72719  0.12217  1.0000
  H   H744      1.0  0.30212  0.72482  0.15202  1.0000
  C   C417      1.0  0.20555  0.56993  0.38530  1.0000
  H   H745      1.0  0.24516  0.69582  0.02851  1.0000
  H   H746      1.0  0.16618  0.69041  0.47407  1.0000
  H   H747      1.0  0.39800  0.65521  0.37240  1.0000
  H   H748      1.0  0.26516  0.50766  0.49040  1.0000
  H   H749      1.0  0.14768  0.51142  0.19500  1.0000
  C   C418      1.0  0.44291  0.64907  0.22491  1.0000
  C   C419      1.0  0.46022  0.64784  0.22555  1.0000
  C   C420      1.0  0.46863  0.64771  0.25842  1.0000
  C   C421      1.0  0.46005  0.64923  0.29089  1.0000
  C   C422      1.0  0.44295  0.65092  0.29018  1.0000
  C   C423      1.0  0.43436  0.65062  0.25742  1.0000
  H   H750      1.0  0.46688  0.64646  0.20079  1.0000
  S   S105      1.0  0.45085  0.67181  0.47715  1.0000
  H   H751      1.0  0.43622  0.65219  0.31488  1.0000
  H   H752      1.0  0.42103  0.65168  0.25720  1.0000
  H   H753      1.0  0.15498  0.60748  0.01184  1.0000
  H   H754      1.0  0.20343  0.56866  0.41480  1.0000
  H   H755      1.0  0.35874  0.51826  0.09069  1.0000
  N   N25       1.0  0.02159  0.70629  0.34786  1.0000
  C   C424      1.0  0.00672  0.71521  0.06188  1.0000
  H   H756      1.0  0.12908  0.66853  0.01515  1.0000
  H   H757      1.0  0.15125  0.72435  0.05634  1.0000
  H   H758      1.0  0.34413  0.54689  0.12125  1.0000
  C   C425      1.0  0.03153  0.70723  0.24480  1.0000
  C   C426      1.0  0.45784  0.72861  0.45549  1.0000
  S   S106      1.0  0.25953  0.73516  0.41298  1.0000
  H   H759      1.0  0.04547  0.71789  0.24557  1.0000
  H   H760      1.0  0.19480  0.57817  0.33880  1.0000
  H   H761      1.0  0.03629  0.67730  0.35736  1.0000
  C   C427      1.0  0.08960  0.74282  0.30271  1.0000
  C   C428      1.0  0.04363  0.67966  0.11530  1.0000
  S   S107      1.0  0.30864  0.51839  0.49810  1.0000
  H   H762      1.0  0.15521  0.58739  0.06443  1.0000
  H   H763      1.0  0.14916  0.55787  0.25057  1.0000
  H   H764      1.0  0.03007  0.70746  0.40277  1.0000
  H   H765      1.0  0.10679  0.66978  0.46951  1.0000
  H   H766      1.0  0.11465  0.67597  0.06949  1.0000
  C   C429      1.0  0.14879  0.50436  0.21960  1.0000
  H   H767      1.0  0.15228  0.61599  0.40579  1.0000
  C   C430      1.0  0.14719  0.57070  0.25840  1.0000
  H   H768      1.0  0.11078  0.52167  0.39841  1.0000
  H   H769      1.0  0.14406  0.53490  0.41013  1.0000
  H   H770      1.0  0.99333  0.73714  0.42098  1.0000
  H   H771      1.0  0.18600  0.74286  0.41679  1.0000
  C   C431      1.0  0.15752  0.58684  0.37125  1.0000
  C   C432      1.0  0.11605  0.68413  0.04505  1.0000
  C   C433      1.0  0.39368  0.59066  0.09996  1.0000
  N   N26       1.0  0.39699  0.60144  0.35168  1.0000
  C   C434      1.0  0.37884  0.58630  0.36065  1.0000
  C   C435      1.0  0.40071  0.60344  0.31159  1.0000
  C   C436      1.0  0.41158  0.59579  0.36846  1.0000
  C   C437      1.0  0.39817  0.61957  0.36690  1.0000
  C   C438      1.0  0.38331  0.62716  0.35587  1.0000
  C   C439      1.0  0.37340  0.58248  0.40099  1.0000
  C   C440      1.0  0.43163  0.60829  0.35883  1.0000
  C   C441      1.0  0.38412  0.59964  0.28718  1.0000
  C   C442      1.0  0.15116  0.50404  0.28468  1.0000
  C   C443      1.0  0.35444  0.56759  0.40644  1.0000
  C   C444      1.0  0.44494  0.60011  0.37457  1.0000
  H   H772      1.0  0.37870  0.57313  0.34938  1.0000
  H   H773      1.0  0.36749  0.58910  0.34787  1.0000
  H   H774      1.0  0.41074  0.61744  0.30423  1.0000
  H   H775      1.0  0.40730  0.59369  0.30272  1.0000
  H   H776      1.0  0.40984  0.58146  0.36117  1.0000
  H   H777      1.0  0.41034  0.59559  0.39816  1.0000
  H   H778      1.0  0.39825  0.61876  0.39658  1.0000
  H   H779      1.0  0.41139  0.63053  0.35883  1.0000
  H   H780      1.0  0.36940  0.61683  0.36068  1.0000
  H   H781      1.0  0.38299  0.57746  0.41524  1.0000
  H   H782      1.0  0.37309  0.59506  0.41380  1.0000
  H   H783      1.0  0.43479  0.62215  0.36979  1.0000
  H   H784      1.0  0.43444  0.61001  0.32955  1.0000
  H   H785      1.0  0.14114  0.55420  0.43036  1.0000
  H   H786      1.0  0.12728  0.55911  0.36821  1.0000
  H   H787      1.0  0.37379  0.64929  0.36860  1.0000
  H   H788      1.0  0.23497  0.69909  0.43468  1.0000
  H   H789      1.0  0.34394  0.57206  0.39405  1.0000
  H   H790      1.0  0.35405  0.55448  0.39478  1.0000
  H   H791      1.0  0.35101  0.56494  0.43549  1.0000
  H   H792      1.0  0.45916  0.60950  0.36813  1.0000
  H   H793      1.0  0.44302  0.59837  0.40409  1.0000
  H   H794      1.0  0.44294  0.58655  0.36299  1.0000
  H   H795      1.0  0.11046  0.49651  0.33920  1.0000
  H   H796      1.0  0.27924  0.71629  0.46084  1.0000
  H   H797      1.0  0.17598  0.61848  0.41008  1.0000
  H   H798      1.0  0.18083  0.55409  0.46392  1.0000
  C   C445      1.0  0.15683  0.59001  0.41179  1.0000
  C   C446      1.0  0.31786  0.54804  0.05662  1.0000
  H   H799      1.0  0.16520  0.70543  0.11589  1.0000
  C   C447      1.0  0.38919  0.66774  0.03151  1.0000
  H   H800      1.0  0.22440  0.56572  0.02597  1.0000
  H   H801      1.0  0.37444  0.53171  0.04257  1.0000
  H   H802      1.0  0.09296  0.73531  0.21341  1.0000
  H   H803      1.0  0.36670  0.58949  0.08882  1.0000
  C   C448      1.0  0.15259  0.58160  0.03826  1.0000
  H   H804      1.0  0.01241  0.70453  0.11189  1.0000
  H   H805      1.0  0.01798  0.72819  0.37733  1.0000
  H   H806      1.0  0.39935  0.59827  0.23848  1.0000
  N   N27       1.0  0.17527  0.71773  0.44912  1.0000
  S   S108      1.0  0.02961  0.73098  0.05120  1.0000
  H   H807      1.0  0.16065  0.61210  0.44853  1.0000
  C   C449      1.0  0.18443  0.72710  0.48217  1.0000
  C   C450      1.0  0.44922  0.71839  0.48624  1.0000
  H   H808      1.0  0.04790  0.70901  0.01814  1.0000
  H   H809      1.0  0.03820  0.66449  0.12024  1.0000
  H   H810      1.0  0.21437  0.73856  0.43639  1.0000
  H   H811      1.0  0.14980  0.70954  0.39289  1.0000
  H   H812      1.0  0.35347  0.52891  0.16745  1.0000
  C   C451      1.0  0.13830  0.55341  0.37123  1.0000
  H   H813      1.0  0.10782  0.54125  0.41922  1.0000
  H   H814      1.0  0.01349  0.72920  0.33176  1.0000
  H   H815      1.0  0.09653  0.72268  0.27331  1.0000
  C   C452      1.0  0.00215  0.69324  0.35562  1.0000
  H   H816      1.0  0.33827  0.56905  0.08423  1.0000
  C   C453      1.0  0.23951  0.49888  0.46391  1.0000
  H   H817      1.0  0.13560  0.57189  0.24339  1.0000
  H   H818      1.0  0.12237  0.71877  0.38971  1.0000
  N   N28       1.0  0.18092  0.70902  0.06650  1.0000
  H   H819      1.0  0.15712  0.67067  0.08851  1.0000
  C   C454      1.0  0.17483  0.69819  0.45080  1.0000
  C   C455      1.0  0.16718  0.68649  0.41802  1.0000
  C   C456      1.0  0.38450  0.64404  0.37712  1.0000
  C   C457      1.0  0.22493  0.51643  0.01963  1.0000
  C   C458      1.0  0.00200  0.70389  0.09303  1.0000
  C   C459      1.0  0.02033  0.70770  0.27843  1.0000
  C   C460      1.0  0.16834  0.66736  0.42226  1.0000
  C   C461      1.0  0.10943  0.69867  0.04417  1.0000
  C   C462      1.0  0.24274  0.51648  0.01757  1.0000
  C   C463      1.0  0.09041  0.74165  0.23731  1.0000
  H   H820      1.0  0.19812  0.72609  0.48459  1.0000
  H   H821      1.0  0.01844  0.68670  0.02118  1.0000
  H   H822      1.0  0.41564  0.60034  0.47260  1.0000
  C   C464      1.0  0.16840  0.67315  0.06838  1.0000
  H   H823      1.0  0.18863  0.69792  0.45582  1.0000
  H   H824      1.0  0.37736  0.54825  0.00665  1.0000
  H   H825      1.0  0.17488  0.69304  0.39310  1.0000
  H   H826      1.0  0.15255  0.68438  0.41540  1.0000
  H   H827      1.0  0.21631  0.72341  0.03880  1.0000
  H   H828      1.0  0.13275  0.71042  0.11425  1.0000
  S   S109      1.0  0.48092  0.68075  0.41070  1.0000
  H   H829      1.0  0.03778  0.68600  0.13615  1.0000
  H   H830      1.0  0.33886  0.50862  0.14551  1.0000
  C   C465      1.0  0.20655  0.73052  0.41423  1.0000
  H   H831      1.0  0.21962  0.71509  0.08224  1.0000
  C   C466      1.0  0.19674  0.72493  0.08001  1.0000
  H   H832      1.0  0.16314  0.65938  0.39810  1.0000
  H   H833      1.0  0.18267  0.66844  0.42575  1.0000
  H   H834      1.0  0.15983  0.65969  0.44570  1.0000
  C   C467      1.0  0.11624  0.53247  0.41836  1.0000
  C   C468      1.0  0.12736  0.71530  0.41544  1.0000
  H   H835      1.0  0.38534  0.63163  0.32724  1.0000
  H   H836      1.0  0.20455  0.55636  0.37494  1.0000
  C   C469      1.0  0.22768  0.52276  0.44889  1.0000
  H   H837      1.0  0.01780  0.67320  0.38954  1.0000
  C   C470      1.0  0.15604  0.71795  0.44905  1.0000
  H   H838      1.0  0.07452  0.67035  0.00994  1.0000
  C   C471      1.0  0.21236  0.56937  0.03277  1.0000
  C   C472      1.0  0.30487  0.73964  0.15614  1.0000
  C   C473      1.0  0.38711  0.61217  0.01354  1.0000
  H   H839      1.0  0.01605  0.70255  0.47832  1.0000
  H   H840      1.0  0.30917  0.71317  0.41215  1.0000
  C   C474      1.0  0.20229  0.55659  0.06407  1.0000
  H   H841      1.0  0.21953  0.57995  0.37899  1.0000
  C   C475      1.0  0.25329  0.72433  0.01087  1.0000
  C   C476      1.0  0.40145  0.59595  0.48116  1.0000
  H   H842      1.0  0.24861  0.51272  0.04102  1.0000
  H   H843      1.0  0.48260  0.73861  0.03796  1.0000
  C   C477      1.0  0.98647  0.69929  0.34266  1.0000
  H   H844      1.0  0.16298  0.67347  0.04138  1.0000
  C   C478      1.0  0.02882  0.70275  0.31224  1.0000
  H   H845      1.0  0.38675  0.65381  0.04340  1.0000
  H   H846      1.0  0.48179  0.64628  0.25861  1.0000
  H   H847      1.0  0.21683  0.58367  0.04209  1.0000
  H   H848      1.0  0.36220  0.51156  0.15381  1.0000
  S   S110      1.0  0.40400  0.63220  0.46764  1.0000
  C   C479      1.0  0.03336  0.70277  0.37649  1.0000
  C   C480      1.0  0.17547  0.56178  0.48162  1.0000
  S   S111      1.0  0.21263  0.50980  0.06066  1.0000
  C   C481      1.0  0.25672  0.53050  0.47810  1.0000
  H   H849      1.0  0.26553  0.72882  0.02623  1.0000
  H   H850      1.0  0.04241  0.66566  0.41574  1.0000
  C   C482      1.0  0.22498  0.70123  0.48784  1.0000
  H   H851      1.0  0.38590  0.70966  0.44382  1.0000
  H   H852      1.0  0.19019  0.55972  0.07292  1.0000
  H   H853      1.0  0.15442  0.73346  0.40030  1.0000
  H   H854      1.0  0.21148  0.55838  0.08691  1.0000
  C   C483      1.0  0.18388  0.72979  0.00894  1.0000
  N   N29       1.0  0.35146  0.55074  0.06473  1.0000
  H   H855      1.0  0.01229  0.65256  0.04571  1.0000
  S   S112      1.0  0.42453  0.61939  0.01031  1.0000
  H   H856      1.0  0.37323  0.53865  0.11257  1.0000
  H   H857      1.0  0.18017  0.72269  0.39174  1.0000
  C   C484      1.0  0.30629  0.55939  0.04634  1.0000
  C   C485      1.0  0.21596  0.72582  0.06767  1.0000
  C   C486      1.0  0.14302  0.57018  0.29857  1.0000
  H   H858      1.0  0.15966  0.58273  0.25067  1.0000
  C   C487      1.0  0.35296  0.51891  0.14645  1.0000
  C   C488      1.0  0.00706  0.72183  0.44960  1.0000
  H   H859      1.0  0.17966  0.65553  0.09835  1.0000
  S   S113      1.0  0.46005  0.71747  0.41652  1.0000
  H   H860      1.0  0.35826  0.60706  0.01337  1.0000
  H   H861      1.0  0.33255  0.52769  0.09569  1.0000
  C   C489      1.0  0.16173  0.61042  0.41927  1.0000
  H   H862      1.0  0.38089  0.55901  0.06895  1.0000
  S   S114      1.0  0.09312  0.73389  0.34490  1.0000
  H   H863      1.0  0.00007  0.67947  0.34475  1.0000
  H   H864      1.0  0.34237  0.57044  0.03733  1.0000
  H   H865      1.0  0.18537  0.65788  0.05097  1.0000
  H   H866      1.0  0.44380  0.70357  0.48620  1.0000
  C   C490      1.0  0.37431  0.60280  0.49319  1.0000
  S   S115      1.0  0.14984  0.54908  0.07258  1.0000
  H   H867      1.0  0.13499  0.54167  0.35282  1.0000
  H   H868      1.0  0.17040  0.56112  0.40554  1.0000
  C   C491      1.0  0.17184  0.56288  0.37610  1.0000
  H   H869      1.0  0.19633  0.69112  0.05943  1.0000
  H   H870      1.0  0.41701  0.67322  0.01610  1.0000
  H   H871      1.0  0.16647  0.58528  0.42633  1.0000
  H   H872      1.0  0.14947  0.52678  0.25289  1.0000
  H   H873      1.0  0.11990  0.70044  0.42184  1.0000
  H   H874      1.0  0.37587  0.58464  0.28799  1.0000
  C   C492      1.0  0.35905  0.52889  0.11009  1.0000
  H   H875      1.0  0.15029  0.72749  0.13801  1.0000
  H   H876      1.0  0.16427  0.70215  0.01984  1.0000
  H   H877      1.0  0.36744  0.61258  0.49368  1.0000
  H   H878      1.0  0.18674  0.74209  0.48019  1.0000
  C   C493      1.0  0.13615  0.54417  0.40914  1.0000
  H   H879      1.0  0.15527  0.73000  0.46356  1.0000
  H   H880      1.0  0.16079  0.55542  0.31175  1.0000
  H   H881      1.0  0.37509  0.60699  0.29548  1.0000
  H   H882      1.0  0.98819  0.70364  0.31409  1.0000
  N   N30       1.0  0.15663  0.56796  0.36062  1.0000
  H   H883      1.0  0.26667  0.68204  0.49110  1.0000
  C   C494      1.0  0.03845  0.68459  0.07837  1.0000
  H   H884      1.0  0.17097  0.54915  0.36650  1.0000
  C   C495      1.0  0.23504  0.70830  0.45590  1.0000
  H   H885      1.0  0.13010  0.55837  0.30435  1.0000
  H   H886      1.0  0.14280  0.58266  0.42291  1.0000
  H   H887      1.0  0.37825  0.60180  0.23114  1.0000
  H   H888      1.0  0.20785  0.71681  0.41447  1.0000
  H   H889      1.0  0.38238  0.64040  0.40619  1.0000
  S   S116      1.0  0.02872  0.74085  0.44714  1.0000
  H   H890      1.0  0.05868  0.68830  0.40451  1.0000
  C   C496      1.0  0.36750  0.53554  0.02007  1.0000
  C   C497      1.0  0.43896  0.71740  0.01505  1.0000
  C   C498      1.0  0.39030  0.60541  0.24828  1.0000
  C   C499      1.0  0.17449  0.65663  0.07135  1.0000
  H   H891      1.0  0.31207  0.54051  0.08224  1.0000
  H   H892      1.0  0.14594  0.58999  0.36022  1.0000
  C   C500      1.0  0.12427  0.67991  0.01434  1.0000
  C   C501      1.0  0.35007  0.53905  0.03231  1.0000
  C   C502      1.0  0.15890  0.56826  0.32035  1.0000
  C   C503      1.0  0.14949  0.56280  0.03434  1.0000
  H   H893      1.0  0.40087  0.58160  0.10968  1.0000
  C   C504      1.0  0.00456  0.70473  0.46634  1.0000
  S   S117      1.0  0.07079  0.72427  0.44011  1.0000
  H   H894      1.0  0.20877  0.73313  0.35592  1.0000
  H   H895      1.0  0.04805  0.71093  0.37062  1.0000
  C   C505      1.0  0.23056  0.74452  0.07489  1.0000
  C   C506      1.0  0.18432  0.69147  0.07533  1.0000
  H   H896      1.0  0.39750  0.68459  0.43478  1.0000
  H   H897      1.0  0.16276  0.64376  0.06668  1.0000
  C   C507      1.0  0.34610  0.53880  0.09851  1.0000
  H   H898      1.0  0.22578  0.56566  0.47521  1.0000
  H   H899      1.0  0.21738  0.68661  0.49124  1.0000
  C   C508      1.0  0.98702  0.69058  0.46877  1.0000
  H   H900      1.0  0.19342  0.59035  0.37855  1.0000
  H   H901      1.0  0.09576  0.69585  0.47443  1.0000
  C   C509      1.0  0.19154  0.57663  0.36792  1.0000
  H   H902      1.0  0.38987  0.62240  0.03380  1.0000
  Fe  Fe58      1.0  0.09230  0.73754  0.47991  1.0000
  H   H903      1.0  0.17769  0.73841  0.02333  1.0000
  H   H904      1.0  0.02336  0.67932  0.07803  1.0000
  H   H905      1.0  0.11526  0.52561  0.44512  1.0000
  C   C510      1.0  0.99277  0.71402  0.03792  1.0000
  H   H906      1.0  0.18785  0.69099  0.10394  1.0000
  H   H907      1.0  0.19787  0.54201  0.05622  1.0000
  S   S118      1.0  0.09851  0.70304  0.08291  1.0000
  H   H908      1.0  0.30686  0.56955  0.06701  1.0000
  H   H909      1.0  0.39996  0.70775  0.47997  1.0000
  H   H910      1.0  0.04245  0.66119  0.05435  1.0000
  H   H911      1.0  0.15186  0.69614  0.07839  1.0000
  H   H912      1.0  0.12428  0.72356  0.43663  1.0000
  H   H913      1.0  0.46933  0.72946  0.07849  1.0000
  H   H914      1.0  0.42064  0.70033  0.43714  1.0000
  H   H915      1.0  0.01973  0.72168  0.27908  1.0000
  C   C511      1.0  0.14369  0.72425  0.11183  1.0000
  H   H916      1.0  0.14644  0.70564  0.46416  1.0000
  C   C512      1.0  0.17863  0.71023  0.02660  1.0000
  H   H917      1.0  0.31115  0.56679  0.02018  1.0000
  H   H918      1.0  0.29625  0.72787  0.40356  1.0000
  C   C513      1.0  0.24568  0.72710  0.45181  1.0000
  H   H919      1.0  0.39777  0.62053  0.24553  1.0000
  C   C514      1.0  0.04679  0.67628  0.04855  1.0000
  H   H920      1.0  0.36786  0.57283  0.12214  1.0000
  H   H921      1.0  0.05870  0.68493  0.11759  1.0000
  C   C515      1.0  0.25480  0.51195  0.47875  1.0000
  H   H922      1.0  0.37397  0.57319  0.04018  1.0000
  H   H923      1.0  0.19682  0.58797  0.46845  1.0000
  H   H924      1.0  0.37612  0.73431  0.44879  1.0000
  H   H925      1.0  0.18676  0.56753  0.00905  1.0000
  C   C516      1.0  0.16379  0.70800  0.08685  1.0000
  C   C517      1.0  0.24344  0.53596  0.46221  1.0000
  C   C518      1.0  0.41269  0.73248  0.44519  1.0000
  H   H926      1.0  0.29186  0.55011  0.04382  1.0000
  H   H927      1.0  0.21730  0.52699  0.43722  1.0000
  H   H928      1.0  0.24858  0.60672  0.48310  1.0000
  C   C519      1.0  0.30861  0.72704  0.41618  1.0000
  C   C520      1.0  0.24178  0.70567  0.01203  1.0000
  C   C521      1.0  0.48274  0.73890  0.06752  1.0000
  H   H929      1.0  0.03261  0.69346  0.24231  1.0000
  H   H930      1.0  0.99949  0.69089  0.38510  1.0000
  S   S119      1.0  0.15175  0.51530  0.32552  1.0000
  H   H931      1.0  0.19573  0.73835  0.07243  1.0000
  C   C522      1.0  0.14782  0.71928  0.41209  1.0000
  C   C523      1.0  0.14980  0.51304  0.25248  1.0000
  H   H932      1.0  0.04039  0.68528  0.43731  1.0000
  H   H933      1.0  0.32838  0.74328  0.18637  1.0000
  H   H934      1.0  0.19646  0.72446  0.10981  1.0000
  H   H935      1.0  0.31628  0.53777  0.03583  1.0000
  C   C524      1.0  0.03193  0.68239  0.38198  1.0000
  S   S120      1.0  0.27540  0.54690  0.49786  1.0000
  H   H936      1.0  0.42562  0.73433  0.45861  1.0000
  H   H937      1.0  0.10620  0.72028  0.01132  1.0000
  C   C525      1.0  0.15773  0.72478  0.08259  1.0000
  C   C526      1.0  0.18463  0.58090  0.48464  1.0000
  H   H938      1.0  0.40687  0.70241  0.40048  1.0000
  H   H939      1.0  0.33879  0.52543  0.03642  1.0000
  C   C527      1.0  0.24373  0.59376  0.46820  1.0000
  C   C528      1.0  0.24556  0.73896  0.47913  1.0000
  C   C529      1.0  0.29153  0.71661  0.47562  1.0000
  C   C530      1.0  0.02279  0.72600  0.35035  1.0000
  H   H940      1.0  0.41988  0.73131  0.02053  1.0000
  H   H941      1.0  0.39850  0.56751  0.49075  1.0000
  H   H942      1.0  0.39317  0.67782  0.05312  1.0000
  H   H943      1.0  0.24533  0.55037  0.46039  1.0000
  C   C531      1.0  0.11159  0.67946  0.49059  1.0000
  H   H944      1.0  0.02487  0.71016  0.22075  1.0000
  C   C532      1.0  0.15241  0.59300  0.00854  1.0000
  C   C533      1.0  0.40008  0.71196  0.45135  1.0000
  C   C534      1.0  0.18627  0.72864  0.41709  1.0000
  H   H945      1.0  0.16908  0.73815  0.08437  1.0000
  H   H946      1.0  0.41862  0.74266  0.07899  1.0000
  C   C535      1.0  0.39275  0.60876  0.48175  1.0000
  C   C536      1.0  0.39999  0.74243  0.49700  1.0000
  H   H947      1.0  0.04390  0.71010  0.30993  1.0000
  H   H948      1.0  0.32110  0.73008  0.46673  1.0000
  H   H949      1.0  0.32081  0.73749  0.40267  1.0000
  H   H950      1.0  0.19891  0.73701  0.00832  1.0000
  H   H951      1.0  0.25565  0.59044  0.45875  1.0000
  C   C537      1.0  0.21557  0.74079  0.37943  1.0000
  H   H952      1.0  0.23639  0.59596  0.44453  1.0000
  H   H953      1.0  0.29290  0.70307  0.47168  1.0000
  C   C538      1.0  0.23087  0.57797  0.49189  1.0000
  H   H954      1.0  0.23011  0.74215  0.37795  1.0000
  H   H955      1.0  0.05185  0.73986  0.36211  1.0000
  H   H956      1.0  0.19090  0.59663  0.01564  1.0000
  H   H957      1.0  0.34629  0.54557  0.00835  1.0000
  C   C539      1.0  0.39170  0.57735  0.49151  1.0000
  H   H958      1.0  0.37638  0.66803  0.02009  1.0000
  H   H959      1.0  0.98750  0.66502  0.03945  1.0000
  C   C540      1.0  0.36919  0.60338  0.00200  1.0000
  H   H960      1.0  0.35363  0.50691  0.00586  1.0000
  H   H961      1.0  0.24426  0.74436  0.06764  1.0000
  H   H962      1.0  0.45936  0.70601  0.00181  1.0000
  C   C541      1.0  0.40445  0.67287  0.00276  1.0000
  H   H963      1.0  0.06762  0.70410  0.00780  1.0000
  C   C542      1.0  0.04184  0.74102  0.34273  1.0000
  H   H964      1.0  0.19384  0.62901  0.01493  1.0000
  C   C543      1.0  0.02252  0.67635  0.00677  1.0000
  S   S121      1.0  0.14729  0.52862  0.49860  1.0000
  H   H965      1.0  0.29661  0.74078  0.17978  1.0000
  H   H966      1.0  0.04688  0.73996  0.31531  1.0000
  H   H967      1.0  0.38982  0.73988  0.40905  1.0000
  C   C544      1.0  0.43056  0.72964  0.00400  1.0000
  C   C545      1.0  0.10540  0.69426  0.49320  1.0000
  C   C546      1.0  0.20003  0.56670  0.00019  1.0000
  C   C547      1.0  0.05299  0.70023  0.00129  1.0000
  H   H968      1.0  0.27789  0.74002  0.49897  1.0000
  C   C548      1.0  0.14597  0.55542  0.00045  1.0000
  H   H969      1.0  0.01067  0.64648  0.99965  1.0000
  Fe  Fe59      1.0  0.32713  0.55318  0.93263  1.0000
  S   S122      1.0  0.31102  0.55401  0.88379  1.0000
  H   H970      1.0  0.21445  0.59037  0.55198  1.0000
  Fe  Fe60      1.0  0.31004  0.51056  0.93927  1.0000
  S   S123      1.0  0.18115  0.66001  0.51341  1.0000
  Fe  Fe61      1.0  0.31810  0.53003  0.86525  1.0000
  S   S124      1.0  0.32963  0.52598  0.81081  1.0000
  Fe  Fe62      1.0  0.28734  0.53237  0.91339  1.0000
  S   S125      1.0  0.25869  0.53291  0.91452  1.0000
  S   S126      1.0  0.33575  0.53053  0.91246  1.0000
  S   S127      1.0  0.30282  0.53321  0.96313  1.0000
  Fe  Fe63      1.0  0.15193  0.66687  0.93562  1.0000
  S   S128      1.0  0.18054  0.68345  0.91635  1.0000
  S   S129      1.0  0.13447  0.68453  0.94211  1.0000
  Fe  Fe64      1.0  0.15907  0.63075  0.93312  1.0000
  S   S130      1.0  0.18820  0.64513  0.91405  1.0000
  S   S131      1.0  0.21547  0.70418  0.55799  1.0000
  Fe  Fe65      1.0  0.18882  0.66587  0.95508  1.0000
  H   H971      1.0  0.26777  0.57525  0.56600  1.0000
  Fe  Fe66      1.0  0.17737  0.66144  0.87641  1.0000
  S   S132      1.0  0.19033  0.67137  0.82062  1.0000
  H   H972      1.0  0.28697  0.73677  0.57806  1.0000
  S   S133      1.0  0.14804  0.64594  0.89277  1.0000
  Fe  Fe67      1.0  0.18096  0.63459  0.54372  1.0000
  S   S134      1.0  0.19645  0.65059  0.58981  1.0000
  C   C549      1.0  0.28725  0.73800  0.51899  1.0000
  Fe  Fe68      1.0  0.15472  0.65576  0.54263  1.0000
  S   S135      1.0  0.16775  0.67293  0.58857  1.0000
  C   C550      1.0  0.20752  0.57767  0.56864  1.0000
  Fe  Fe69      1.0  0.19421  0.67543  0.56116  1.0000
  C   C551      1.0  0.15899  0.68720  0.67759  1.0000
  Fe  Fe70      1.0  0.16883  0.64686  0.61405  1.0000
  S   S136      1.0  0.15876  0.63718  0.67151  1.0000
  H   H973      1.0  0.18894  0.58986  0.59060  1.0000
  S   S137      1.0  0.15342  0.62911  0.56964  1.0000
  Fe  Fe71      1.0  0.30605  0.52866  0.60007  1.0000
  S   S138      1.0  0.32293  0.51309  0.57840  1.0000
  S   S139      1.0  0.30237  0.53838  0.65601  1.0000
  Fe  Fe72      1.0  0.29269  0.53337  0.52553  1.0000
  H   H974      1.0  0.27157  0.58877  0.96018  1.0000
  H   H975      1.0  0.10611  0.64923  0.77493  1.0000
  H   H976      1.0  0.24812  0.58746  0.53724  1.0000
  Fe  Fe73      1.0  0.33145  0.53466  0.53325  1.0000
  H   H977      1.0  0.23281  0.58084  0.59262  1.0000
  S   S140      1.0  0.28127  0.51223  0.56997  1.0000
  S   S141      1.0  0.31606  0.55102  0.55692  1.0000
  C   C552      1.0  0.47426  0.70296  0.57464  1.0000
  C   C553      1.0  0.15271  0.56278  0.52499  1.0000
  S   S142      1.0  0.34232  0.57914  0.96317  1.0000
  C   C554      1.0  0.37948  0.58504  0.96195  1.0000
  C   C555      1.0  0.22573  0.71292  0.51597  1.0000
  H   H978      1.0  0.24762  0.60170  0.95301  1.0000
  H   H979      1.0  0.16258  0.72275  0.96963  1.0000
  C   C556      1.0  0.04825  0.66791  0.98627  1.0000
  H   H980      1.0  0.20270  0.72344  0.89868  1.0000
  C   C557      1.0  0.13002  0.68965  0.54225  1.0000
  C   C558      1.0  0.25088  0.67135  0.53915  1.0000
  H   H981      1.0  0.20691  0.74055  0.86311  1.0000
  H   H982      1.0  0.13960  0.68806  0.56108  1.0000
  H   H983      1.0  0.35403  0.52289  0.62571  1.0000
  C   C559      1.0  0.38241  0.62427  0.87963  1.0000
  C   C560      1.0  0.36383  0.50758  0.85468  1.0000
  H   H984      1.0  0.37978  0.64854  0.90186  1.0000
  H   H985      1.0  0.22052  0.53826  0.51573  1.0000
  H   H986      1.0  0.44693  0.68878  0.90795  1.0000
  H   H987      1.0  0.32811  0.61146  0.58838  1.0000
  H   H988      1.0  0.28327  0.56511  0.61393  1.0000
  H   H989      1.0  0.41231  0.60230  0.59976  1.0000
  C   C561      1.0  0.27802  0.71746  0.90001  1.0000
  C   C562      1.0  0.45736  0.72465  0.96003  1.0000
  C   C563      1.0  0.25919  0.56536  0.58683  1.0000
  H   H990      1.0  0.47736  0.71215  0.51962  1.0000
  C   C564      1.0  0.25300  0.52119  0.98535  1.0000
  C   C565      1.0  0.18135  0.66168  0.77939  1.0000
  C   C566      1.0  0.19059  0.66982  0.74710  1.0000
  C   C567      1.0  0.18400  0.66248  0.71385  1.0000
  C   C568      1.0  0.16805  0.64687  0.71253  1.0000
  C   C569      1.0  0.15884  0.63874  0.74480  1.0000
  C   C570      1.0  0.16538  0.64610  0.77802  1.0000
  H   H991      1.0  0.20297  0.68184  0.74783  1.0000
  H   H992      1.0  0.19128  0.66885  0.68928  1.0000
  H   H993      1.0  0.14660  0.62656  0.74413  1.0000
  H   H994      1.0  0.15817  0.63961  0.80257  1.0000
  C   C571      1.0  0.43132  0.66876  0.94968  1.0000
  C   C572      1.0  0.41289  0.70228  0.86797  1.0000
  H   H995      1.0  0.33652  0.51455  0.74133  1.0000
  C   C573      1.0  0.40904  0.68059  0.92186  1.0000
  H   H996      1.0  0.14214  0.56079  0.94498  1.0000
  S   S143      1.0  0.36132  0.54763  0.51385  1.0000
  H   H997      1.0  0.18242  0.74282  0.95771  1.0000
  C   C574      1.0  0.32119  0.52873  0.76820  1.0000
  C   C575      1.0  0.30917  0.53808  0.76354  1.0000
  C   C576      1.0  0.30348  0.54073  0.72904  1.0000
  C   C577      1.0  0.30942  0.53377  0.69887  1.0000
  C   C578      1.0  0.32121  0.52412  0.70359  1.0000
  C   C579      1.0  0.32721  0.52181  0.73803  1.0000
  H   H998      1.0  0.30448  0.54355  0.78643  1.0000
  H   H999      1.0  0.29438  0.54823  0.72574  1.0000
  H   H1000     1.0  0.32579  0.51855  0.68072  1.0000
  H   H1001     1.0  0.40698  0.61545  0.56440  1.0000
  C   C580      1.0  0.33635  0.72977  0.55867  1.0000
  C   C581      1.0  0.26821  0.68463  0.52010  1.0000
  H   H1002     1.0  0.13580  0.65892  0.71057  1.0000
  C   C582      1.0  0.46489  0.67743  0.93274  1.0000
  H   H1003     1.0  0.16976  0.53984  0.88439  1.0000
  C   C583      1.0  0.38360  0.59887  0.59757  1.0000
  H   H1004     1.0  0.11820  0.63979  0.58025  1.0000
  H   H1005     1.0  0.25148  0.56943  0.51345  1.0000
  H   H1006     1.0  0.01950  0.67817  0.97837  1.0000
  C   C584      1.0  0.25334  0.71424  0.76514  1.0000
  C   C585      1.0  0.24570  0.52625  0.95495  1.0000
  C   C586      1.0  0.22780  0.52614  0.95687  1.0000
  H   H1007     1.0  0.37838  0.53324  0.63092  1.0000
  H   H1008     1.0  0.22199  0.52986  0.93333  1.0000
  H   H1009     1.0  0.42418  0.68107  0.87068  1.0000
  C   C587      1.0  0.21431  0.54480  0.53566  1.0000
  C   C588      1.0  0.25883  0.71864  0.89725  1.0000
  H   H1010     1.0  0.15674  0.58947  0.54651  1.0000
  H   H1011     1.0  0.35032  0.57979  0.51168  1.0000
  H   H1012     1.0  0.36020  0.51445  0.87764  1.0000
  H   H1013     1.0  0.23167  0.73252  0.83788  1.0000
  H   H1014     1.0  0.25600  0.57322  0.60861  1.0000
  N   N31       1.0  0.22919  0.56015  0.55303  1.0000
  H   H1015     1.0  0.36749  0.61749  0.87624  1.0000
  H   H1016     1.0  0.11189  0.68567  0.61287  1.0000
  C   C589      1.0  0.40000  0.65855  0.97309  1.0000
  H   H1017     1.0  0.26645  0.71197  0.76225  1.0000
  H   H1018     1.0  0.13932  0.69996  0.68843  1.0000
  H   H1019     1.0  0.33178  0.72182  0.58438  1.0000
  H   H1020     1.0  0.31732  0.74361  0.56159  1.0000
  C   C590      1.0  0.36524  0.58973  0.97625  1.0000
  H   H1021     1.0  0.40043  0.70486  0.87650  1.0000
  S   S144      1.0  0.16041  0.65038  0.97713  1.0000
  H   H1022     1.0  0.46371  0.67440  0.55820  1.0000
  H   H1023     1.0  0.24820  0.68561  0.93185  1.0000
  C   C591      1.0  0.12406  0.67721  0.51487  1.0000
  H   H1024     1.0  0.18347  0.72015  0.95467  1.0000
  H   H1025     1.0  0.39501  0.68035  0.92779  1.0000
  H   H1026     1.0  0.18815  0.70211  0.67227  1.0000
  H   H1027     1.0  0.23405  0.54237  0.59412  1.0000
  H   H1028     1.0  0.18371  0.56313  0.87066  1.0000
  H   H1029     1.0  0.31805  0.58695  0.58361  1.0000
  C   C592      1.0  0.15939  0.55263  0.50169  1.0000
  C   C593      1.0  0.40386  0.61058  0.59281  1.0000
  C   C594      1.0  0.10744  0.67800  0.67046  1.0000
  H   H1030     1.0  0.37845  0.50936  0.85629  1.0000
  H   H1031     1.0  0.22265  0.70397  0.90101  1.0000
  N   N32       1.0  0.41176  0.66407  0.93926  1.0000
  H   H1032     1.0  0.37589  0.60749  0.58829  1.0000
  H   H1033     1.0  0.43280  0.65672  0.96429  1.0000
  C   C595      1.0  0.27080  0.55514  0.60249  1.0000
  H   H1034     1.0  0.23686  0.49479  0.89755  1.0000
  H   H1035     1.0  0.27510  0.54772  0.58128  1.0000
  H   H1036     1.0  0.45050  0.67965  0.59332  1.0000
  H   H1037     1.0  0.26314  0.54510  0.62405  1.0000
  H   H1038     1.0  0.41425  0.70357  0.83835  1.0000
  S   S145      1.0  0.29308  0.50838  0.89100  1.0000
  N   N33       1.0  0.24682  0.70713  0.86919  1.0000
  C   C596      1.0  0.25528  0.71439  0.83278  1.0000
  C   C597      1.0  0.24489  0.68717  0.87325  1.0000
  C   C598      1.0  0.22816  0.70827  0.87342  1.0000
  C   C599      1.0  0.11153  0.70683  0.52031  1.0000
  C   C600      1.0  0.24351  0.70567  0.80047  1.0000
  C   C601      1.0  0.23892  0.67803  0.91099  1.0000
  H   H1039     1.0  0.40749  0.62280  0.60979  1.0000
  H   H1040     1.0  0.26851  0.70561  0.55652  1.0000
  H   H1041     1.0  0.17797  0.54568  0.94672  1.0000
  H   H1042     1.0  0.26836  0.71208  0.82908  1.0000
  H   H1043     1.0  0.36199  0.51441  0.82941  1.0000
  H   H1044     1.0  0.25780  0.68537  0.86497  1.0000
  H   H1045     1.0  0.23448  0.67861  0.85486  1.0000
  H   H1046     1.0  0.21826  0.69818  0.85642  1.0000
  H   H1047     1.0  0.41078  0.63652  0.92876  1.0000
  H   H1048     1.0  0.19812  0.73216  0.55040  1.0000
  C   C602      1.0  0.40652  0.64743  0.91614  1.0000
  H   H1049     1.0  0.24064  0.69064  0.80004  1.0000
  H   H1050     1.0  0.23028  0.70774  0.80123  1.0000
  H   H1051     1.0  0.22495  0.67737  0.91810  1.0000
  H   H1052     1.0  0.22891  0.64974  0.89314  1.0000
  C   C603      1.0  0.10764  0.63882  0.75666  1.0000
  H   H1053     1.0  0.41396  0.65073  0.88993  1.0000
  C   C604      1.0  0.21742  0.52126  0.98917  1.0000
  H   H1054     1.0  0.09926  0.65419  0.61309  1.0000
  H   H1055     1.0  0.23872  0.67421  0.53033  1.0000
  H   H1056     1.0  0.24466  0.70772  0.74256  1.0000
  H   H1057     1.0  0.12064  0.63680  0.76209  1.0000
  C   C605      1.0  0.41171  0.68304  0.88059  1.0000
  H   H1058     1.0  0.41823  0.69351  0.93384  1.0000
  H   H1059     1.0  0.06860  0.65975  0.93132  1.0000
  C   C606      1.0  0.18675  0.55555  0.92598  1.0000
  H   H1060     1.0  0.25603  0.72927  0.76364  1.0000
  H   H1061     1.0  0.10638  0.68555  0.69481  1.0000
  H   H1062     1.0  0.46767  0.72265  0.94287  1.0000
  C   C607      1.0  0.10752  0.69063  0.63762  1.0000
  C   C608      1.0  0.32087  0.73460  0.54264  1.0000
  C   C609      1.0  0.24141  0.55166  0.57129  1.0000
  H   H1063     1.0  0.26519  0.73337  0.55934  1.0000
  H   H1064     1.0  0.19645  0.56786  0.55350  1.0000
  C   C610      1.0  0.08873  0.69163  0.63190  1.0000
  H   H1065     1.0  0.19419  0.53475  0.58043  1.0000
  H   H1066     1.0  0.17503  0.71658  0.67957  1.0000
  H   H1067     1.0  0.39998  0.67284  0.86751  1.0000
  H   H1068     1.0  0.42501  0.71300  0.87906  1.0000
  C   C611      1.0  0.44602  0.67511  0.91910  1.0000
  H   H1069     1.0  0.20528  0.55011  0.52017  1.0000
  H   H1070     1.0  0.14226  0.69614  0.64241  1.0000
  H   H1071     1.0  0.26656  0.52088  0.98420  1.0000
  C   C612      1.0  0.22605  0.69969  0.99172  1.0000
  H   H1072     1.0  0.43531  0.68022  0.96845  1.0000
  H   H1073     1.0  0.29863  0.71115  0.56376  1.0000
  H   H1074     1.0  0.11718  0.70489  0.64156  1.0000
  S   S146      1.0  0.21212  0.67618  0.99309  1.0000
  C   C613      1.0  0.12364  0.66295  0.70831  1.0000
  C   C614      1.0  0.44929  0.73724  0.94947  1.0000
  H   H1075     1.0  0.35574  0.55131  0.58875  1.0000
  H   H1076     1.0  0.19655  0.55208  0.99298  1.0000
  H   H1077     1.0  0.38798  0.61344  0.88680  1.0000
  C   C615      1.0  0.12464  0.65989  0.64226  1.0000
  H   H1078     1.0  0.04156  0.65323  0.99540  1.0000
  H   H1079     1.0  0.46816  0.71299  0.58356  1.0000
  H   H1080     1.0  0.09677  0.63866  0.65040  1.0000
  C   C616      1.0  0.14877  0.58559  0.97468  1.0000
  H   H1081     1.0  0.08953  0.70114  0.60873  1.0000
  H   H1082     1.0  0.46901  0.68812  0.95320  1.0000
  H   H1083     1.0  0.08397  0.69691  0.65593  1.0000
  C   C617      1.0  0.19850  0.58335  0.60045  1.0000
  H   H1084     1.0  0.44308  0.66506  0.89755  1.0000
  C   C618      1.0  0.23330  0.73110  0.96912  1.0000
  N   N34       1.0  0.35969  0.57749  0.64476  1.0000
  C   C619      1.0  0.34577  0.57838  0.61842  1.0000
  C   C620      1.0  0.36081  0.55853  0.64481  1.0000
  C   C621      1.0  0.35267  0.57990  0.68153  1.0000
  C   C622      1.0  0.37830  0.59226  0.63731  1.0000
  H   H1085     1.0  0.16364  0.55874  0.89919  1.0000
  C   C623      1.0  0.34049  0.59575  0.62023  1.0000
  C   C624      1.0  0.36324  0.57633  0.71365  1.0000
  H   H1086     1.0  0.38879  0.63126  0.85388  1.0000
  H   H1087     1.0  0.37853  0.63038  0.93370  1.0000
  C   C625      1.0  0.33113  0.59864  0.58650  1.0000
  C   C626      1.0  0.35679  0.58207  0.74863  1.0000
  H   H1088     1.0  0.33294  0.56625  0.62290  1.0000
  H   H1089     1.0  0.35022  0.57720  0.59058  1.0000
  H   H1090     1.0  0.37113  0.55758  0.66380  1.0000
  H   H1091     1.0  0.34747  0.54806  0.65425  1.0000
  H   H1092     1.0  0.33814  0.57053  0.68577  1.0000
  H   H1093     1.0  0.35270  0.59413  0.68396  1.0000
  H   H1094     1.0  0.37967  0.60493  0.65201  1.0000
  H   H1095     1.0  0.38912  0.58766  0.64809  1.0000
  H   H1096     1.0  0.33079  0.59415  0.64322  1.0000
  H   H1097     1.0  0.35258  0.60838  0.62406  1.0000
  H   H1098     1.0  0.37811  0.58404  0.70980  1.0000
  H   H1099     1.0  0.36074  0.56138  0.71699  1.0000
  H   H1100     1.0  0.05851  0.73549  0.97299  1.0000
  H   H1101     1.0  0.21544  0.55950  0.60398  1.0000
  C   C627      1.0  0.38586  0.63817  0.90923  1.0000
  H   H1102     1.0  0.37971  0.56122  0.59914  1.0000
  H   H1103     1.0  0.34008  0.59996  0.56241  1.0000
  H   H1104     1.0  0.09454  0.66589  0.67074  1.0000
  H   H1105     1.0  0.36413  0.57877  0.77127  1.0000
  H   H1106     1.0  0.35955  0.59711  0.74791  1.0000
  H   H1107     1.0  0.34194  0.57441  0.75350  1.0000
  H   H1108     1.0  0.37667  0.57458  0.94214  1.0000
  C   C628      1.0  0.18370  0.73117  0.54922  1.0000
  H   H1109     1.0  0.12463  0.67284  0.72991  1.0000
  C   C629      1.0  0.21344  0.59948  0.97697  1.0000
  H   H1110     1.0  0.22240  0.56087  0.95671  1.0000
  H   H1111     1.0  0.37583  0.51818  0.98455  1.0000
  H   H1112     1.0  0.22510  0.57782  0.92254  1.0000
  H   H1113     1.0  0.36931  0.52785  0.58705  1.0000
  C   C630      1.0  0.06908  0.67183  0.98342  1.0000
  H   H1114     1.0  0.24548  0.54287  0.55236  1.0000
  C   C631      1.0  0.17536  0.70428  0.66564  1.0000
  C   C632      1.0  0.05196  0.70648  0.96193  1.0000
  H   H1115     1.0  0.12845  0.71400  0.56616  1.0000
  C   C633      1.0  0.22705  0.72752  0.86567  1.0000
  H   H1116     1.0  0.23552  0.73780  0.88419  1.0000
  H   H1117     1.0  0.17393  0.70513  0.52411  1.0000
  C   C634      1.0  0.10932  0.63256  0.60357  1.0000
  C   C635      1.0  0.40147  0.60792  0.99846  1.0000
  C   C636      1.0  0.23877  0.65835  0.91224  1.0000
  H   H1118     1.0  0.20890  0.59352  0.61649  1.0000
  H   H1119     1.0  0.17548  0.70679  0.63629  1.0000
  H   H1120     1.0  0.28000  0.68131  0.52948  1.0000
  C   C637      1.0  0.24916  0.73704  0.98905  1.0000
  H   H1121     1.0  0.32628  0.74292  0.51779  1.0000
  H   H1122     1.0  0.06237  0.73099  0.92718  1.0000
  H   H1123     1.0  0.19877  0.58538  0.91701  1.0000
  H   H1124     1.0  0.07870  0.67783  0.62600  1.0000
  H   H1125     1.0  0.25911  0.72962  0.83044  1.0000
  H   H1126     1.0  0.44033  0.71932  0.54066  1.0000
  C   C638      1.0  0.22162  0.56930  0.58103  1.0000
  H   H1127     1.0  0.09404  0.64654  0.71379  1.0000
  C   C639      1.0  0.36601  0.55203  0.60900  1.0000
  C   C640      1.0  0.20749  0.72687  0.87041  1.0000
  H   H1128     1.0  0.46495  0.66420  0.94451  1.0000
  H   H1129     1.0  0.16011  0.71903  0.51841  1.0000
  C   C641      1.0  0.10625  0.64647  0.62852  1.0000
  H   H1130     1.0  0.26117  0.73348  0.89238  1.0000
  H   H1131     1.0  0.28090  0.72275  0.95693  1.0000
  H   H1132     1.0  0.23000  0.74091  0.95238  1.0000
  H   H1133     1.0  0.21932  0.60832  0.95258  1.0000
  H   H1134     1.0  0.40092  0.64576  0.98516  1.0000
  H   H1135     1.0  0.13295  0.65160  0.65003  1.0000
  H   H1136     1.0  0.38064  0.58739  0.57909  1.0000
  H   H1137     1.0  0.23463  0.65223  0.93956  1.0000
  C   C642      1.0  0.16197  0.58188  0.52825  1.0000
  C   C643      1.0  0.17425  0.71931  0.51837  1.0000
  C   C644      1.0  0.22167  0.71253  0.97082  1.0000
  H   H1138     1.0  0.19061  0.57114  0.61771  1.0000
  H   H1139     1.0  0.25192  0.71517  0.92406  1.0000
  C   C645      1.0  0.18733  0.51471  0.53969  1.0000
  C   C646      1.0  0.45250  0.71505  0.99314  1.0000
  H   H1140     1.0  0.09607  0.62336  0.59354  1.0000
  C   C647      1.0  0.17527  0.55430  0.89305  1.0000
  H   H1141     1.0  0.11579  0.62396  0.61792  1.0000
  H   H1142     1.0  0.20924  0.52198  0.57568  1.0000
  C   C648      1.0  0.12372  0.70436  0.54502  1.0000
  H   H1143     1.0  0.24894  0.65693  0.53269  1.0000
  H   H1144     1.0  0.08825  0.66171  0.95711  1.0000
  C   C649      1.0  0.44702  0.72735  0.51694  1.0000
  H   H1145     1.0  0.16007  0.67522  0.66383  1.0000
  H   H1146     1.0  0.17660  0.72481  0.57486  1.0000
  C   C650      1.0  0.36696  0.53282  0.61360  1.0000
  C   C651      1.0  0.19369  0.57541  0.94021  1.0000
  H   H1147     1.0  0.10827  0.63372  0.70097  1.0000
  C   C652      1.0  0.10732  0.64496  0.71763  1.0000
  S   S147      1.0  0.10406  0.72554  0.52492  1.0000
  C   C653      1.0  0.14066  0.68958  0.66968  1.0000
  H   H1148     1.0  0.20935  0.70816  0.95595  1.0000
  H   H1149     1.0  0.34119  0.72160  0.53982  1.0000
  H   H1150     1.0  0.25496  0.56580  0.96589  1.0000
  H   H1151     1.0  0.25258  0.65826  0.90572  1.0000
  C   C654      1.0  0.27079  0.70494  0.52723  1.0000
  H   H1152     1.0  0.19809  0.55095  0.91839  1.0000
  H   H1153     1.0  0.03774  0.70467  0.95541  1.0000
  H   H1154     1.0  0.20367  0.52123  0.99050  1.0000
  C   C655      1.0  0.07327  0.65846  0.95870  1.0000
  C   C656      1.0  0.45850  0.68500  0.56802  1.0000
  H   H1155     1.0  0.16005  0.68503  0.70679  1.0000
  C   C657      1.0  0.39751  0.59422  0.97279  1.0000
  C   C658      1.0  0.06346  0.72687  0.95539  1.0000
  H   H1156     1.0  0.30866  0.70658  0.52429  1.0000
  H   H1157     1.0  0.12004  0.71248  0.95688  1.0000
  H   H1158     1.0  0.38541  0.65536  0.96705  1.0000
  H   H1159     1.0  0.09623  0.62553  0.76244  1.0000
  N   N35       1.0  0.12378  0.67222  0.67229  1.0000
  H   H1160     1.0  0.19821  0.71645  0.85298  1.0000
  H   H1161     1.0  0.05706  0.69862  0.94293  1.0000
  H   H1162     1.0  0.25179  0.67263  0.56858  1.0000
  C   C659      1.0  0.20156  0.52921  0.56098  1.0000
  S   S148      1.0  0.14884  0.59937  0.93621  1.0000
  H   H1163     1.0  0.13189  0.66821  0.61825  1.0000
  H   H1164     1.0  0.25937  0.70770  0.51442  1.0000
  H   H1165     1.0  0.14030  0.55582  0.54070  1.0000
  C   C660      1.0  0.14529  0.56671  0.97093  1.0000
  C   C661      1.0  0.11908  0.70461  0.98156  1.0000
  C   C662      1.0  0.36309  0.52010  0.99341  1.0000
  Fe  Fe74      1.0  0.29874  0.49814  0.54486  1.0000
  H   H1166     1.0  0.48210  0.70011  0.59681  1.0000
  C   C663      1.0  0.24070  0.57405  0.52489  1.0000
  C   C664      1.0  0.23577  0.73185  0.51130  1.0000
  H   H1167     1.0  0.17835  0.50354  0.55802  1.0000
  H   H1168     1.0  0.27724  0.70307  0.90462  1.0000
  C   C665      1.0  0.17771  0.72877  0.97039  1.0000
  H   H1169     1.0  0.07803  0.72949  0.96046  1.0000
  C   C666      1.0  0.43591  0.73978  0.97154  1.0000
  H   H1170     1.0  0.04328  0.66856  0.95884  1.0000
  H   H1171     1.0  0.21182  0.63492  0.98137  1.0000
  H   H1172     1.0  0.07675  0.68595  0.97241  1.0000
  H   H1173     1.0  0.44926  0.68744  0.54818  1.0000
  C   C667      1.0  0.30388  0.71700  0.53651  1.0000
  C   C668      1.0  0.36456  0.58421  0.50349  1.0000
  H   H1174     1.0  0.18132  0.57746  0.95082  1.0000
  N   N36       1.0  0.28882  0.71940  0.51481  1.0000
  H   H1175     1.0  0.30212  0.72816  0.93197  1.0000
  C   C669      1.0  0.25778  0.57953  0.95267  1.0000
  H   H1176     1.0  0.17871  0.52098  0.52524  1.0000
  H   H1177     1.0  0.40849  0.59073  0.96111  1.0000
  H   H1178     1.0  0.47513  0.68185  0.91026  1.0000
  H   H1179     1.0  0.28632  0.72315  0.87520  1.0000
  H   H1180     1.0  0.23631  0.74097  0.53293  1.0000
  H   H1181     1.0  0.34796  0.74265  0.56385  1.0000
  H   H1182     1.0  0.38023  0.73701  0.56188  1.0000
  C   C670      1.0  0.24353  0.58748  0.96476  1.0000
  S   S149      1.0  0.13213  0.65896  0.50954  1.0000
  C   C671      1.0  0.22424  0.57564  0.95218  1.0000
  H   H1183     1.0  0.28937  0.74324  0.92812  1.0000
  C   C672      1.0  0.12561  0.69002  0.98231  1.0000
  H   H1184     1.0  0.18792  0.60479  0.97142  1.0000
  S   S150      1.0  0.19070  0.61486  0.51232  1.0000
  H   H1185     1.0  0.35671  0.52362  0.96961  1.0000
  N   N37       1.0  0.20808  0.57939  0.96812  1.0000
  C   C673      1.0  0.28818  0.72860  0.93114  1.0000
  H   H1186     1.0  0.24407  0.58844  0.99416  1.0000
  H   H1187     1.0  0.06658  0.64404  0.96915  1.0000
  C   C674      1.0  0.17804  0.59102  0.50818  1.0000
  H   H1188     1.0  0.19408  0.50859  0.52001  1.0000
  H   H1189     1.0  0.14333  0.54093  0.99716  1.0000
  H   H1190     1.0  0.25779  0.57809  0.92323  1.0000
  C   C675      1.0  0.19796  0.60543  0.99215  1.0000
  H   H1191     1.0  0.40648  0.68686  0.99184  1.0000
  H   H1192     1.0  0.41204  0.74196  0.51171  1.0000
  C   C676      1.0  0.37318  0.57134  0.50246  1.0000
  H   H1193     1.0  0.22438  0.60352  0.99666  1.0000
  C   C677      1.0  0.28008  0.74128  0.55618  1.0000
  H   H1194     1.0  0.38916  0.72859  0.50120  1.0000
  H   H1195     1.0  0.21912  0.58163  0.49981  1.0000
  Fe  Fe75      1.0  0.09921  0.76824  0.06004  1.0000
  S   S151      1.0  0.10947  0.75594  0.10612  1.0000
  H   H1196     1.0  0.35452  0.74968  0.43074  1.0000
  H   H1197     1.0  0.41990  0.76606  0.39464  1.0000
  C   C678      1.0  0.45616  0.75876  0.07741  1.0000
  C   C679      1.0  0.27892  0.84656  0.01259  1.0000
  Fe  Fe76      1.0  0.08441  0.75580  0.13703  1.0000
  S   S152      1.0  0.08419  0.76769  0.19228  1.0000
  C   C680      1.0  0.21297  0.83829  0.00529  1.0000
  S   S153      1.0  0.07486  0.76956  0.09168  1.0000
  H   H1198     1.0  0.39463  0.77259  0.41128  1.0000
  Fe  Fe77      1.0  0.29393  0.81381  0.05393  1.0000
  S   S154      1.0  0.27023  0.78824  0.06983  1.0000
  C   C681      1.0  0.42355  0.75769  0.08359  1.0000
  Fe  Fe78      1.0  0.32116  0.79369  0.05353  1.0000
  S   S155      1.0  0.29902  0.76640  0.06803  1.0000
  H   H1199     1.0  0.10918  0.80586  0.11551  1.0000
  Fe  Fe79      1.0  0.28209  0.77492  0.02861  1.0000
  N   N38       1.0  0.35523  0.84980  0.48641  1.0000
  Fe  Fe80      1.0  0.28920  0.78221  0.10818  1.0000
  S   S156      1.0  0.28025  0.76995  0.16452  1.0000
  H   H1200     1.0  0.20671  0.87257  0.46961  1.0000
  S   S157      1.0  0.31201  0.80895  0.09562  1.0000
  Fe  Fe81      1.0  0.30365  0.79649  0.36561  1.0000
  S   S158      1.0  0.31836  0.81239  0.41274  1.0000
  S   S159      1.0  0.31206  0.80908  0.30938  1.0000
  Fe  Fe82      1.0  0.28030  0.76416  0.41218  1.0000
  S   S160      1.0  0.29300  0.77723  0.46187  1.0000
  H   H1201     1.0  0.41356  0.76333  0.07259  1.0000
  Fe  Fe83      1.0  0.29062  0.80323  0.43976  1.0000
  C   C682      1.0  0.16163  0.78196  0.49119  1.0000
  Fe  Fe84      1.0  0.31990  0.78550  0.43227  1.0000
  C   C683      1.0  0.48135  0.78829  0.08080  1.0000
  S   S161      1.0  0.27560  0.78937  0.39149  1.0000
  S   S162      1.0  0.30733  0.77030  0.38344  1.0000
  C   C684      1.0  0.33739  0.76704  0.28258  1.0000
  S   S163      1.0  0.42559  0.82280  0.47898  1.0000
  H   H1202     1.0  0.35673  0.82990  0.42328  1.0000
  H   H1203     1.0  0.07764  0.84492  0.08316  1.0000
  Fe  Fe85      1.0  0.10007  0.77685  0.45226  1.0000
  S   S164      1.0  0.11210  0.75564  0.43843  1.0000
  C   C685      1.0  0.17467  0.79069  0.01466  1.0000
  H   H1204     1.0  0.41495  0.77653  0.46041  1.0000
  C   C686      1.0  0.42003  0.76540  0.45372  1.0000
  C   C687      1.0  0.10538  0.81792  0.12175  1.0000
  C   C688      1.0  0.42978  0.77027  0.41638  1.0000
  S   S165      1.0  0.07853  0.76692  0.41004  1.0000
  H   H1205     1.0  0.23414  0.82537  0.46499  1.0000
  H   H1206     1.0  0.14905  0.84313  0.44326  1.0000
  C   C689      1.0  0.17822  0.79851  0.47782  1.0000
  H   H1207     1.0  0.11499  0.82619  0.14157  1.0000
  S   S166      1.0  0.29053  0.84141  0.04875  1.0000
  S   S167      1.0  0.12119  0.80693  0.45322  1.0000
  H   H1208     1.0  0.21505  0.75486  0.37824  1.0000
  H   H1209     1.0  0.18299  0.81809  0.03282  1.0000
  H   H1210     1.0  0.07842  0.77722  0.26376  1.0000
  C   C690      1.0  0.27443  0.86424  0.45620  1.0000
  C   C691      1.0  0.35086  0.83148  0.15400  1.0000
  H   H1211     1.0  0.08952  0.81708  0.39419  1.0000
  C   C692      1.0  0.33572  0.86263  0.08546  1.0000
  H   H1212     1.0  0.27796  0.87119  0.03610  1.0000
  H   H1213     1.0  0.32895  0.77605  0.13783  1.0000
  C   C693      1.0  0.27817  0.84788  0.45470  1.0000
  N   N39       1.0  0.40506  0.74663  0.45776  1.0000
  H   H1214     1.0  0.36060  0.80892  0.20141  1.0000
  H   H1215     1.0  0.35388  0.83966  0.12845  1.0000
  C   C694      1.0  0.23456  0.79072  0.45402  1.0000
  H   H1216     1.0  0.42430  0.75982  0.11281  1.0000
  H   H1217     1.0  0.36013  0.78195  0.12828  1.0000
  C   C695      1.0  0.34932  0.80126  0.18375  1.0000
  H   H1218     1.0  0.33457  0.78851  0.24959  1.0000
  H   H1219     1.0  0.33667  0.80185  0.19653  1.0000
  C   C696      1.0  0.22508  0.86448  0.04802  1.0000
  H   H1220     1.0  0.37651  0.76261  0.10585  1.0000
  C   C697      1.0  0.39276  0.81372  0.44622  1.0000
  C   C698      1.0  0.37383  0.80444  0.44334  1.0000
  H   H1221     1.0  0.33680  0.75261  0.28106  1.0000
  H   H1222     1.0  0.40065  0.82213  0.42389  1.0000
  H   H1223     1.0  0.36732  0.80538  0.41862  1.0000
  C   C699      1.0  0.35252  0.81279  0.14814  1.0000
  H   H1224     1.0  0.33679  0.82967  0.16333  1.0000
  N   N40       1.0  0.47579  0.76918  0.06579  1.0000
  H   H1225     1.0  0.36635  0.81546  0.13643  1.0000
  H   H1226     1.0  0.37819  0.84860  0.42459  1.0000
  H   H1227     1.0  0.18482  0.79391  0.45549  1.0000
  H   H1228     1.0  0.28118  0.84312  0.42928  1.0000
  C   C700      1.0  0.22560  0.79756  0.48437  1.0000
  C   C701      1.0  0.28877  0.78125  0.20462  1.0000
  C   C702      1.0  0.28382  0.77135  0.23752  1.0000
  C   C703      1.0  0.29064  0.77970  0.26985  1.0000
  C   C704      1.0  0.30254  0.79810  0.26959  1.0000
  C   C705      1.0  0.30749  0.80799  0.23668  1.0000
  C   C706      1.0  0.30061  0.79965  0.20438  1.0000
  H   H1229     1.0  0.27468  0.75711  0.23801  1.0000
  H   H1230     1.0  0.28675  0.77189  0.29492  1.0000
  H   H1231     1.0  0.31665  0.82223  0.23617  1.0000
  H   H1232     1.0  0.30442  0.80747  0.17934  1.0000
  C   C707      1.0  0.21646  0.86908  0.45205  1.0000
  C   C708      1.0  0.36362  0.79312  0.47168  1.0000
  C   C709      1.0  0.13827  0.82092  0.48256  1.0000
  C   C710      1.0  0.40163  0.81172  0.47736  1.0000
  C   C711      1.0  0.44066  0.79092  0.41170  1.0000
  H   H1233     1.0  0.38381  0.76973  0.45450  1.0000
  C   C712      1.0  0.38354  0.79826  0.02310  1.0000
  H   H1234     1.0  0.23256  0.85207  0.45234  1.0000
  C   C713      1.0  0.37449  0.85124  0.49439  1.0000
  N   N41       1.0  0.34801  0.78147  0.18096  1.0000
  H   H1235     1.0  0.22840  0.75561  0.05854  1.0000
  C   C714      1.0  0.15032  0.83843  0.47006  1.0000
  H   H1236     1.0  0.36305  0.78303  0.22908  1.0000
  S   S168      1.0  0.34034  0.77933  0.46775  1.0000
  H   H1237     1.0  0.43953  0.76299  0.41324  1.0000
  C   C715      1.0  0.08550  0.75718  0.23433  1.0000
  C   C716      1.0  0.08229  0.76524  0.26575  1.0000
  C   C717      1.0  0.08433  0.75811  0.29972  1.0000
  H   H1238     1.0  0.34047  0.85158  0.43895  1.0000
  C   C718      1.0  0.35476  0.85475  0.44717  1.0000
  H   H1239     1.0  0.30053  0.74546  0.13223  1.0000
  C   C719      1.0  0.07027  0.79683  0.00246  1.0000
  H   H1240     1.0  0.03674  0.76230  0.37317  1.0000
  H   H1241     1.0  0.21362  0.86919  0.04230  1.0000
  H   H1242     1.0  0.36345  0.77105  0.40508  1.0000
  H   H1243     1.0  0.15173  0.77740  0.46950  1.0000
  H   H1244     1.0  0.09138  0.81291  0.13396  1.0000
  H   H1245     1.0  0.36069  0.83926  0.17397  1.0000
  H   H1246     1.0  0.34254  0.80556  0.12822  1.0000
  H   H1247     1.0  0.32644  0.76730  0.30157  1.0000
  N   N42       1.0  0.12983  0.80917  0.32938  1.0000
  C   C720      1.0  0.14002  0.79810  0.34631  1.0000
  C   C721      1.0  0.14193  0.82925  0.32859  1.0000
  C   C722      1.0  0.11249  0.80571  0.35116  1.0000
  C   C723      1.0  0.12483  0.80357  0.29163  1.0000
  C   C724      1.0  0.14074  0.80402  0.26601  1.0000
  C   C725      1.0  0.13085  0.77686  0.34472  1.0000
  C   C726      1.0  0.10112  0.81759  0.34051  1.0000
  C   C727      1.0  0.14632  0.83813  0.36557  1.0000
  C   C728      1.0  0.15861  0.85843  0.36139  1.0000
  C   C729      1.0  0.13359  0.79632  0.22984  1.0000
  C   C730      1.0  0.33900  0.85453  0.02077  1.0000
  C   C731      1.0  0.08484  0.81391  0.36648  1.0000
  H   H1248     1.0  0.14187  0.80108  0.37521  1.0000
  H   H1249     1.0  0.15409  0.80230  0.33449  1.0000
  H   H1250     1.0  0.15529  0.83121  0.31513  1.0000
  H   H1251     1.0  0.13602  0.83762  0.31196  1.0000
  H   H1252     1.0  0.11539  0.80744  0.38000  1.0000
  H   H1253     1.0  0.10325  0.79112  0.34939  1.0000
  H   H1254     1.0  0.11422  0.78957  0.29157  1.0000
  H   H1255     1.0  0.11842  0.81267  0.27884  1.0000
  H   H1256     1.0  0.14833  0.79561  0.27683  1.0000
  H   H1257     1.0  0.15043  0.81837  0.26123  1.0000
  H   H1258     1.0  0.11772  0.77194  0.36024  1.0000
  H   H1259     1.0  0.12817  0.77226  0.31694  1.0000
  H   H1260     1.0  0.09571  0.81427  0.31339  1.0000
  H   H1261     1.0  0.10930  0.83252  0.34087  1.0000
  H   H1262     1.0  0.13375  0.83745  0.38049  1.0000
  H   H1263     1.0  0.15353  0.83109  0.38215  1.0000
  H   H1264     1.0  0.17177  0.85992  0.34777  1.0000
  H   H1265     1.0  0.15179  0.86629  0.34580  1.0000
  H   H1266     1.0  0.16154  0.86448  0.38816  1.0000
  H   H1267     1.0  0.14518  0.79730  0.21145  1.0000
  H   H1268     1.0  0.12458  0.78158  0.23303  1.0000
  H   H1269     1.0  0.12576  0.80416  0.21750  1.0000
  H   H1270     1.0  0.07059  0.79001  0.02856  1.0000
  H   H1271     1.0  0.34969  0.76033  0.21854  1.0000
  C   C732      1.0  0.38852  0.74496  0.43616  1.0000
  H   H1272     1.0  0.37596  0.79378  0.16070  1.0000
  C   C733      1.0  0.16377  0.85019  0.49206  1.0000
  H   H1273     1.0  0.20719  0.78122  0.01409  1.0000
  H   H1274     1.0  0.19578  0.80549  0.05110  1.0000
  H   H1275     1.0  0.37564  0.86011  0.01753  1.0000
  C   C734      1.0  0.14427  0.82100  0.03993  1.0000
  C   C735      1.0  0.44224  0.76752  0.06525  1.0000
  H   H1276     1.0  0.47781  0.79778  0.06207  1.0000
  H   H1277     1.0  0.20818  0.83694  0.06406  1.0000
  S   S169      1.0  0.11796  0.78833  0.01644  1.0000
  C   C736      1.0  0.33453  0.77441  0.24590  1.0000
  H   H1278     1.0  0.16341  0.84715  0.05649  1.0000
  C   C737      1.0  0.15797  0.83867  0.03395  1.0000
  H   H1279     1.0  0.36189  0.86987  0.44213  1.0000
  H   H1280     1.0  0.44049  0.76637  0.03594  1.0000
  C   C738      1.0  0.22242  0.85455  0.47047  1.0000
  C   C739      1.0  0.32516  0.74972  0.16209  1.0000
  C   C740      1.0  0.36363  0.78125  0.15689  1.0000
  H   H1281     1.0  0.43145  0.79888  0.41339  1.0000
  H   H1282     1.0  0.24703  0.80198  0.44332  1.0000
  H   H1283     1.0  0.33056  0.87358  0.07689  1.0000
  C   C741      1.0  0.14296  0.76728  0.36067  1.0000
  H   H1284     1.0  0.21393  0.81109  0.44566  1.0000
  H   H1285     1.0  0.17304  0.80913  0.46745  1.0000
  H   H1286     1.0  0.44664  0.78230  0.07151  1.0000
  H   H1287     1.0  0.37798  0.76660  0.18753  1.0000
  H   H1288     1.0  0.46926  0.75663  0.01444  1.0000
  C   C742      1.0  0.10648  0.82975  0.08791  1.0000
  H   H1289     1.0  0.35926  0.75146  0.16382  1.0000
  C   C743      1.0  0.36340  0.84502  0.42043  1.0000
  C   C744      1.0  0.36585  0.79811  0.01744  1.0000
  H   H1290     1.0  0.22858  0.88182  0.44640  1.0000
  H   H1291     1.0  0.22497  0.78556  0.43203  1.0000
  H   H1292     1.0  0.36742  0.84328  0.36332  1.0000
  H   H1293     1.0  0.23039  0.74764  0.10366  1.0000
  H   H1294     1.0  0.17260  0.86364  0.48187  1.0000
  H   H1295     1.0  0.48530  0.75758  0.11076  1.0000
  C   C745      1.0  0.09348  0.81841  0.05931  1.0000
  H   H1296     1.0  0.09206  0.86240  0.05163  1.0000
  C   C746      1.0  0.04103  0.76027  0.34560  1.0000
  H   H1297     1.0  0.45496  0.75680  0.10709  1.0000
  S   S170      1.0  0.08032  0.75889  0.49476  1.0000
  H   H1298     1.0  0.47349  0.78798  0.10611  1.0000
  H   H1299     1.0  0.07709  0.82278  0.35879  1.0000
  C   C747      1.0  0.32986  0.77072  0.16528  1.0000
  H   H1300     1.0  0.32790  0.86596  0.47389  1.0000
  C   C748      1.0  0.21925  0.84369  0.04384  1.0000
  H   H1301     1.0  0.13944  0.81600  0.06684  1.0000
  C   C749      1.0  0.47687  0.77032  0.02550  1.0000
  C   C750      1.0  0.46412  0.74791  0.45547  1.0000
  H   H1302     1.0  0.34302  0.86670  0.11073  1.0000
  H   H1303     1.0  0.13575  0.75211  0.36034  1.0000
  C   C751      1.0  0.19016  0.80857  0.02568  1.0000
  H   H1304     1.0  0.35073  0.77580  0.29305  1.0000
  H   H1305     1.0  0.19595  0.84046  0.49574  1.0000
  H   H1306     1.0  0.03133  0.76232  0.32635  1.0000
  H   H1307     1.0  0.47071  0.75587  0.43163  1.0000
  H   H1308     1.0  0.32393  0.84962  0.09082  1.0000
  H   H1309     1.0  0.32084  0.76550  0.23731  1.0000
  H   H1310     1.0  0.05760  0.79999  0.00193  1.0000
  H   H1311     1.0  0.31861  0.77291  0.18057  1.0000
  H   H1312     1.0  0.37663  0.83840  0.48669  1.0000
  H   H1313     1.0  0.25348  0.75353  0.47593  1.0000
  H   H1314     1.0  0.22932  0.86800  0.07581  1.0000
  H   H1315     1.0  0.23117  0.83986  0.05012  1.0000
  H   H1316     1.0  0.17011  0.77598  0.06646  1.0000
  H   H1317     1.0  0.23682  0.87196  0.02961  1.0000
  H   H1318     1.0  0.19916  0.83215  0.45318  1.0000
  H   H1319     1.0  0.34677  0.84693  0.37550  1.0000
  C   C752      1.0  0.38417  0.76266  0.42950  1.0000
  C   C753      1.0  0.37047  0.76502  0.16226  1.0000
  H   H1320     1.0  0.43079  0.76666  0.47347  1.0000
  H   H1321     1.0  0.24057  0.78873  0.01977  1.0000
  C   C754      1.0  0.20579  0.83656  0.47905  1.0000
  S   S171      1.0  0.35114  0.79675  0.05492  1.0000
  H   H1322     1.0  0.27465  0.87208  0.43181  1.0000
  S   S172      1.0  0.30507  0.80103  0.01076  1.0000
  H   H1323     1.0  0.33279  0.74724  0.13871  1.0000
  H   H1324     1.0  0.38773  0.79700  0.05004  1.0000
  C   C755      1.0  0.22077  0.81425  0.47164  1.0000
  H   H1325     1.0  0.36529  0.75061  0.38703  1.0000
  H   H1326     1.0  0.20997  0.86408  0.42637  1.0000
  H   H1327     1.0  0.36857  0.86570  0.37703  1.0000
  C   C756      1.0  0.27805  0.83780  0.48617  1.0000
  H   H1328     1.0  0.15648  0.79018  0.05986  1.0000
  C   C757      1.0  0.06382  0.85889  0.05227  1.0000
  H   H1329     1.0  0.21339  0.78579  0.49404  1.0000
  H   H1330     1.0  0.22549  0.81204  0.03050  1.0000
  H   H1331     1.0  0.14605  0.77122  0.38877  1.0000
  H   H1332     1.0  0.08200  0.76452  0.32359  1.0000
  C   C758      1.0  0.27025  0.87044  0.48901  1.0000
  H   H1333     1.0  0.07980  0.81139  0.07258  1.0000
  C   C759      1.0  0.38357  0.76475  0.13170  1.0000
  C   C760      1.0  0.34962  0.77453  0.21832  1.0000
  H   H1334     1.0  0.05470  0.77083  0.33937  1.0000
  C   C761      1.0  0.16235  0.78084  0.04673  1.0000
  H   H1335     1.0  0.35333  0.84896  0.06648  1.0000
  H   H1336     1.0  0.23865  0.77929  0.46420  1.0000
  H   H1337     1.0  0.09866  0.80722  0.05326  1.0000
  H   H1338     1.0  0.32950  0.84002  0.02574  1.0000
  H   H1339     1.0  0.15088  0.76872  0.03762  1.0000
  H   H1340     1.0  0.45096  0.79553  0.43267  1.0000
  H   H1341     1.0  0.36317  0.89402  0.01382  1.0000
  H   H1342     1.0  0.15592  0.77094  0.34470  1.0000
  H   H1343     1.0  0.44786  0.79394  0.38516  1.0000
  C   C762      1.0  0.36138  0.85063  0.38179  1.0000
  H   H1344     1.0  0.07371  0.84065  0.00182  1.0000
  H   H1345     1.0  0.07554  0.79930  0.36586  1.0000
  S   S173      1.0  0.28230  0.81701  0.48628  1.0000
  H   H1346     1.0  0.12083  0.83468  0.07766  1.0000
  C   C763      1.0  0.27466  0.86259  0.01311  1.0000
  C   C764      1.0  0.07646  0.83560  0.02835  1.0000
  H   H1347     1.0  0.36246  0.83688  0.01045  1.0000
  H   H1348     1.0  0.46978  0.77938  0.01506  1.0000
  C   C765      1.0  0.34862  0.86005  0.05679  1.0000
  H   H1349     1.0  0.39549  0.77791  0.12976  1.0000
  H   H1350     1.0  0.12060  0.83746  0.01211  1.0000
  H   H1351     1.0  0.32997  0.86257  0.01642  1.0000
  Fe  Fe86      1.0  0.08948  0.74463  0.39967  1.0000
  H   H1352     1.0  0.38857  0.75328  0.13652  1.0000
  H   H1353     1.0  0.38456  0.86260  0.47773  1.0000
  C   C766      1.0  0.36573  0.75813  0.41201  1.0000
  H   H1354     1.0  0.10340  0.84195  0.09551  1.0000
  C   C767      1.0  0.46184  0.75692  0.48623  1.0000
  C   C768      1.0  0.07882  0.85084  0.05557  1.0000
  N   N43       1.0  0.09181  0.82841  0.02504  1.0000
  H   H1355     1.0  0.05015  0.84792  0.05669  1.0000
  C   C769      1.0  0.10980  0.84348  0.01479  1.0000
  H   H1356     1.0  0.36065  0.87294  0.05442  1.0000
  H   H1357     1.0  0.06353  0.82422  0.03664  1.0000
  H   H1358     1.0  0.46679  0.77179  0.48617  1.0000
  H   H1359     1.0  0.06554  0.86943  0.07272  1.0000
  H   H1360     1.0  0.11441  0.85363  0.03607  1.0000
  C   C770      1.0  0.13657  0.81005  0.01109  1.0000
  S   S174      1.0  0.26568  0.89106  0.48979  1.0000
  H   H1361     1.0  0.06458  0.86559  0.02543  1.0000
  C   C771      1.0  0.34195  0.83035  0.49325  1.0000
  H   H1362     1.0  0.34603  0.82051  0.47747  1.0000
  H   H1363     1.0  0.32825  0.82889  0.48347  1.0000
  Fe  Fe87      1.0  0.05985  0.74660  0.45148  1.0000
  H   H1364     1.0  0.45124  0.74468  0.06690  1.0000
  H   H1365     1.0  0.30845  0.74507  0.45813  1.0000
  H   H1366     1.0  0.22929  0.86057  0.49519  1.0000
  C   C772      1.0  0.22085  0.81077  0.00252  1.0000
  H   H1367     1.0  0.17993  0.78078  0.00231  1.0000
  N   N44       1.0  0.20977  0.82100  0.49752  1.0000
  C   C773      1.0  0.16466  0.84554  0.99917  1.0000
  C   C774      1.0  0.20368  0.82063  0.89394  1.0000
  H   H1368     1.0  0.15424  0.82281  0.56724  1.0000
  Fe  Fe88      1.0  0.23631  0.92179  0.93205  1.0000
  S   S175      1.0  0.24481  0.90919  0.88433  1.0000
  S   S176      1.0  0.25566  0.95116  0.94755  1.0000
  Fe  Fe89      1.0  0.20280  0.88475  0.94962  1.0000
  S   S177      1.0  0.20911  0.87118  0.90159  1.0000
  C   C775      1.0  0.24149  0.97003  0.65747  1.0000
  Fe  Fe90      1.0  0.23822  0.88328  0.91838  1.0000
  S   S178      1.0  0.25395  0.86397  0.91495  1.0000
  Fe  Fe91      1.0  0.21520  0.89826  0.87159  1.0000
  S   S179      1.0  0.20586  0.90178  0.81540  1.0000
  S   S180      1.0  0.20649  0.91146  0.91837  1.0000
  Fe  Fe92      1.0  0.43473  0.80495  0.91662  1.0000
  S   S181      1.0  0.43899  0.78891  0.86987  1.0000
  S   S182      1.0  0.40648  0.80709  0.92197  1.0000
  C   C776      1.0  0.39016  0.75122  0.55653  1.0000
  H   H1369     1.0  0.21743  0.84009  0.93243  1.0000
  Fe  Fe93      1.0  0.46519  0.81281  0.85922  1.0000
  H   H1370     1.0  0.21873  0.80124  0.55394  1.0000
  Fe  Fe94      1.0  0.45475  0.77814  0.90790  1.0000
  C   C777      1.0  0.27984  0.98753  0.94949  1.0000
  S   S183      1.0  0.46039  0.82983  0.90385  1.0000
  S   S184      1.0  0.44841  0.79199  0.95544  1.0000
  Fe  Fe95      1.0  0.44897  0.81520  0.60328  1.0000
  S   S185      1.0  0.45908  0.83806  0.56100  1.0000
  S   S186      1.0  0.43719  0.81851  0.65754  1.0000
  Fe  Fe96      1.0  0.45491  0.78729  0.55401  1.0000
  H   H1371     1.0  0.24312  0.95649  0.66066  1.0000
  H   H1372     1.0  0.24393  0.79412  0.97231  1.0000
  H   H1373     1.0  0.36492  0.91248  0.95800  1.0000
  Fe  Fe97      1.0  0.44247  0.81686  0.52300  1.0000
  H   H1374     1.0  0.16225  0.83930  0.94349  1.0000
  C   C778      1.0  0.47955  0.86034  0.64225  1.0000
  S   S187      1.0  0.43065  0.79504  0.56601  1.0000
  Fe  Fe98      1.0  0.23518  0.92725  0.55940  1.0000
  S   S188      1.0  0.25888  0.91939  0.57476  1.0000
  S   S189      1.0  0.23838  0.95816  0.55592  1.0000
  Fe  Fe99      1.0  0.20851  0.88523  0.55818  1.0000
  S   S190      1.0  0.23143  0.87613  0.57456  1.0000
  C   C779      1.0  0.28292  0.76155  0.56057  1.0000
  Fe  Fe100     1.0  0.23884  0.89908  0.61358  1.0000
  S   S191      1.0  0.24669  0.89466  0.67052  1.0000
  Fe  Fe101     1.0  0.24883  0.89721  0.53438  1.0000
  C   C780      1.0  0.39131  0.80082  0.50606  1.0000
  S   S192      1.0  0.21525  0.90735  0.59988  1.0000
  H   H1375     1.0  0.16598  0.79421  0.99489  1.0000
  H   H1376     1.0  0.27458  0.83669  0.54344  1.0000
  C   C781      1.0  0.19164  0.80626  0.50832  1.0000
  H   H1377     1.0  0.35116  0.86168  0.53652  1.0000
  H   H1378     1.0  0.40972  0.86150  0.51896  1.0000
  C   C782      1.0  0.45324  0.74659  0.51696  1.0000
  C   C783      1.0  0.15333  0.82725  0.54000  1.0000
  H   H1379     1.0  0.23597  0.97080  0.63065  1.0000
  H   H1380     1.0  0.13992  0.86373  0.97073  1.0000
  H   H1381     1.0  0.32299  0.85691  0.94019  1.0000
  C   C784      1.0  0.37666  0.90873  0.96629  1.0000
  C   C785      1.0  0.46549  0.81858  0.76401  1.0000
  C   C786      1.0  0.32280  0.80542  0.53784  1.0000
  C   C787      1.0  0.46418  0.81422  0.69943  1.0000
  C   C788      1.0  0.44787  0.81753  0.69841  1.0000
  C   C789      1.0  0.44012  0.82077  0.73051  1.0000
  C   C790      1.0  0.44880  0.82116  0.76321  1.0000
  H   H1382     1.0  0.29769  0.96226  0.88856  1.0000
  H   H1383     1.0  0.13091  0.80209  0.52818  1.0000
  H   H1384     1.0  0.42744  0.82324  0.73005  1.0000
  H   H1385     1.0  0.44287  0.82404  0.78761  1.0000
  C   C791      1.0  0.23403  0.78587  0.99349  1.0000
  H   H1386     1.0  0.30039  0.74941  0.51265  1.0000
  H   H1387     1.0  0.36906  0.80364  0.92666  1.0000
  C   C792      1.0  0.37312  0.80204  0.95358  1.0000
  C   C793      1.0  0.39092  0.80251  0.95921  1.0000
  C   C794      1.0  0.25160  0.98376  0.92107  1.0000
  H   H1388     1.0  0.20564  0.81228  0.57724  1.0000
  C   C795      1.0  0.26649  0.86777  0.98377  1.0000
  Fe  Fe102     1.0  0.47448  0.81559  0.93962  1.0000
  H   H1389     1.0  0.27766  0.82305  0.98221  1.0000
  H   H1390     1.0  0.33757  0.82785  0.97207  1.0000
  C   C796      1.0  0.21231  0.82495  0.93040  1.0000
  C   C797      1.0  0.26972  0.94684  0.72708  1.0000
  C   C798      1.0  0.32645  0.87772  0.52424  1.0000
  C   C799      1.0  0.21807  0.90070  0.77563  1.0000
  C   C800      1.0  0.23228  0.89391  0.77585  1.0000
  C   C801      1.0  0.24098  0.89231  0.74347  1.0000
  C   C802      1.0  0.23569  0.89757  0.71058  1.0000
  C   C803      1.0  0.22184  0.90487  0.71046  1.0000
  C   C804      1.0  0.21301  0.90631  0.74280  1.0000
  H   H1391     1.0  0.23632  0.88954  0.80088  1.0000
  H   H1392     1.0  0.25176  0.88676  0.74389  1.0000
  H   H1393     1.0  0.21799  0.90943  0.68546  1.0000
  H   H1394     1.0  0.20214  0.91174  0.74239  1.0000
  C   C805      1.0  0.38043  0.85101  0.96581  1.0000
  S   S193      1.0  0.18157  0.85940  0.55741  1.0000
  H   H1395     1.0  0.13771  0.80853  0.95373  1.0000
  H   H1396     1.0  0.23308  0.81954  0.98637  1.0000
  H   H1397     1.0  0.18328  0.74523  0.54609  1.0000
  H   H1398     1.0  0.31297  0.98215  0.84074  1.0000
  H   H1399     1.0  0.37387  0.83928  0.94836  1.0000
  H   H1400     1.0  0.34703  0.79952  0.97767  1.0000
  H   H1401     1.0  0.33827  0.83287  0.55151  1.0000
  S   S194      1.0  0.23203  0.89621  0.96731  1.0000
  N   N45       1.0  0.27566  0.96137  0.82676  1.0000
  C   C806      1.0  0.27657  0.96278  0.78645  1.0000
  H   H1402     1.0  0.36235  0.87489  0.94256  1.0000
  C   C807      1.0  0.28562  0.94895  0.83863  1.0000
  C   C808      1.0  0.25617  0.95316  0.84067  1.0000
  C   C809      1.0  0.24366  0.96385  0.83007  1.0000
  C   C810      1.0  0.26539  0.94489  0.76725  1.0000
  C   C811      1.0  0.28935  0.94848  0.87909  1.0000
  H   H1403     1.0  0.35171  0.81920  0.53922  1.0000
  N   N46       1.0  0.35105  0.85599  0.98784  1.0000
  C   C812      1.0  0.22392  0.95325  0.84245  1.0000
  H   H1404     1.0  0.24802  0.97737  0.84296  1.0000
  C   C813      1.0  0.29947  0.93548  0.88753  1.0000
  H   H1405     1.0  0.34441  0.87869  0.96584  1.0000
  C   C814      1.0  0.46330  0.86563  0.65317  1.0000
  H   H1406     1.0  0.29768  0.76999  0.55930  1.0000
  S   S195      1.0  0.48131  0.80083  0.89412  1.0000
  H   H1407     1.0  0.29891  0.95258  0.82374  1.0000
  H   H1408     1.0  0.27775  0.93443  0.83197  1.0000
  H   H1409     1.0  0.24966  0.93868  0.83232  1.0000
  H   H1410     1.0  0.25566  0.95226  0.87034  1.0000
  H   H1411     1.0  0.24382  0.96623  0.80075  1.0000
  H   H1412     1.0  0.19202  0.82542  0.89195  1.0000
  H   H1413     1.0  0.26838  0.93283  0.77741  1.0000
  H   H1414     1.0  0.25052  0.94176  0.77112  1.0000
  H   H1415     1.0  0.27642  0.94336  0.89489  1.0000
  C   C815      1.0  0.27017  0.86035  0.52043  1.0000
  H   H1416     1.0  0.23112  0.81393  0.61331  1.0000
  Fe  Fe103     1.0  0.48148  0.82713  0.54932  1.0000
  H   H1417     1.0  0.32191  0.80022  0.56595  1.0000
  H   H1418     1.0  0.26728  0.86516  0.54588  1.0000
  H   H1419     1.0  0.28191  0.98002  0.87065  1.0000
  H   H1420     1.0  0.21826  0.94032  0.82776  1.0000
  H   H1421     1.0  0.22302  0.94982  0.87158  1.0000
  H   H1422     1.0  0.21548  0.96172  0.83705  1.0000
  H   H1423     1.0  0.46778  0.88067  0.65725  1.0000
  H   H1424     1.0  0.05655  0.77027  0.97938  1.0000
  H   H1425     1.0  0.10792  0.84588  0.95620  1.0000
  H   H1426     1.0  0.30177  0.93531  0.91669  1.0000
  H   H1427     1.0  0.29128  0.92120  0.88007  1.0000
  C   C816      1.0  0.21872  0.81475  0.56228  1.0000
  H   H1428     1.0  0.09922  0.81058  0.98950  1.0000
  H   H1429     1.0  0.28858  0.98164  0.96301  1.0000
  C   C817      1.0  0.39269  0.75579  0.51638  1.0000
  C   C818      1.0  0.32143  0.84318  0.95181  1.0000
  H   H1430     1.0  0.38318  0.87014  0.53850  1.0000
  H   H1431     1.0  0.19892  0.80560  0.88951  1.0000
  H   H1432     1.0  0.06804  0.78857  0.94694  1.0000
  C   C819      1.0  0.36061  0.79976  0.98246  1.0000
  H   H1433     1.0  0.22508  0.84562  0.98751  1.0000
  H   H1434     1.0  0.23636  0.83690  0.59440  1.0000
  H   H1435     1.0  0.39792  0.79945  0.53041  1.0000
  C   C820      1.0  0.27572  0.98067  0.55316  1.0000
  H   H1436     1.0  0.40340  0.75250  0.56833  1.0000
  H   H1437     1.0  0.16575  0.77027  0.49952  1.0000
  H   H1438     1.0  0.26361  0.88034  0.98416  1.0000
  H   H1439     1.0  0.23524  0.83536  0.52276  1.0000
  C   C821      1.0  0.31204  0.82901  0.92415  1.0000
  C   C822      1.0  0.33973  0.82285  0.53239  1.0000
  H   H1440     1.0  0.34801  0.84359  0.93593  1.0000
  H   H1441     1.0  0.39456  0.83696  0.99812  1.0000
  H   H1442     1.0  0.46999  0.81123  0.67506  1.0000
  H   H1443     1.0  0.18712  0.82131  0.95937  1.0000
  H   H1444     1.0  0.40612  0.84707  0.95650  1.0000
  N   N47       1.0  0.20549  0.81788  0.99846  1.0000
  H   H1445     1.0  0.27595  0.76647  0.53931  1.0000
  H   H1446     1.0  0.27716  0.76336  0.58692  1.0000
  C   C823      1.0  0.16532  0.84481  0.52747  1.0000
  H   H1447     1.0  0.29858  0.82986  0.91818  1.0000
  H   H1448     1.0  0.31235  0.87720  0.51969  1.0000
  H   H1449     1.0  0.38454  0.86397  0.94937  1.0000
  H   H1450     1.0  0.26626  0.95826  0.71516  1.0000
  C   C824      1.0  0.35659  0.87490  0.96996  1.0000
  H   H1451     1.0  0.10022  0.86152  0.98087  1.0000
  H   H1452     1.0  0.30975  0.81482  0.93440  1.0000
  H   H1453     1.0  0.08102  0.77853  0.97438  1.0000
  H   H1454     1.0  0.28437  0.94937  0.72153  1.0000
  S   S196      1.0  0.18105  0.86858  0.99323  1.0000
  C   C825      1.0  0.27423  0.84420  0.51897  1.0000
  S   S197      1.0  0.26392  0.76018  0.98422  1.0000
  H   H1455     1.0  0.26495  0.98460  0.68805  1.0000
  H   H1456     1.0  0.13255  0.87954  0.99560  1.0000
  H   H1457     1.0  0.42944  0.74929  0.96325  1.0000
  C   C826      1.0  0.15743  0.83429  0.97043  1.0000
  H   H1458     1.0  0.31218  0.84040  0.97572  1.0000
  H   H1459     1.0  0.36464  0.78272  0.52518  1.0000
  C   C827      1.0  0.14004  0.81539  0.51779  1.0000
  H   H1460     1.0  0.27853  0.96805  0.55354  1.0000
  S   S198      1.0  0.47828  0.82184  0.80341  1.0000
  H   H1461     1.0  0.31292  0.94016  0.87304  1.0000
  C   C828      1.0  0.14343  0.81681  0.97636  1.0000
  H   H1462     1.0  0.26401  0.83264  0.92962  1.0000
  H   H1463     1.0  0.45654  0.85804  0.67820  1.0000
  N   N48       1.0  0.17211  0.85758  0.67621  1.0000
  C   C829      1.0  0.18371  0.84757  0.66106  1.0000
  C   C830      1.0  0.15251  0.84736  0.66700  1.0000
  C   C831      1.0  0.17804  0.87634  0.65742  1.0000
  C   C832      1.0  0.17407  0.86019  0.71604  1.0000
  C   C833      1.0  0.17786  0.84503  0.73866  1.0000
  C   C834      1.0  0.20458  0.85799  0.66226  1.0000
  C   C835      1.0  0.16656  0.88833  0.66645  1.0000
  C   C836      1.0  0.14353  0.82724  0.68170  1.0000
  C   C837      1.0  0.12485  0.81784  0.66570  1.0000
  C   C838      1.0  0.17737  0.84859  0.77857  1.0000
  C   C839      1.0  0.21497  0.84511  0.65576  1.0000
  C   C840      1.0  0.17575  0.90806  0.65146  1.0000
  H   H1464     1.0  0.18051  0.84448  0.63250  1.0000
  H   H1465     1.0  0.18057  0.83396  0.67474  1.0000
  H   H1466     1.0  0.14359  0.85452  0.67732  1.0000
  H   H1467     1.0  0.15129  0.84730  0.63731  1.0000
  H   H1468     1.0  0.17810  0.87496  0.62783  1.0000
  H   H1469     1.0  0.19231  0.88465  0.66395  1.0000
  H   H1470     1.0  0.18551  0.87325  0.72145  1.0000
  H   H1471     1.0  0.16171  0.86194  0.72788  1.0000
  H   H1472     1.0  0.19162  0.84491  0.73204  1.0000
  H   H1473     1.0  0.16789  0.83111  0.73412  1.0000
  H   H1474     1.0  0.20901  0.86903  0.64102  1.0000
  H   H1475     1.0  0.20858  0.86452  0.68824  1.0000
  H   H1476     1.0  0.16463  0.88895  0.69576  1.0000
  H   H1477     1.0  0.15298  0.88268  0.65431  1.0000
  H   H1478     1.0  0.15177  0.81876  0.67528  1.0000
  H   H1479     1.0  0.14133  0.82711  0.71109  1.0000
  H   H1480     1.0  0.11846  0.80360  0.67727  1.0000
  H   H1481     1.0  0.11570  0.82550  0.67174  1.0000
  H   H1482     1.0  0.12623  0.81702  0.63624  1.0000
  H   H1483     1.0  0.18775  0.86222  0.78451  1.0000
  H   H1484     1.0  0.16369  0.84827  0.78739  1.0000
  H   H1485     1.0  0.18049  0.83783  0.79417  1.0000
  H   H1486     1.0  0.22986  0.85320  0.65433  1.0000
  H   H1487     1.0  0.21213  0.83463  0.67795  1.0000
  H   H1488     1.0  0.21095  0.83813  0.63013  1.0000
  H   H1489     1.0  0.17750  0.90816  0.62193  1.0000
  H   H1490     1.0  0.16713  0.91622  0.65795  1.0000
  H   H1491     1.0  0.18928  0.91478  0.66335  1.0000
  H   H1492     1.0  0.37105  0.84679  0.55350  1.0000
  H   H1493     1.0  0.47422  0.84557  0.63560  1.0000
  H   H1494     1.0  0.45316  0.86200  0.63178  1.0000
  H   H1495     1.0  0.40966  0.80076  0.99885  1.0000
  C   C841      1.0  0.26684  0.84095  0.95305  1.0000
  H   H1496     1.0  0.38498  0.76105  0.56981  1.0000
  H   H1497     1.0  0.08475  0.82099  0.97022  1.0000
  H   H1498     1.0  0.40382  0.85660  0.56588  1.0000
  S   S199      1.0  0.45042  0.75707  0.55628  1.0000
  H   H1499     1.0  0.26153  0.93394  0.71407  1.0000
  H   H1500     1.0  0.21083  0.78721  0.96673  1.0000
  H   H1501     1.0  0.21631  0.83945  0.54185  1.0000
  H   H1502     1.0  0.40615  0.86162  0.99331  1.0000
  C   C842      1.0  0.26282  0.85712  0.95340  1.0000
  C   C843      1.0  0.34990  0.86352  0.50740  1.0000
  S   S200      1.0  0.46577  0.80764  0.50799  1.0000
  H   H1503     1.0  0.23061  0.77104  0.98829  1.0000
  C   C844      1.0  0.21669  0.79042  0.99346  1.0000
  C   C845      1.0  0.39600  0.80035  0.99414  1.0000
  H   H1504     1.0  0.27744  0.98967  0.83046  1.0000
  C   C846      1.0  0.25757  0.97969  0.55397  1.0000
  C   C847      1.0  0.28421  0.98040  0.84114  1.0000
  C   C848      1.0  0.26264  0.97569  0.93840  1.0000
  H   H1505     1.0  0.23159  0.97085  0.67832  1.0000
  C   C849      1.0  0.23426  0.82243  0.58808  1.0000
  S   S201      1.0  0.47233  0.80573  0.59445  1.0000
  H   H1506     1.0  0.24709  0.82200  0.57607  1.0000
  C   C850      1.0  0.38098  0.85553  0.53314  1.0000
  C   C851      1.0  0.47304  0.81496  0.73199  1.0000
  C   C852      1.0  0.11043  0.85475  0.97971  1.0000
  H   H1507     1.0  0.26957  0.98331  0.64106  1.0000
  S   S202      1.0  0.22593  0.90597  0.51630  1.0000
  C   C853      1.0  0.39907  0.85278  0.53847  1.0000
  H   H1508     1.0  0.32764  0.87509  0.55320  1.0000
  C   C854      1.0  0.25994  0.98558  0.66094  1.0000
  H   H1509     1.0  0.19346  0.79433  0.52212  1.0000
  H   H1510     1.0  0.31992  0.84958  0.51099  1.0000
  H   H1511     1.0  0.22403  0.82023  0.93077  1.0000
  C   C855      1.0  0.12921  0.86985  0.97330  1.0000
  H   H1512     1.0  0.32040  0.83175  0.89892  1.0000
  H   H1513     1.0  0.21399  0.82793  0.87263  1.0000
  H   H1514     1.0  0.31026  0.80836  0.53237  1.0000
  C   C856      1.0  0.34015  0.84213  0.96160  1.0000
  H   H1515     1.0  0.12938  0.87777  0.94813  1.0000
  H   H1516     1.0  0.37918  0.75459  0.50621  1.0000
  C   C857      1.0  0.30484  0.99046  0.83224  1.0000
  H   H1517     1.0  0.23826  0.97509  0.91277  1.0000
  S   S203      1.0  0.45611  0.74961  0.90864  1.0000
  H   H1518     1.0  0.38419  0.90693  0.94212  1.0000
  H   H1519     1.0  0.32349  0.79454  0.51999  1.0000
  C   C858      1.0  0.39786  0.84906  0.97938  1.0000
  C   C859      1.0  0.22054  0.82848  0.53031  1.0000
  C   C860      1.0  0.19824  0.81565  0.96114  1.0000
  H   H1520     1.0  0.48582  0.85261  0.69383  1.0000
  H   H1521     1.0  0.19184  0.80095  0.95466  1.0000
  C   C861      1.0  0.27458  0.83550  0.98277  1.0000
  H   H1522     1.0  0.33610  0.89173  0.51618  1.0000
  H   H1523     1.0  0.20264  0.84452  0.99874  1.0000
  H   H1524     1.0  0.29098  0.96687  0.77654  1.0000
  H   H1525     1.0  0.48579  0.81267  0.73247  1.0000
  H   H1526     1.0  0.39737  0.83812  0.53511  1.0000
  H   H1527     1.0  0.27210  0.97401  0.77651  1.0000
  H   H1528     1.0  0.18441  0.81180  0.52836  1.0000
  H   H1529     1.0  0.48590  0.86853  0.61762  1.0000
  H   H1530     1.0  0.30721  0.99352  0.80306  1.0000
  H   H1531     1.0  0.40225  0.77022  0.51311  1.0000
  H   H1532     1.0  0.23564  0.80174  0.50587  1.0000
  C   C862      1.0  0.06895  0.78276  0.97391  1.0000
  H   H1533     1.0  0.15466  0.78571  0.51416  1.0000
  C   C863      1.0  0.36726  0.85093  0.99733  1.0000
  H   H1534     1.0  0.38600  0.92026  0.98144  1.0000
  C   C864      1.0  0.37010  0.89111  0.98989  1.0000
  C   C865      1.0  0.37241  0.79148  0.50313  1.0000
  C   C866      1.0  0.08732  0.81470  0.99553  1.0000
  C   C867      1.0  0.33020  0.86314  0.50219  1.0000
  H   H1535     1.0  0.38237  0.88835  0.99786  1.0000
  H   H1536     1.0  0.35959  0.87776  0.50059  1.0000
  Fe  Fe104     1.0  0.71505  0.10462  0.37983  1.0000
  S   S204      1.0  0.73568  0.09274  0.39821  1.0000
  S   S205      1.0  0.71025  0.11391  0.32403  1.0000
  Fe  Fe105     1.0  0.69714  0.10031  0.45411  1.0000
  H   H1537     1.0  0.55338  0.19202  0.35057  1.0000
  H   H1538     1.0  0.70241  0.01441  0.31753  1.0000
  Fe  Fe106     1.0  0.73837  0.11040  0.44692  1.0000
  H   H1539     1.0  0.56218  0.23076  0.01078  1.0000
  Fe  Fe107     1.0  0.71132  0.07070  0.42650  1.0000
  S   S206      1.0  0.70677  0.04001  0.41717  1.0000
  S   S207      1.0  0.71936  0.12374  0.42597  1.0000
  S   S208      1.0  0.69091  0.08237  0.40632  1.0000
  C   C868      1.0  0.51906  0.17676  0.31171  1.0000
  Fe  Fe108     1.0  0.50026  0.17961  0.42432  1.0000
  S   S209      1.0  0.50135  0.20801  0.40858  1.0000
  C   C869      1.0  0.63833  0.01080  0.14466  1.0000
  C   C870      1.0  0.66068  0.99805  0.45738  1.0000
  H   H1540     1.0  0.62695  0.01334  0.15883  1.0000
  H   H1541     1.0  0.58082  0.18418  0.35544  1.0000
  C   C871      1.0  0.72763  0.20174  0.35192  1.0000
  H   H1542     1.0  0.74955  0.06905  0.31681  1.0000
  H   H1543     1.0  0.71858  0.16689  0.37675  1.0000
  Fe  Fe109     1.0  0.72835  0.09762  0.12124  1.0000
  S   S210      1.0  0.73951  0.08428  0.07904  1.0000
  S   S211      1.0  0.74126  0.09787  0.17537  1.0000
  Fe  Fe110     1.0  0.70445  0.10702  0.06689  1.0000
  S   S212      1.0  0.52698  0.17129  0.00762  1.0000
  Fe  Fe111     1.0  0.71053  0.07038  0.06184  1.0000
  S   S213      1.0  0.70228  0.03871  0.05534  1.0000
  Fe  Fe112     1.0  0.74238  0.10884  0.04288  1.0000
  H   H1544     1.0  0.75065  0.18215  0.36741  1.0000
  S   S214      1.0  0.69932  0.08284  0.10604  1.0000
  S   S215      1.0  0.73258  0.12270  0.08619  1.0000
  H   H1545     1.0  0.64995  0.99640  0.47720  1.0000
  C   C872      1.0  0.73977  0.05732  0.33289  1.0000
  H   H1546     1.0  0.59028  0.14102  0.44669  1.0000
  H   H1547     1.0  0.71207  0.03450  0.16645  1.0000
  H   H1548     1.0  0.70053  0.06375  0.20302  1.0000
  H   H1549     1.0  0.53721  0.18429  0.17879  1.0000
  H   H1550     1.0  0.69138  0.03907  0.15888  1.0000
  Fe  Fe113     1.0  0.50614  0.17870  0.04104  1.0000
  C   C873      1.0  0.53423  0.23435  0.34265  1.0000
  S   S216      1.0  0.50988  0.19673  0.08853  1.0000
  C   C874      1.0  0.53242  0.21008  0.29751  1.0000
  C   C875      1.0  0.68430  0.01632  0.05601  1.0000
  C   C876      1.0  0.64321  0.99597  0.16477  1.0000
  H   H1551     1.0  0.51393  0.14567  0.35548  1.0000
  C   C877      1.0  0.66573  0.01381  0.05864  1.0000
  H   H1552     1.0  0.66182  0.02574  0.06038  1.0000
  H   H1553     1.0  0.66202  0.04712  0.27908  1.0000
  C   C878      1.0  0.70576  0.04516  0.16710  1.0000
  C   C879      1.0  0.77558  0.16491  0.35548  1.0000
  C   C880      1.0  0.66890  0.07532  0.26191  1.0000
  C   C881      1.0  0.60615  0.16331  0.47989  1.0000
  H   H1554     1.0  0.56223  0.20516  0.28356  1.0000
  H   H1555     1.0  0.71902  0.14763  0.35426  1.0000
  C   C882      1.0  0.71727  0.16100  0.34975  1.0000
  H   H1556     1.0  0.54072  0.20755  0.16387  1.0000
  C   C883      1.0  0.68373  0.14517  0.36686  1.0000
  C   C884      1.0  0.55200  0.19130  0.29113  1.0000
  C   C885      1.0  0.74620  0.17311  0.26103  1.0000
  H   H1557     1.0  0.71061  0.21883  0.02834  1.0000
  C   C886      1.0  0.68878  0.00265  0.40736  1.0000
  C   C887      1.0  0.75568  0.15932  0.34509  1.0000
  H   H1558     1.0  0.73689  0.24113  0.44380  1.0000
  H   H1559     1.0  0.65578  0.99534  0.15178  1.0000
  H   H1560     1.0  0.77782  0.16001  0.43664  1.0000
  C   C888      1.0  0.68850  0.01821  0.42556  1.0000
  C   C889      1.0  0.67418  0.01576  0.45040  1.0000
  C   C890      1.0  0.75023  0.17654  0.34030  1.0000
  H   H1561     1.0  0.58201  0.18189  0.30774  1.0000
  H   H1562     1.0  0.63138  0.17571  0.01299  1.0000
  H   H1563     1.0  0.72237  0.03791  0.27801  1.0000
  C   C891      1.0  0.78066  0.14813  0.48735  1.0000
  C   C892      1.0  0.71930  0.10953  0.28313  1.0000
  C   C893      1.0  0.73364  0.10296  0.28169  1.0000
  C   C894      1.0  0.74038  0.09970  0.24839  1.0000
  C   C895      1.0  0.73264  0.10266  0.21639  1.0000
  C   C896      1.0  0.71837  0.10933  0.21786  1.0000
  C   C897      1.0  0.71193  0.11300  0.25109  1.0000
  H   H1564     1.0  0.73958  0.10047  0.30616  1.0000
  H   H1565     1.0  0.75152  0.09467  0.24744  1.0000
  H   H1566     1.0  0.71238  0.11176  0.19339  1.0000
  H   H1567     1.0  0.70094  0.11826  0.25197  1.0000
  H   H1568     1.0  0.68615  0.13233  0.37428  1.0000
  C   C898      1.0  0.61584  0.17500  0.44692  1.0000
  H   H1569     1.0  0.71095  0.19585  0.03007  1.0000
  H   H1570     1.0  0.57353  0.11218  0.02472  1.0000
  H   H1571     1.0  0.58545  0.20417  0.32617  1.0000
  C   C899      1.0  0.68010  0.13362  0.02825  1.0000
  C   C900      1.0  0.54586  0.12762  0.47093  1.0000
  H   H1572     1.0  0.57577  0.13530  0.01006  1.0000
  S   S217      1.0  0.68525  0.12305  0.06688  1.0000
  C   C901      1.0  0.69702  0.03773  0.23298  1.0000
  H   H1573     1.0  0.69460  0.00643  0.27415  1.0000
  C   C902      1.0  0.68482  0.02794  0.29401  1.0000
  H   H1574     1.0  0.68772  0.13672  0.44616  1.0000
  C   C903      1.0  0.71705  0.04909  0.28321  1.0000
  H   H1575     1.0  0.73015  0.16056  0.21516  1.0000
  H   H1576     1.0  0.68026  0.16520  0.44728  1.0000
  S   S218      1.0  0.52790  0.17615  0.42380  1.0000
  H   H1577     1.0  0.67371  0.02744  0.46487  1.0000
  H   H1578     1.0  0.71550  0.21950  0.32488  1.0000
  N   N49       1.0  0.53292  0.19150  0.28828  1.0000
  H   H1579     1.0  0.74004  0.22962  0.32850  1.0000
  Fe  Fe114     1.0  0.49204  0.20918  0.05966  1.0000
  H   H1580     1.0  0.74150  0.06052  0.36163  1.0000
  H   H1581     1.0  0.66198  0.16622  0.00574  1.0000
  H   H1582     1.0  0.54212  0.22117  0.27997  1.0000
  C   C904      1.0  0.71721  0.20973  0.01679  1.0000
  H   H1583     1.0  0.55447  0.18191  0.27138  1.0000
  H   H1584     1.0  0.52386  0.10073  0.47513  1.0000
  C   C905      1.0  0.80035  0.17889  0.46518  1.0000
  C   C906      1.0  0.58773  0.14849  0.46994  1.0000
  H   H1585     1.0  0.66972  0.99880  0.34175  1.0000
  H   H1586     1.0  0.85245  0.17135  0.04529  1.0000
  H   H1587     1.0  0.54377  0.11584  0.02249  1.0000
  N   N50       1.0  0.69769  0.04373  0.27118  1.0000
  C   C907      1.0  0.72018  0.05427  0.32291  1.0000
  C   C908      1.0  0.53025  0.11203  0.45486  1.0000
  H   H1588     1.0  0.71102  0.04330  0.34115  1.0000
  C   C909      1.0  0.67251  0.05732  0.26128  1.0000
  H   H1589     1.0  0.71336  0.05634  0.14737  1.0000
  C   C910      1.0  0.67480  0.15458  0.46800  1.0000
  H   H1590     1.0  0.66964  0.14127  0.35715  1.0000
  H   H1591     1.0  0.55210  0.21930  0.33994  1.0000
  H   H1592     1.0  0.69491  0.14769  0.31372  1.0000
  H   H1593     1.0  0.53989  0.13295  0.49320  1.0000
  H   H1594     1.0  0.65035  0.02388  0.14291  1.0000
  H   H1595     1.0  0.78482  0.17269  0.33301  1.0000
  H   H1596     1.0  0.75953  0.17396  0.27153  1.0000
  H   H1597     1.0  0.71808  0.19020  0.30077  1.0000
  H   H1598     1.0  0.55583  0.22655  0.43610  1.0000
  H   H1599     1.0  0.68487  0.15354  0.39080  1.0000
  H   H1600     1.0  0.62002  0.08680  0.02975  1.0000
  H   H1601     1.0  0.73900  0.24459  0.00639  1.0000
  H   H1602     1.0  0.77871  0.15238  0.36196  1.0000
  H   H1603     1.0  0.74694  0.18723  0.25334  1.0000
  H   H1604     1.0  0.68249  0.03267  0.32093  1.0000
  H   H1605     1.0  0.72146  0.05989  0.20997  1.0000
  H   H1606     1.0  0.58661  0.21334  0.04707  1.0000
  C   C911      1.0  0.53741  0.21643  0.33598  1.0000
  H   H1607     1.0  0.70187  0.07239  0.26009  1.0000
  H   H1608     1.0  0.67162  0.08149  0.28864  1.0000
  C   C912      1.0  0.70682  0.05308  0.20430  1.0000
  H   H1609     1.0  0.74716  0.14994  0.36671  1.0000
  H   H1610     1.0  0.71467  0.19384  0.36674  1.0000
  C   C913      1.0  0.61384  0.14689  0.02102  1.0000
  H   H1611     1.0  0.74593  0.16276  0.45417  1.0000
  H   H1612     1.0  0.52801  0.17490  0.24115  1.0000
  N   N51       1.0  0.79885  0.13503  0.11196  1.0000
  C   C914      1.0  0.78534  0.11550  0.11121  1.0000
  C   C915      1.0  0.78923  0.14817  0.10306  1.0000
  C   C916      1.0  0.81305  0.13724  0.08255  1.0000
  C   C917      1.0  0.80819  0.13945  0.14730  1.0000
  C   C918      1.0  0.79700  0.12929  0.18140  1.0000
  C   C919      1.0  0.79383  0.10032  0.11421  1.0000
  C   C920      1.0  0.82696  0.15708  0.07482  1.0000
  C   C921      1.0  0.77449  0.14885  0.13039  1.0000
  C   C922      1.0  0.76575  0.16248  0.11760  1.0000
  C   C923      1.0  0.80629  0.13790  0.21540  1.0000
  C   C924      1.0  0.77993  0.08174  0.12746  1.0000
  H   H1613     1.0  0.74469  0.18406  0.47015  1.0000
  H   H1614     1.0  0.77780  0.11333  0.08584  1.0000
  H   H1615     1.0  0.77452  0.11279  0.13226  1.0000
  H   H1616     1.0  0.79908  0.16258  0.10053  1.0000
  H   H1617     1.0  0.78284  0.14501  0.07655  1.0000
  H   H1618     1.0  0.80632  0.13222  0.05692  1.0000
  H   H1619     1.0  0.82112  0.12844  0.08869  1.0000
  H   H1620     1.0  0.82090  0.13626  0.14710  1.0000
  H   H1621     1.0  0.81291  0.15456  0.15138  1.0000
  H   H1622     1.0  0.79573  0.11463  0.18238  1.0000
  H   H1623     1.0  0.78297  0.12936  0.18247  1.0000
  H   H1624     1.0  0.79919  0.09841  0.08747  1.0000
  H   H1625     1.0  0.80540  0.10419  0.13252  1.0000
  H   H1626     1.0  0.83183  0.16429  0.09990  1.0000
  H   H1627     1.0  0.82050  0.16516  0.05884  1.0000
  H   H1628     1.0  0.76357  0.13514  0.13470  1.0000
  H   H1629     1.0  0.78067  0.15382  0.15627  1.0000
  H   H1630     1.0  0.75416  0.16156  0.13598  1.0000
  H   H1631     1.0  0.77585  0.17679  0.11723  1.0000
  H   H1632     1.0  0.76050  0.15936  0.09028  1.0000
  H   H1633     1.0  0.80712  0.15242  0.21673  1.0000
  H   H1634     1.0  0.79824  0.13007  0.23916  1.0000
  H   H1635     1.0  0.82024  0.13746  0.21633  1.0000
  C   C925      1.0  0.55105  0.18192  0.00604  1.0000
  S   S219      1.0  0.49840  0.23990  0.05962  1.0000
  H   H1636     1.0  0.78682  0.07166  0.13107  1.0000
  H   H1637     1.0  0.65939  0.21544  0.08943  1.0000
  C   C926      1.0  0.74728  0.23592  0.00168  1.0000
  C   C927      1.0  0.55717  0.18514  0.32793  1.0000
  H   H1638     1.0  0.62182  0.16941  0.05763  1.0000
  H   H1639     1.0  0.58773  0.19150  0.47824  1.0000
  H   H1640     1.0  0.60151  0.13916  0.03754  1.0000
  C   C928      1.0  0.72710  0.22074  0.34235  1.0000
  C   C929      1.0  0.57342  0.18889  0.48307  1.0000
  H   H1641     1.0  0.51841  0.19243  0.17949  1.0000
  H   H1642     1.0  0.51967  0.11737  0.44577  1.0000
  C   C930      1.0  0.53787  0.20310  0.22158  1.0000
  S   S220      1.0  0.49031  0.19283  0.01089  1.0000
  H   H1643     1.0  0.73956  0.21917  0.05212  1.0000
  H   H1644     1.0  0.55125  0.13874  0.45003  1.0000
  H   H1645     1.0  0.50447  0.12859  0.32250  1.0000
  C   C931      1.0  0.53326  0.19637  0.18370  1.0000
  H   H1646     1.0  0.77273  0.24206  0.42836  1.0000
  H   H1647     1.0  0.77275  0.22122  0.02018  1.0000
  C   C932      1.0  0.81060  0.18207  0.49648  1.0000
  S   S221      1.0  0.71419  0.09397  0.02137  1.0000
  C   C933      1.0  0.66333  0.15693  0.49513  1.0000
  H   H1648     1.0  0.51866  0.21044  0.29233  1.0000
  C   C934      1.0  0.69064  0.01103  0.29970  1.0000
  H   H1649     1.0  0.56643  0.18397  0.42778  1.0000
  C   C935      1.0  0.57764  0.18912  0.32923  1.0000
  H   H1650     1.0  0.48852  0.21938  0.23914  1.0000
  C   C936      1.0  0.78540  0.16221  0.46084  1.0000
  C   C937      1.0  0.52707  0.18807  0.25004  1.0000
  H   H1651     1.0  0.55279  0.20708  0.22452  1.0000
  H   H1652     1.0  0.53419  0.21552  0.22408  1.0000
  H   H1653     1.0  0.72417  0.23678  0.48587  1.0000
  H   H1654     1.0  0.49206  0.14273  0.33652  1.0000
  H   H1655     1.0  0.69976  0.00423  0.38819  1.0000
  H   H1656     1.0  0.64472  0.21188  0.05181  1.0000
  H   H1657     1.0  0.75411  0.15141  0.32041  1.0000
  H   H1658     1.0  0.52918  0.20602  0.35630  1.0000
  S   S222      1.0  0.77023  0.12362  0.01271  1.0000
  H   H1659     1.0  0.56526  0.11448  0.46071  1.0000
  H   H1660     1.0  0.63423  0.00660  0.11712  1.0000
  C   C938      1.0  0.68891  0.00046  0.05349  1.0000
  C   C939      1.0  0.69740  0.15627  0.33768  1.0000
  C   C940      1.0  0.73041  0.16397  0.28888  1.0000
  H   H1661     1.0  0.53402  0.23414  0.48256  1.0000
  C   C941      1.0  0.56100  0.12071  0.48405  1.0000
  H   H1662     1.0  0.67148  0.15235  0.05865  1.0000
  H   H1663     1.0  0.72893  0.14932  0.29300  1.0000
  H   H1664     1.0  0.75450  0.16903  0.20714  1.0000
  H   H1665     1.0  0.77825  0.17362  0.37926  1.0000
  H   H1666     1.0  0.64645  0.00063  0.19233  1.0000
  H   H1667     1.0  0.70869  0.21369  0.44265  1.0000
  C   C942      1.0  0.67299  0.14768  0.03222  1.0000
  H   H1668     1.0  0.55276  0.19869  0.05153  1.0000
  H   H1669     1.0  0.67111  0.02278  0.28215  1.0000
  H   H1670     1.0  0.65445  0.07267  0.25576  1.0000
  H   H1671     1.0  0.74196  0.20124  0.30240  1.0000
  C   C943      1.0  0.59886  0.11675  0.49013  1.0000
  C   C944      1.0  0.72989  0.19164  0.31790  1.0000
  C   C945      1.0  0.56035  0.19501  0.03055  1.0000
  H   H1672     1.0  0.72619  0.06126  0.26725  1.0000
  H   H1673     1.0  0.68269  0.03078  0.22489  1.0000
  H   H1674     1.0  0.74360  0.14802  0.23328  1.0000
  C   C946      1.0  0.74337  0.16198  0.22713  1.0000
  H   H1675     1.0  0.51246  0.18635  0.24800  1.0000
  H   H1676     1.0  0.70336  0.02714  0.23040  1.0000
  H   H1677     1.0  0.71780  0.06721  0.32804  1.0000
  H   H1678     1.0  0.67768  0.08530  0.24138  1.0000
  C   C947      1.0  0.61899  0.16725  0.02884  1.0000
  H   H1679     1.0  0.71769  0.16337  0.27564  1.0000
  C   C948      1.0  0.69187  0.06009  0.27433  1.0000
  H   H1680     1.0  0.76127  0.18738  0.32451  1.0000
  N   N52       1.0  0.73195  0.17327  0.32419  1.0000
  H   H1681     1.0  0.67062  0.05246  0.23357  1.0000
  H   H1682     1.0  0.57936  0.15622  0.45953  1.0000
  H   H1683     1.0  0.83931  0.14924  0.02829  1.0000
  H   H1684     1.0  0.69444  0.16887  0.33134  1.0000
  H   H1685     1.0  0.74290  0.04470  0.32863  1.0000
  H   H1686     1.0  0.69195  0.06405  0.30269  1.0000
  H   H1687     1.0  0.52825  0.15474  0.29286  1.0000
  C   C949      1.0  0.67906  0.13853  0.46736  1.0000
  H   H1688     1.0  0.74320  0.20687  0.01426  1.0000
  H   H1689     1.0  0.72841  0.20724  0.43741  1.0000
  H   H1690     1.0  0.61554  0.15713  0.49151  1.0000
  S   S223      1.0  0.71596  0.08716  0.47653  1.0000
  H   H1691     1.0  0.76761  0.23845  0.06533  1.0000
  H   H1692     1.0  0.62791  0.10862  0.05198  1.0000
  H   H1693     1.0  0.85162  0.15059  0.06901  1.0000
  C   C950      1.0  0.54276  0.18193  0.46020  1.0000
  H   H1694     1.0  0.73908  0.20379  0.37010  1.0000
  H   H1695     1.0  0.55461  0.23109  0.07513  1.0000
  H   H1696     1.0  0.72532  0.22757  0.36712  1.0000
  C   C951      1.0  0.74959  0.23120  0.48792  1.0000
  H   H1697     1.0  0.53525  0.10651  0.43146  1.0000
  H   H1698     1.0  0.60882  0.12734  0.47216  1.0000
  C   C952      1.0  0.50592  0.14263  0.33079  1.0000
  H   H1699     1.0  0.72783  0.17025  0.44030  1.0000
  H   H1700     1.0  0.55004  0.17009  0.33280  1.0000
  C   C953      1.0  0.65804  0.22075  0.06225  1.0000
  H   H1701     1.0  0.50572  0.17874  0.31181  1.0000
  H   H1702     1.0  0.52284  0.17790  0.34014  1.0000
  H   H1703     1.0  0.62217  0.23997  0.05314  1.0000
  H   H1704     1.0  0.60104  0.11117  0.02235  1.0000
  C   C954      1.0  0.62938  0.10142  0.02753  1.0000
  H   H1705     1.0  0.77351  0.08301  0.15349  1.0000
  C   C955      1.0  0.77724  0.23337  0.00125  1.0000
  C   C956      1.0  0.72075  0.21276  0.45631  1.0000
  C   C957      1.0  0.56133  0.18477  0.45449  1.0000
  C   C958      1.0  0.58952  0.19863  0.00073  1.0000
  C   C959      1.0  0.51540  0.15666  0.30071  1.0000
  H   H1706     1.0  0.75609  0.22384  0.47060  1.0000
  H   H1707     1.0  0.71578  0.20309  0.47984  1.0000
  H   H1708     1.0  0.66925  0.21983  0.04480  1.0000
  H   H1709     1.0  0.61964  0.16640  0.42737  1.0000
  H   H1710     1.0  0.60704  0.18159  0.43402  1.0000
  H   H1711     1.0  0.51965  0.23240  0.33934  1.0000
  H   H1712     1.0  0.58893  0.10655  0.47347  1.0000
  C   C960      1.0  0.73655  0.16975  0.46292  1.0000
  C   C961      1.0  0.66764  0.15559  0.00228  1.0000
  C   C962      1.0  0.73276  0.23191  0.46802  1.0000
  C   C963      1.0  0.57952  0.20325  0.02799  1.0000
  H   H1713     1.0  0.80417  0.18936  0.44391  1.0000
  H   H1714     1.0  0.62854  0.18606  0.45490  1.0000
  H   H1715     1.0  0.76920  0.07630  0.10763  1.0000
  H   H1716     1.0  0.64364  0.10182  0.02565  1.0000
  H   H1717     1.0  0.70315  0.00207  0.05132  1.0000
  H   H1718     1.0  0.62504  0.14259  0.03041  1.0000
  H   H1719     1.0  0.78049  0.16482  0.01050  1.0000
  H   H1720     1.0  0.64462  0.23855  0.01441  1.0000
  H   H1721     1.0  0.71644  0.14509  0.48619  1.0000
  H   H1722     1.0  0.78673  0.22958  0.48137  1.0000
  C   C964      1.0  0.65915  0.24071  0.06396  1.0000
  S   S224      1.0  0.76226  0.12637  0.48298  1.0000
  C   C965      1.0  0.56773  0.23397  0.45245  1.0000
  H   H1723     1.0  0.57159  0.22381  0.46833  1.0000
  C   C966      1.0  0.84358  0.15698  0.05306  1.0000
  C   C967      1.0  0.73771  0.21742  0.02300  1.0000
  H   H1724     1.0  0.53791  0.23863  0.37038  1.0000
  H   H1725     1.0  0.50636  0.15338  0.27742  1.0000
  H   H1726     1.0  0.53194  0.23253  0.03087  1.0000
  C   C968      1.0  0.53636  0.18315  0.49480  1.0000
  H   H1727     1.0  0.61710  0.10140  0.49130  1.0000
  H   H1728     1.0  0.48725  0.20338  0.18199  1.0000
  H   H1729     1.0  0.64841  0.24099  0.08329  1.0000
  S   S225      1.0  0.65761  0.17684  0.49326  1.0000
  S   S226      1.0  0.67634  0.10407  0.49316  1.0000
  H   H1730     1.0  0.48666  0.24126  0.35328  1.0000
  H   H1731     1.0  0.60759  0.17189  0.02233  1.0000
  C   C969      1.0  0.67506  0.99470  0.31697  1.0000
  C   C970      1.0  0.67181  0.12468  0.49383  1.0000
  C   C971      1.0  0.55901  0.24317  0.00336  1.0000
  C   C972      1.0  0.79835  0.24179  0.00308  1.0000
  H   H1732     1.0  0.80148  0.21574  0.01716  1.0000
  H   H1733     1.0  0.57944  0.24183  0.43426  1.0000
  C   C973      1.0  0.65218  0.99586  0.05843  1.0000
  C   C974      1.0  0.55208  0.24404  0.06974  1.0000
  C   C975      1.0  0.54502  0.24436  0.03214  1.0000
  C   C976      1.0  0.57127  0.12067  0.00245  1.0000
  C   C977      1.0  0.72448  0.15913  0.49467  1.0000
  Fe  Fe115     1.0  0.63472  0.18744  0.61821  1.0000
  S   S227      1.0  0.61899  0.17110  0.57288  1.0000
  S   S228      1.0  0.63659  0.17404  0.67198  1.0000
  Fe  Fe116     1.0  0.64957  0.22294  0.57250  1.0000
  H   H1734     1.0  0.83126  0.14989  0.95608  1.0000
  C   C978      1.0  0.53191  0.21829  0.92267  1.0000
  Fe  Fe117     1.0  0.61075  0.19561  0.56142  1.0000
  C   C979      1.0  0.82027  0.15337  0.96775  1.0000
  Fe  Fe118     1.0  0.64402  0.18647  0.53857  1.0000
  H   H1735     1.0  0.87039  0.19244  0.87126  1.0000
  S   S229      1.0  0.62492  0.21083  0.60936  1.0000
  S   S230      1.0  0.66044  0.20063  0.58459  1.0000
  H   H1736     1.0  0.78726  0.21847  0.85604  1.0000
  H   H1737     1.0  0.56646  0.21449  0.94612  1.0000
  S   S231      1.0  0.87277  0.22397  0.57272  1.0000
  S   S232      1.0  0.86219  0.21866  0.67624  1.0000
  H   H1738     1.0  0.49431  0.21718  0.59145  1.0000
  Fe  Fe119     1.0  0.84663  0.22121  0.54409  1.0000
  H   H1739     1.0  0.51658  0.18951  0.93834  1.0000
  H   H1740     1.0  0.89754  0.22329  0.63873  1.0000
  Fe  Fe120     1.0  0.64051  0.20517  0.87364  1.0000
  S   S233      1.0  0.62595  0.18305  0.91525  1.0000
  S   S234      1.0  0.62930  0.20982  0.82021  1.0000
  Fe  Fe121     1.0  0.67132  0.22481  0.92382  1.0000
  H   H1741     1.0  0.74432  0.22201  0.51213  1.0000
  C   C980      1.0  0.58143  0.11904  0.96760  1.0000
  Fe  Fe122     1.0  0.65400  0.18312  0.92731  1.0000
  H   H1742     1.0  0.51176  0.19648  0.89463  1.0000
  Fe  Fe123     1.0  0.63224  0.20579  0.95423  1.0000
  H   H1743     1.0  0.59966  0.13525  0.53304  1.0000
  S   S235      1.0  0.66797  0.20353  0.88250  1.0000
  S   S236      1.0  0.64477  0.22802  0.91203  1.0000
  H   H1744     1.0  0.66447  0.21246  0.66786  1.0000
  H   H1745     1.0  0.55356  0.21935  0.56772  1.0000
  H   H1746     1.0  0.58775  0.18179  0.95527  1.0000
  S   S237      1.0  0.87682  0.23070  0.88921  1.0000
  C   C981      1.0  0.66888  0.14911  0.96818  1.0000
  Fe  Fe124     1.0  0.85749  0.21994  0.93776  1.0000
  C   C982      1.0  0.80661  0.22708  0.99658  1.0000
  C   C983      1.0  0.56450  0.23306  0.56514  1.0000
  S   S238      1.0  0.83215  0.22526  0.59380  1.0000
  H   H1747     1.0  0.70131  0.08262  0.59124  1.0000
  H   H1748     1.0  0.78436  0.13387  0.91669  1.0000
  H   H1749     1.0  0.70962  0.12325  0.52879  1.0000
  C   C984      1.0  0.56690  0.18961  0.51783  1.0000
  H   H1750     1.0  0.50283  0.20372  0.93373  1.0000
  H   H1751     1.0  0.77918  0.14666  0.61554  1.0000
  C   C985      1.0  0.80552  0.16817  0.52343  1.0000
  H   H1752     1.0  0.58386  0.15555  0.54017  1.0000
  H   H1753     1.0  0.69652  0.18837  0.58779  1.0000
  H   H1754     1.0  0.80343  0.18733  0.74057  1.0000
  H   H1755     1.0  0.76417  0.12724  0.89075  1.0000
  C   C986      1.0  0.80639  0.16238  0.87078  1.0000
  H   H1756     1.0  0.54703  0.12313  0.55004  1.0000
  S   S239      1.0  0.63468  0.20989  0.52393  1.0000
  H   H1757     1.0  0.68458  0.16441  0.60022  1.0000
  C   C987      1.0  0.54833  0.18674  0.52346  1.0000
  C   C988      1.0  0.85991  0.22927  0.71646  1.0000
  C   C989      1.0  0.65645  0.14331  0.52220  1.0000
  H   H1758     1.0  0.80326  0.12495  0.97841  1.0000
  H   H1759     1.0  0.58456  0.22722  0.88976  1.0000
  H   H1760     1.0  0.77397  0.22782  0.97403  1.0000
  S   S240      1.0  0.84349  0.18888  0.95314  1.0000
  H   H1761     1.0  0.49042  0.20726  0.54781  1.0000
  H   H1762     1.0  0.49557  0.19482  0.58452  1.0000
  Fe  Fe125     1.0  0.85860  0.23010  0.62142  1.0000
  H   H1763     1.0  0.67977  0.19193  0.64890  1.0000
  C   C990      1.0  0.66062  0.12718  0.52142  1.0000
  H   H1764     1.0  0.52913  0.22930  0.90735  1.0000
  H   H1765     1.0  0.77247  0.21670  0.51820  1.0000
  H   H1766     1.0  0.92134  0.22582  0.63816  1.0000
  C   C991      1.0  0.86270  0.23084  0.78144  1.0000
  H   H1767     1.0  0.59701  0.21883  0.92117  1.0000
  H   H1768     1.0  0.86991  0.21186  0.74877  1.0000
  H   H1769     1.0  0.51387  0.23744  0.52663  1.0000
  C   C992      1.0  0.52380  0.23759  0.54755  1.0000
  H   H1770     1.0  0.63021  0.23488  0.67882  1.0000
  H   H1771     1.0  0.60235  0.24326  0.91533  1.0000
  H   H1772     1.0  0.52633  0.21771  0.58749  1.0000
  C   C993      1.0  0.63446  0.18400  0.71312  1.0000
  C   C994      1.0  0.64095  0.17845  0.74441  1.0000
  C   C995      1.0  0.63959  0.18626  0.77745  1.0000
  C   C996      1.0  0.63137  0.19943  0.77956  1.0000
  C   C997      1.0  0.62465  0.20475  0.74838  1.0000
  C   C998      1.0  0.62635  0.19723  0.71527  1.0000
  H   H1773     1.0  0.64714  0.16812  0.74305  1.0000
  H   H1774     1.0  0.64475  0.18197  0.80128  1.0000
  H   H1775     1.0  0.61816  0.21484  0.74980  1.0000
  H   H1776     1.0  0.62105  0.20140  0.69153  1.0000
  H   H1777     1.0  0.62838  0.10420  0.97050  1.0000
  H   H1778     1.0  0.75847  0.14077  0.64247  1.0000
  C   C999      1.0  0.80769  0.17601  0.98524  1.0000
  C   C1000     1.0  0.57172  0.14548  0.52800  1.0000
  C   C1001     1.0  0.78973  0.14292  0.99612  1.0000
  S   S241      1.0  0.58101  0.19315  0.55539  1.0000
  H   H1779     1.0  0.78450  0.12459  0.87288  1.0000
  H   H1780     1.0  0.74678  0.15317  0.51709  1.0000
  H   H1781     1.0  0.67522  0.18852  0.69630  1.0000
  H   H1782     1.0  0.56514  0.24427  0.91217  1.0000
  H   H1783     1.0  0.84050  0.16666  0.82514  1.0000
  C   C1002     1.0  0.67603  0.13511  0.96423  1.0000
  C   C1003     1.0  0.51892  0.21763  0.56257  1.0000
  H   H1784     1.0  0.77061  0.16443  0.62701  1.0000
  H   H1785     1.0  0.57830  0.12830  0.94784  1.0000
  C   C1004     1.0  0.60892  0.12168  0.93272  1.0000
  C   C1005     1.0  0.80049  0.23012  0.53036  1.0000
  S   S242      1.0  0.87634  0.24176  0.97240  1.0000
  H   H1786     1.0  0.67171  0.22479  0.78478  1.0000
  H   H1787     1.0  0.87238  0.17531  0.84188  1.0000
  C   C1006     1.0  0.61111  0.14354  0.98039  1.0000
  H   H1788     1.0  0.71451  0.20839  0.98778  1.0000
  C   C1007     1.0  0.80518  0.19294  0.86142  1.0000
  H   H1789     1.0  0.49592  0.22912  0.98548  1.0000
  H   H1790     1.0  0.83648  0.18538  0.78040  1.0000
  H   H1791     1.0  0.79023  0.18717  0.85750  1.0000
  H   H1792     1.0  0.61931  0.11631  0.52825  1.0000
  H   H1793     1.0  0.54309  0.18700  0.55029  1.0000
  S   S243      1.0  0.65940  0.20437  0.96935  1.0000
  C   C1008     1.0  0.53734  0.22398  0.96144  1.0000
  H   H1794     1.0  0.66096  0.23832  0.65310  1.0000
  H   H1795     1.0  0.80426  0.22513  0.88990  1.0000
  H   H1796     1.0  0.80889  0.16123  0.80406  1.0000
  C   C1009     1.0  0.86466  0.22293  0.74888  1.0000
  S   S244      1.0  0.84011  0.23618  0.92320  1.0000
  H   H1797     1.0  0.54540  0.13693  0.60762  1.0000
  H   H1798     1.0  0.84105  0.20071  0.83681  1.0000
  H   H1799     1.0  0.62501  0.14973  0.96765  1.0000
  H   H1800     1.0  0.81183  0.15191  0.86110  1.0000
  H   H1801     1.0  0.73168  0.12364  0.53681  1.0000
  H   H1802     1.0  0.54623  0.15302  0.57153  1.0000
  C   C1010     1.0  0.81597  0.18402  0.74291  1.0000
  H   H1803     1.0  0.71931  0.09034  0.55739  1.0000
  H   H1804     1.0  0.82658  0.21960  0.84645  1.0000
  C   C1011     1.0  0.51472  0.20094  0.92248  1.0000
  C   C1012     1.0  0.49856  0.20876  0.57218  1.0000
  C   C1013     1.0  0.60536  0.11001  0.99445  1.0000
  N   N53       1.0  0.60178  0.12381  0.96956  1.0000
  C   C1014     1.0  0.68328  0.19852  0.67504  1.0000
  H   H1805     1.0  0.81087  0.16496  0.89882  1.0000
  H   H1806     1.0  0.60416  0.10686  0.92587  1.0000
  C   C1015     1.0  0.61638  0.13472  0.86868  1.0000
  C   C1016     1.0  0.82351  0.18796  0.78032  1.0000
  H   H1807     1.0  0.68715  0.11665  0.99065  1.0000
  H   H1808     1.0  0.69659  0.08965  0.54760  1.0000
  C   C1017     1.0  0.57706  0.22849  0.94582  1.0000
  H   H1809     1.0  0.80780  0.23846  0.84859  1.0000
  H   H1810     1.0  0.56728  0.12654  0.57489  1.0000
  H   H1811     1.0  0.68776  0.22561  0.65446  1.0000
  H   H1812     1.0  0.66097  0.24155  0.78020  1.0000
  H   H1813     1.0  0.69351  0.22242  0.72482  1.0000
  C   C1018     1.0  0.82229  0.17195  0.96995  1.0000
  H   H1814     1.0  0.80306  0.21724  0.52573  1.0000
  H   H1815     1.0  0.59992  0.09496  0.52687  1.0000
  H   H1816     1.0  0.60404  0.14577  0.90939  1.0000
  C   C1019     1.0  0.54577  0.23698  0.50062  1.0000
  H   H1817     1.0  0.62409  0.12643  0.93223  1.0000
  C   C1020     1.0  0.86543  0.18526  0.84617  1.0000
  H   H1818     1.0  0.54021  0.21244  0.97494  1.0000
  H   H1819     1.0  0.58956  0.12403  0.89331  1.0000
  C   C1021     1.0  0.55409  0.14566  0.58541  1.0000
  H   H1820     1.0  0.77912  0.16083  0.88924  1.0000
  H   H1821     1.0  0.80702  0.19454  0.89081  1.0000
  H   H1822     1.0  0.58169  0.22420  0.60009  1.0000
  C   C1022     1.0  0.80213  0.22427  0.86071  1.0000
  C   C1023     1.0  0.55969  0.13364  0.55951  1.0000
  H   H1823     1.0  0.86655  0.22599  0.80613  1.0000
  H   H1824     1.0  0.61630  0.12123  0.85958  1.0000
  H   H1825     1.0  0.61182  0.14163  0.84656  1.0000
  H   H1826     1.0  0.63053  0.14357  0.87493  1.0000
  C   C1024     1.0  0.80981  0.17556  0.80935  1.0000
  H   H1827     1.0  0.67692  0.12993  0.93799  1.0000
  H   H1828     1.0  0.83677  0.19340  0.88168  1.0000
  H   H1829     1.0  0.52486  0.22422  0.97559  1.0000
  N   N54       1.0  0.81410  0.17999  0.84805  1.0000
  C   C1025     1.0  0.77929  0.13347  0.88917  1.0000
  H   H1830     1.0  0.82691  0.20280  0.78453  1.0000
  C   C1026     1.0  0.81174  0.21245  0.84361  1.0000
  H   H1831     1.0  0.79844  0.23113  0.55956  1.0000
  H   H1832     1.0  0.56795  0.23492  0.62280  1.0000
  H   H1833     1.0  0.65503  0.11653  0.54208  1.0000
  H   H1834     1.0  0.52218  0.20873  0.54307  1.0000
  C   C1027     1.0  0.57621  0.23547  0.59807  1.0000
  C   C1028     1.0  0.84484  0.17493  0.84925  1.0000
  C   C1029     1.0  0.73610  0.15829  0.52710  1.0000
  C   C1030     1.0  0.78529  0.15293  0.87237  1.0000
  H   H1835     1.0  0.80840  0.21175  0.81498  1.0000
  H   H1836     1.0  0.63506  0.12545  0.99313  1.0000
  H   H1837     1.0  0.86908  0.19540  0.82328  1.0000
  H   H1838     1.0  0.64771  0.14508  0.54336  1.0000
  C   C1031     1.0  0.83432  0.18824  0.85414  1.0000
  H   H1839     1.0  0.68733  0.17204  0.55367  1.0000
  C   C1032     1.0  0.68185  0.12755  0.99403  1.0000
  S   S245      1.0  0.65993  0.15667  0.93048  1.0000
  H   H1840     1.0  0.66964  0.21500  0.72968  1.0000
  H   H1841     1.0  0.55397  0.16692  0.96018  1.0000
  H   H1842     1.0  0.56633  0.15595  0.59699  1.0000
  H   H1843     1.0  0.81288  0.16934  0.73676  1.0000
  H   H1844     1.0  0.69312  0.23497  0.99505  1.0000
  H   H1845     1.0  0.74377  0.17268  0.53481  1.0000
  H   H1846     1.0  0.82628  0.19274  0.72282  1.0000
  H   H1847     1.0  0.57485  0.10479  0.95788  1.0000
  H   H1848     1.0  0.54292  0.21522  0.90834  1.0000
  C   C1033     1.0  0.60365  0.13206  0.90146  1.0000
  H   H1849     1.0  0.67556  0.23427  0.51358  1.0000
  H   H1850     1.0  0.79605  0.17573  0.80353  1.0000
  H   H1851     1.0  0.77963  0.15195  0.84529  1.0000
  C   C1034     1.0  0.85322  0.24364  0.71690  1.0000
  C   C1035     1.0  0.80429  0.13913  0.98050  1.0000
  N   N55       1.0  0.72581  0.14656  0.55891  1.0000
  C   C1036     1.0  0.70889  0.15055  0.56845  1.0000
  C   C1037     1.0  0.72011  0.12654  0.54953  1.0000
  C   C1038     1.0  0.73814  0.15075  0.59035  1.0000
  H   H1852     1.0  0.81330  0.17014  0.54744  1.0000
  C   C1039     1.0  0.58023  0.18542  0.97643  1.0000
  C   C1040     1.0  0.71203  0.17085  0.57709  1.0000
  C   C1041     1.0  0.75565  0.14614  0.58587  1.0000
  C   C1042     1.0  0.71208  0.11222  0.58089  1.0000
  C   C1043     1.0  0.70705  0.09254  0.56836  1.0000
  H   H1853     1.0  0.69802  0.20173  0.67916  1.0000
  C   C1044     1.0  0.69399  0.17402  0.57989  1.0000
  C   C1045     1.0  0.76657  0.14975  0.61992  1.0000
  H   H1854     1.0  0.70175  0.14219  0.59248  1.0000
  H   H1855     1.0  0.69880  0.14611  0.54692  1.0000
  C   C1046     1.0  0.59108  0.22961  0.91612  1.0000
  H   H1856     1.0  0.58419  0.23029  0.97147  1.0000
  H   H1857     1.0  0.73055  0.14373  0.61523  1.0000
  H   H1858     1.0  0.74291  0.16571  0.59577  1.0000
  C   C1047     1.0  0.79089  0.15130  0.51862  1.0000
  C   C1048     1.0  0.91136  0.23157  0.62759  1.0000
  H   H1859     1.0  0.84213  0.16526  0.87287  1.0000
  C   C1049     1.0  0.67888  0.21613  0.67537  1.0000
  H   H1860     1.0  0.71870  0.17426  0.60315  1.0000
  H   H1861     1.0  0.72074  0.18071  0.55640  1.0000
  H   H1862     1.0  0.76459  0.15498  0.56415  1.0000
  H   H1863     1.0  0.75252  0.13152  0.57937  1.0000
  H   H1864     1.0  0.72203  0.11400  0.60228  1.0000
  H   H1865     1.0  0.69950  0.11341  0.59255  1.0000
  H   H1866     1.0  0.80894  0.19022  0.98720  1.0000
  H   H1867     1.0  0.91130  0.23047  0.59809  1.0000
  C   C1050     1.0  0.68139  0.22430  0.71304  1.0000
  H   H1868     1.0  0.52208  0.18080  0.49962  1.0000
  H   H1869     1.0  0.81270  0.24194  0.52074  1.0000
  H   H1870     1.0  0.78760  0.14053  0.53926  1.0000
  H   H1871     1.0  0.58073  0.11432  0.53533  1.0000
  H   H1872     1.0  0.74588  0.23287  0.97272  1.0000
  C   C1051     1.0  0.67420  0.23976  0.78377  1.0000
  H   H1873     1.0  0.82167  0.23321  0.99826  1.0000
  H   H1874     1.0  0.60365  0.15226  0.96995  1.0000
  H   H1875     1.0  0.56448  0.15396  0.51599  1.0000
  N   N56       1.0  0.57741  0.13507  0.49962  1.0000
  H   H1876     1.0  0.55457  0.10900  0.50356  1.0000
  C   C1052     1.0  0.78370  0.22983  0.51029  1.0000
  H   H1877     1.0  0.60391  0.17275  0.49953  1.0000
  H   H1878     1.0  0.54513  0.09959  0.99013  1.0000
  C   C1053     1.0  0.62544  0.11101  0.99435  1.0000
  H   H1879     1.0  0.57325  0.23300  0.54153  1.0000
  H   H1880     1.0  0.80328  0.22139  0.96963  1.0000
  H   H1881     1.0  0.54762  0.12284  0.97597  1.0000
  N   N57       1.0  0.55292  0.24212  0.96528  1.0000
  H   H1882     1.0  0.54577  0.22316  0.50846  1.0000
  H   H1883     1.0  0.65333  0.23371  0.72155  1.0000
  C   C1054     1.0  0.58910  0.12557  0.51637  1.0000
  C   C1055     1.0  0.56109  0.17706  0.97921  1.0000
  H   H1884     1.0  0.59686  0.09571  0.98738  1.0000
  H   H1885     1.0  0.71487  0.16616  0.50126  1.0000
  C   C1056     1.0  0.60940  0.10675  0.51049  1.0000
  C   C1057     1.0  0.55071  0.11430  0.99728  1.0000
  H   H1886     1.0  0.77416  0.24405  0.54891  1.0000
  S   S246      1.0  0.61347  0.21024  0.99736  1.0000
  C   C1058     1.0  0.49765  0.24347  0.98617  1.0000
  N   N58       1.0  0.68277  0.24407  0.71575  1.0000
  C   C1059     1.0  0.79153  0.16156  0.99853  1.0000
  C   C1060     1.0  0.56885  0.24371  0.94060  1.0000
  H   H1887     1.0  0.67051  0.24002  0.84126  1.0000
  H   H1888     1.0  0.71657  0.24238  0.69094  1.0000
  S   S247      1.0  0.83029  0.20293  0.49914  1.0000
  Fe  Fe126     1.0  0.79104  0.32581  0.44076  1.0000
  S   S248      1.0  0.77100  0.31079  0.39993  1.0000
  S   S249      1.0  0.81627  0.31835  0.44550  1.0000
  Fe  Fe127     1.0  0.76793  0.34759  0.46546  1.0000
  S   S250      1.0  0.74580  0.33346  0.42737  1.0000
  H   H1889     1.0  0.77385  0.26990  0.39309  1.0000
  Fe  Fe128     1.0  0.74995  0.30740  0.44373  1.0000
  S   S251      1.0  0.72871  0.27855  0.44955  1.0000
  Fe  Fe129     1.0  0.76855  0.33802  0.38636  1.0000
  S   S252      1.0  0.76347  0.34932  0.33211  1.0000
  S   S253      1.0  0.77015  0.32084  0.48531  1.0000
  S   S254      1.0  0.79053  0.35369  0.42381  1.0000
  Fe  Fe130     1.0  0.66258  0.47926  0.43818  1.0000
  H   H1890     1.0  0.54225  0.25729  0.02865  1.0000
  S   S255      1.0  0.69075  0.47825  0.42811  1.0000
  S   S256      1.0  0.64816  0.48157  0.03742  1.0000
  C   C1061     1.0  0.58611  0.41043  0.02213  1.0000
  H   H1891     1.0  0.56127  0.25811  0.46045  1.0000
  Fe  Fe131     1.0  0.62233  0.45842  0.46036  1.0000
  H   H1892     1.0  0.57657  0.38068  0.02371  1.0000
  S   S257      1.0  0.63853  0.46090  0.40879  1.0000
  Fe  Fe132     1.0  0.76707  0.35484  0.05774  1.0000
  S   S258      1.0  0.75218  0.33637  0.10486  1.0000
  C   C1062     1.0  0.68729  0.46831  0.20038  1.0000
  Fe  Fe133     1.0  0.79115  0.33220  0.04339  1.0000
  S   S259      1.0  0.77839  0.31226  0.08899  1.0000
  H   H1893     1.0  0.52136  0.33935  0.03623  1.0000
  Fe  Fe134     1.0  0.75170  0.31292  0.07037  1.0000
  S   S260      1.0  0.72731  0.28615  0.06917  1.0000
  Fe  Fe135     1.0  0.77991  0.33706  0.12057  1.0000
  S   S261      1.0  0.79136  0.33731  0.17629  1.0000
  H   H1894     1.0  0.84998  0.39792  0.00151  1.0000
  S   S262      1.0  0.79493  0.35728  0.07569  1.0000
  Fe  Fe136     1.0  0.63214  0.46673  0.13751  1.0000
  S   S263      1.0  0.61780  0.48033  0.10109  1.0000
  S   S264      1.0  0.62592  0.45491  0.19518  1.0000
  Fe  Fe137     1.0  0.66023  0.46814  0.07840  1.0000
  C   C1063     1.0  0.57347  0.44264  0.26581  1.0000
  S   S265      1.0  0.68739  0.46430  0.07578  1.0000
  Fe  Fe138     1.0  0.62083  0.46123  0.05866  1.0000
  H   H1895     1.0  0.77449  0.41818  0.41754  1.0000
  S   S266      1.0  0.63342  0.44646  0.09626  1.0000
  C   C1064     1.0  0.49167  0.40500  0.07742  1.0000
  H   H1896     1.0  0.76269  0.27556  0.05237  1.0000
  H   H1897     1.0  0.91494  0.33389  0.49261  1.0000
  C   C1065     1.0  0.54795  0.40291  0.40832  1.0000
  C   C1066     1.0  0.82717  0.29262  0.47936  1.0000
  C   C1067     1.0  0.70872  0.25747  0.02750  1.0000
  C   C1068     1.0  0.92951  0.33063  0.00337  1.0000
  H   H1898     1.0  0.65587  0.46452  0.33041  1.0000
  H   H1899     1.0  0.52641  0.42579  0.05747  1.0000
  H   H1900     1.0  0.77313  0.45491  0.39770  1.0000
  H   H1901     1.0  0.52540  0.38190  0.43688  1.0000
  H   H1902     1.0  0.66578  0.49028  0.28532  1.0000
  H   H1903     1.0  0.75551  0.37415  0.43323  1.0000
  C   C1069     1.0  0.69871  0.25420  0.48516  1.0000
  C   C1070     1.0  0.81803  0.30500  0.48307  1.0000
  H   H1904     1.0  0.49389  0.35978  0.02655  1.0000
  C   C1071     1.0  0.89379  0.32765  0.41904  1.0000
  H   H1905     1.0  0.59621  0.46346  0.38463  1.0000
  C   C1072     1.0  0.66326  0.44103  0.32524  1.0000
  H   H1906     1.0  0.72547  0.47553  0.05970  1.0000
  N   N59       1.0  0.89275  0.30918  0.47834  1.0000
  H   H1907     1.0  0.72757  0.47953  0.43753  1.0000
  C   C1073     1.0  0.70941  0.42161  0.01195  1.0000
  C   C1074     1.0  0.51063  0.33806  0.05700  1.0000
  H   H1908     1.0  0.51729  0.36815  0.01328  1.0000
  C   C1075     1.0  0.72858  0.47064  0.33048  1.0000
  N   N60       1.0  0.76713  0.24611  0.00941  1.0000
  C   C1076     1.0  0.68842  0.41392  0.08129  1.0000
  C   C1077     1.0  0.64141  0.26888  0.04950  1.0000
  H   H1909     1.0  0.56485  0.25606  0.07305  1.0000
  H   H1910     1.0  0.77197  0.46018  0.04974  1.0000
  H   H1911     1.0  0.68100  0.41828  0.06006  1.0000
  C   C1078     1.0  0.62546  0.46547  0.30111  1.0000
  C   C1079     1.0  0.62539  0.45691  0.26836  1.0000
  C   C1080     1.0  0.62695  0.46670  0.23557  1.0000
  H   H1912     1.0  0.62401  0.45772  0.32607  1.0000
  H   H1913     1.0  0.62393  0.44255  0.26833  1.0000
  H   H1914     1.0  0.57598  0.44485  0.49005  1.0000
  H   H1915     1.0  0.72536  0.39636  0.02730  1.0000
  C   C1081     1.0  0.65691  0.24842  0.02645  1.0000
  H   H1916     1.0  0.92459  0.32133  0.43236  1.0000
  C   C1082     1.0  0.77114  0.26248  0.46709  1.0000
  C   C1083     1.0  0.91250  0.31918  0.48733  1.0000
  H   H1917     1.0  0.66728  0.30492  0.04940  1.0000
  H   H1918     1.0  0.79391  0.26429  0.38506  1.0000
  S   S267      1.0  0.64708  0.47465  0.49071  1.0000
  H   H1919     1.0  0.55486  0.44412  0.37308  1.0000
  H   H1920     1.0  0.55776  0.39728  0.42010  1.0000
  H   H1921     1.0  0.94228  0.29396  0.03670  1.0000
  H   H1922     1.0  0.75047  0.39470  0.43943  1.0000
  H   H1923     1.0  0.59936  0.41098  0.34945  1.0000
  C   C1084     1.0  0.77061  0.34482  0.28906  1.0000
  C   C1085     1.0  0.78411  0.33724  0.28451  1.0000
  C   C1086     1.0  0.79012  0.33489  0.24982  1.0000
  C   C1087     1.0  0.78249  0.33973  0.21926  1.0000
  C   C1088     1.0  0.76874  0.34701  0.22382  1.0000
  C   C1089     1.0  0.76299  0.34970  0.25853  1.0000
  H   H1924     1.0  0.79018  0.33351  0.30767  1.0000
  H   H1925     1.0  0.80081  0.32934  0.24663  1.0000
  H   H1926     1.0  0.76282  0.35089  0.20062  1.0000
  H   H1927     1.0  0.75256  0.35561  0.26173  1.0000
  H   H1928     1.0  0.91442  0.32634  0.00189  1.0000
  H   H1929     1.0  0.65493  0.43702  0.30109  1.0000
  H   H1930     1.0  0.75256  0.27110  0.11533  1.0000
  C   C1090     1.0  0.78981  0.40117  0.48311  1.0000
  H   H1931     1.0  0.70312  0.39013  0.04548  1.0000
  C   C1091     1.0  0.77149  0.41894  0.38870  1.0000
  H   H1932     1.0  0.63852  0.43222  0.35873  1.0000
  H   H1933     1.0  0.72565  0.36626  0.46224  1.0000
  H   H1934     1.0  0.91839  0.26827  0.06859  1.0000
  H   H1935     1.0  0.92402  0.30081  0.05280  1.0000
  H   H1936     1.0  0.81408  0.43210  0.02549  1.0000
  H   H1937     1.0  0.53612  0.26564  0.49654  1.0000
  C   C1092     1.0  0.62220  0.25383  0.04542  1.0000
  H   H1938     1.0  0.75459  0.43051  0.35773  1.0000
  H   H1939     1.0  0.54278  0.41408  0.35810  1.0000
  H   H1940     1.0  0.61763  0.25343  0.01756  1.0000
  C   C1093     1.0  0.49410  0.38663  0.06925  1.0000
  H   H1941     1.0  0.77531  0.27089  0.11040  1.0000
  C   C1094     1.0  0.49917  0.25201  0.01893  1.0000
  C   C1095     1.0  0.69949  0.46797  0.03470  1.0000
  H   H1942     1.0  0.67515  0.43678  0.32180  1.0000
  H   H1943     1.0  0.74316  0.47905  0.00275  1.0000
  H   H1944     1.0  0.59614  0.41190  0.04229  1.0000
  H   H1945     1.0  0.57962  0.39504  0.37327  1.0000
  C   C1096     1.0  0.72014  0.27608  0.02789  1.0000
  C   C1097     1.0  0.92808  0.36223  0.01240  1.0000
  H   H1946     1.0  0.67264  0.24885  0.07461  1.0000
  H   H1947     1.0  0.76138  0.44092  0.43634  1.0000
  C   C1098     1.0  0.53621  0.41893  0.05195  1.0000
  H   H1948     1.0  0.70690  0.45539  0.29690  1.0000
  H   H1949     1.0  0.73957  0.44523  0.02705  1.0000
  H   H1950     1.0  0.76386  0.39567  0.25938  1.0000
  H   H1951     1.0  0.49221  0.25738  0.38875  1.0000
  H   H1952     1.0  0.88176  0.34875  0.41207  1.0000
  H   H1953     1.0  0.76509  0.41905  0.26635  1.0000
  C   C1099     1.0  0.69052  0.46487  0.00234  1.0000
  H   H1954     1.0  0.81066  0.42757  0.46906  1.0000
  H   H1955     1.0  0.50295  0.41344  0.09405  1.0000
  N   N61       1.0  0.76842  0.40069  0.37180  1.0000
  H   H1956     1.0  0.74365  0.40134  0.25655  1.0000
  H   H1957     1.0  0.64510  0.26861  0.07799  1.0000
  H   H1958     1.0  0.88006  0.26535  0.40629  1.0000
  C   C1100     1.0  0.58665  0.42434  0.38697  1.0000
  N   N62       1.0  0.57162  0.42742  0.36651  1.0000
  H   H1959     1.0  0.68250  0.45350  0.26724  1.0000
  H   H1960     1.0  0.84856  0.40520  0.06441  1.0000
  C   C1101     1.0  0.52774  0.39766  0.05791  1.0000
  C   C1102     1.0  0.65159  0.42984  0.35688  1.0000
  H   H1961     1.0  0.78095  0.38013  0.37358  1.0000
  H   H1962     1.0  0.69535  0.41111  0.01173  1.0000
  C   C1103     1.0  0.76018  0.44405  0.40755  1.0000
  H   H1963     1.0  0.72280  0.35734  0.41792  1.0000
  H   H1964     1.0  0.78010  0.41662  0.32289  1.0000
  C   C1104     1.0  0.77008  0.40279  0.33135  1.0000
  C   C1105     1.0  0.83638  0.39500  0.05252  1.0000
  C   C1106     1.0  0.75657  0.40424  0.27082  1.0000
  H   H1965     1.0  0.56365  0.44546  0.24788  1.0000
  H   H1966     1.0  0.81602  0.39479  0.41276  1.0000
  C   C1107     1.0  0.89063  0.29164  0.45939  1.0000
  H   H1967     1.0  0.69823  0.32832  0.04223  1.0000
  H   H1968     1.0  0.90776  0.33806  0.42077  1.0000
  C   C1108     1.0  0.55419  0.41076  0.36971  1.0000
  H   H1969     1.0  0.89498  0.28235  0.47712  1.0000
  H   H1970     1.0  0.58885  0.49148  0.38604  1.0000
  H   H1971     1.0  0.78433  0.25996  0.05230  1.0000
  H   H1972     1.0  0.56262  0.42057  0.07197  1.0000
  H   H1973     1.0  0.58325  0.42291  0.41608  1.0000
  H   H1974     1.0  0.58491  0.46630  0.34509  1.0000
  H   H1975     1.0  0.73877  0.38991  0.37387  1.0000
  H   H1976     1.0  0.56030  0.44712  0.31335  1.0000
  C   C1109     1.0  0.75827  0.26141  0.06430  1.0000
  C   C1110     1.0  0.49879  0.25268  0.46433  1.0000
  H   H1977     1.0  0.74469  0.40796  0.32084  1.0000
  H   H1978     1.0  0.78393  0.42980  0.37675  1.0000
  H   H1979     1.0  0.52746  0.39448  0.08713  1.0000
  H   H1980     1.0  0.66836  0.24786  0.00946  1.0000
  H   H1981     1.0  0.83077  0.40724  0.37590  1.0000
  H   H1982     1.0  0.71814  0.37795  0.42728  1.0000
  C   C1111     1.0  0.71189  0.27207  0.48431  1.0000
  H   H1983     1.0  0.79513  0.28309  0.41313  1.0000
  H   H1984     1.0  0.70502  0.24940  0.05232  1.0000
  H   H1985     1.0  0.74337  0.38480  0.31324  1.0000
  C   C1112     1.0  0.78121  0.25576  0.43787  1.0000
  H   H1986     1.0  0.82773  0.28079  0.05520  1.0000
  H   H1987     1.0  0.70716  0.31126  0.02784  1.0000
  C   C1113     1.0  0.88540  0.32154  0.45707  1.0000
  C   C1114     1.0  0.57777  0.47790  0.39146  1.0000
  H   H1988     1.0  0.49700  0.33005  0.04666  1.0000
  H   H1989     1.0  0.59131  0.44210  0.32490  1.0000
  C   C1115     1.0  0.50772  0.36814  0.03563  1.0000
  H   H1990     1.0  0.70253  0.36673  0.09311  1.0000
  C   C1116     1.0  0.73847  0.43235  0.04224  1.0000
  C   C1117     1.0  0.56805  0.44356  0.38210  1.0000
  C   C1118     1.0  0.66893  0.46212  0.33045  1.0000
  H   H1991     1.0  0.74868  0.37294  0.37060  1.0000
  H   H1992     1.0  0.70619  0.48243  0.24001  1.0000
  H   H1993     1.0  0.66410  0.49309  0.35082  1.0000
  C   C1119     1.0  0.78323  0.39402  0.38400  1.0000
  S   S268      1.0  0.76427  0.33110  0.02248  1.0000
  H   H1994     1.0  0.89434  0.31592  0.40356  1.0000
  H   H1995     1.0  0.88743  0.33447  0.47120  1.0000
  H   H1996     1.0  0.52523  0.36425  0.07839  1.0000
  N   N63       1.0  0.71877  0.41946  0.04575  1.0000
  H   H1997     1.0  0.58551  0.45559  0.26778  1.0000
  H   H1998     1.0  0.52994  0.37575  0.39257  1.0000
  H   H1999     1.0  0.67582  0.46073  0.00225  1.0000
  H   H2000     1.0  0.57940  0.41874  0.31628  1.0000
  H   H2001     1.0  0.51877  0.39223  0.39871  1.0000
  C   C1120     1.0  0.87128  0.28062  0.44625  1.0000
  H   H2002     1.0  0.57521  0.25361  0.49419  1.0000
  C   C1121     1.0  0.60406  0.40344  0.40272  1.0000
  C   C1122     1.0  0.52937  0.38724  0.40893  1.0000
  H   H2003     1.0  0.70767  0.43519  0.01099  1.0000
  N   N64       1.0  0.68239  0.47495  0.30327  1.0000
  H   H2004     1.0  0.72098  0.36639  0.06387  1.0000
  C   C1123     1.0  0.69936  0.48929  0.49688  1.0000
  S   S269      1.0  0.60456  0.42921  0.47935  1.0000
  H   H2005     1.0  0.94991  0.32973  0.49630  1.0000
  C   C1124     1.0  0.70524  0.48404  0.46491  1.0000
  H   H2006     1.0  0.50116  0.35506  0.08971  1.0000
  C   C1125     1.0  0.58295  0.46283  0.37416  1.0000
  H   H2007     1.0  0.55517  0.39939  0.35338  1.0000
  H   H2008     1.0  0.68587  0.27851  0.02248  1.0000
  C   C1126     1.0  0.70922  0.42486  0.07650  1.0000
  N   N65       1.0  0.76322  0.24946  0.49880  1.0000
  H   H2009     1.0  0.81290  0.30405  0.05543  1.0000
  C   C1127     1.0  0.91612  0.27227  0.04093  1.0000
  C   C1128     1.0  0.72429  0.39353  0.08398  1.0000
  H   H2010     1.0  0.67637  0.27822  0.06558  1.0000
  C   C1129     1.0  0.82800  0.28882  0.03104  1.0000
  C   C1130     1.0  0.74863  0.43914  0.07720  1.0000
  C   C1131     1.0  0.76914  0.44860  0.06970  1.0000
  C   C1132     1.0  0.50159  0.27072  0.01946  1.0000
  C   C1133     1.0  0.68105  0.41748  0.11735  1.0000
  H   H2011     1.0  0.92827  0.30450  0.46164  1.0000
  H   H2012     1.0  0.71102  0.43968  0.07327  1.0000
  H   H2013     1.0  0.71553  0.42395  0.10226  1.0000
  C   C1134     1.0  0.76076  0.26328  0.10457  1.0000
  H   H2014     1.0  0.78279  0.39223  0.41349  1.0000
  H   H2015     1.0  0.87428  0.25382  0.44989  1.0000
  C   C1135     1.0  0.78629  0.26909  0.40535  1.0000
  H   H2016     1.0  0.69831  0.31019  0.07308  1.0000
  H   H2017     1.0  0.72415  0.36850  0.11121  1.0000
  H   H2018     1.0  0.71961  0.39848  0.10833  1.0000
  H   H2019     1.0  0.73944  0.39869  0.08279  1.0000
  H   H2020     1.0  0.77568  0.39268  0.32008  1.0000
  C   C1136     1.0  0.70843  0.46363  0.32113  1.0000
  H   H2021     1.0  0.59443  0.24631  0.06617  1.0000
  C   C1137     1.0  0.88260  0.33668  0.39798  1.0000
  H   H2022     1.0  0.74361  0.44936  0.08943  1.0000
  H   H2023     1.0  0.74658  0.42782  0.09715  1.0000
  C   C1138     1.0  0.81673  0.39778  0.38350  1.0000
  H   H2024     1.0  0.74899  0.44950  0.40508  1.0000
  H   H2025     1.0  0.57585  0.47541  0.42087  1.0000
  H   H2026     1.0  0.57205  0.25496  0.00634  1.0000
  H   H2027     1.0  0.68692  0.41194  0.13956  1.0000
  H   H2028     1.0  0.68439  0.43246  0.12067  1.0000
  H   H2029     1.0  0.66598  0.41057  0.11892  1.0000
  H   H2030     1.0  0.58126  0.39185  0.49350  1.0000
  C   C1139     1.0  0.62688  0.48388  0.30150  1.0000
  C   C1140     1.0  0.94619  0.33234  0.46879  1.0000
  H   H2031     1.0  0.71145  0.49025  0.29678  1.0000
  C   C1141     1.0  0.60792  0.25738  0.06935  1.0000
  H   H2032     1.0  0.59943  0.43664  0.38421  1.0000
  S   S270      1.0  0.75760  0.37689  0.03308  1.0000
  C   C1142     1.0  0.59178  0.40774  0.37563  1.0000
  C   C1143     1.0  0.72291  0.48356  0.46219  1.0000
  H   H2033     1.0  0.53809  0.39257  0.04589  1.0000
  C   C1144     1.0  0.58094  0.41942  0.49080  1.0000
  H   H2034     1.0  0.74278  0.41667  0.39654  1.0000
  H   H2035     1.0  0.51758  0.27882  0.44299  1.0000
  C   C1145     1.0  0.73456  0.48822  0.49138  1.0000
  C   C1146     1.0  0.74705  0.38198  0.42409  1.0000
  C   C1147     1.0  0.71851  0.47318  0.03467  1.0000
  C   C1148     1.0  0.62870  0.48522  0.23597  1.0000
  C   C1149     1.0  0.50731  0.27196  0.46351  1.0000
  H   H2036     1.0  0.54807  0.42605  0.10418  1.0000
  H   H2037     1.0  0.67400  0.46523  0.35801  1.0000
  H   H2038     1.0  0.59637  0.39821  0.42839  1.0000
  H   H2039     1.0  0.93204  0.32933  0.03222  1.0000
  H   H2040     1.0  0.80801  0.38593  0.00700  1.0000
  H   H2041     1.0  0.81932  0.37032  0.00311  1.0000
  H   H2042     1.0  0.68512  0.39888  0.08007  1.0000
  H   H2043     1.0  0.90142  0.27004  0.03859  1.0000
  H   H2044     1.0  0.55945  0.44227  0.06824  1.0000
  C   C1150     1.0  0.72716  0.37016  0.43327  1.0000
  H   H2045     1.0  0.95664  0.33099  0.44982  1.0000
  H   H2046     1.0  0.77499  0.43859  0.05944  1.0000
  C   C1151     1.0  0.80049  0.42546  0.01574  1.0000
  Fe  Fe139     1.0  0.63251  0.48640  0.39730  1.0000
  H   H2047     1.0  0.70081  0.45467  0.34409  1.0000
  C   C1152     1.0  0.56445  0.43602  0.30274  1.0000
  H   H2048     1.0  0.63988  0.28243  0.04513  1.0000
  C   C1153     1.0  0.75236  0.39958  0.31070  1.0000
  H   H2049     1.0  0.74654  0.42600  0.02618  1.0000
  H   H2050     1.0  0.86724  0.28868  0.42545  1.0000
  H   H2051     1.0  0.83238  0.29084  0.45330  1.0000
  H   H2052     1.0  0.79715  0.39331  0.47108  1.0000
  H   H2053     1.0  0.61613  0.41593  0.40777  1.0000
  H   H2054     1.0  0.56642  0.44181  0.41175  1.0000
  H   H2055     1.0  0.83723  0.41282  0.00764  1.0000
  H   H2056     1.0  0.55194  0.42372  0.29934  1.0000
  C   C1154     1.0  0.71754  0.37251  0.08817  1.0000
  H   H2057     1.0  0.94634  0.34664  0.46628  1.0000
  H   H2058     1.0  0.49631  0.38091  0.09548  1.0000
  H   H2059     1.0  0.80480  0.40998  0.34425  1.0000
  C   C1155     1.0  0.57294  0.40020  0.49629  1.0000
  H   H2060     1.0  0.92826  0.36025  0.04187  1.0000
  H   H2061     1.0  0.68837  0.49134  0.23110  1.0000
  H   H2062     1.0  0.81392  0.38477  0.36911  1.0000
  C   C1156     1.0  0.57761  0.43106  0.32769  1.0000
  H   H2063     1.0  0.88914  0.34146  0.37116  1.0000
  H   H2064     1.0  0.73303  0.45877  0.33509  1.0000
  C   C1157     1.0  0.67744  0.30161  0.03275  1.0000
  C   C1158     1.0  0.83715  0.28627  0.00013  1.0000
  H   H2065     1.0  0.89974  0.29430  0.43532  1.0000
  C   C1159     1.0  0.80308  0.40678  0.37342  1.0000
  C   C1160     1.0  0.70169  0.47981  0.31542  1.0000
  C   C1161     1.0  0.51148  0.35713  0.06780  1.0000
  H   H2066     1.0  0.65890  0.43365  0.38227  1.0000
  H   H2067     1.0  0.95908  0.32506  0.01725  1.0000
  S   S271      1.0  0.61471  0.48300  0.44720  1.0000
  C   C1162     1.0  0.75029  0.38620  0.38336  1.0000
  S   S272      1.0  0.81162  0.33088  0.00075  1.0000
  H   H2068     1.0  0.77602  0.45417  0.09475  1.0000
  H   H2069     1.0  0.60885  0.39266  0.39247  1.0000
  H   H2070     1.0  0.50290  0.27748  0.04471  1.0000
  H   H2071     1.0  0.56502  0.47845  0.38022  1.0000
  C   C1163     1.0  0.92742  0.31846  0.46020  1.0000
  H   H2072     1.0  0.57795  0.43204  0.25364  1.0000
  H   H2073     1.0  0.54674  0.41370  0.42585  1.0000
  H   H2074     1.0  0.78131  0.27566  0.47583  1.0000
  C   C1164     1.0  0.81957  0.30198  0.03124  1.0000
  C   C1165     1.0  0.78951  0.40781  0.02946  1.0000
  C   C1166     1.0  0.69642  0.31352  0.04474  1.0000
  H   H2075     1.0  0.82402  0.39638  0.06501  1.0000
  H   H2076     1.0  0.54106  0.42234  0.02368  1.0000
  H   H2077     1.0  0.64843  0.41492  0.35311  1.0000
  C   C1167     1.0  0.55255  0.42740  0.07560  1.0000
  H   H2078     1.0  0.80685  0.41991  0.38764  1.0000
  H   H2079     1.0  0.74351  0.25420  0.06035  1.0000
  N   N66       1.0  0.50918  0.38767  0.04274  1.0000
  H   H2080     1.0  0.69564  0.47725  0.17801  1.0000
  H   H2081     1.0  0.85652  0.25481  0.42133  1.0000
  C   C1168     1.0  0.71738  0.39960  0.04922  1.0000
  H   H2082     1.0  0.79450  0.40108  0.05014  1.0000
  C   C1169     1.0  0.79750  0.42058  0.48227  1.0000
  H   H2083     1.0  0.86100  0.27710  0.46835  1.0000
  C   C1170     1.0  0.56328  0.24710  0.47738  1.0000
  H   H2084     1.0  0.76044  0.26655  0.45435  1.0000
  C   C1171     1.0  0.75599  0.42667  0.38590  1.0000
  H   H2085     1.0  0.83639  0.38096  0.05874  1.0000
  C   C1172     1.0  0.87057  0.26258  0.42994  1.0000
  H   H2086     1.0  0.80270  0.24740  0.02968  1.0000
  C   C1173     1.0  0.67976  0.46650  0.26694  1.0000
  H   H2087     1.0  0.87031  0.31493  0.45510  1.0000
  C   C1174     1.0  0.67444  0.28084  0.03687  1.0000
  S   S273      1.0  0.65966  0.48721  0.12167  1.0000
  H   H2088     1.0  0.91371  0.35769  0.00395  1.0000
  C   C1175     1.0  0.77204  0.39900  0.01665  1.0000
  N   N67       1.0  0.65635  0.26757  0.02504  1.0000
  C   C1176     1.0  0.67859  0.49264  0.30001  1.0000
  H   H2089     1.0  0.60676  0.27079  0.06181  1.0000
  H   H2090     1.0  0.54278  0.24553  0.32382  1.0000
  H   H2091     1.0  0.70332  0.48654  0.34160  1.0000
  C   C1177     1.0  0.83699  0.39860  0.01215  1.0000
  C   C1178     1.0  0.50747  0.39657  0.00737  1.0000
  H   H2092     1.0  0.79412  0.25524  0.44831  1.0000
  H   H2093     1.0  0.61155  0.25738  0.09785  1.0000
  H   H2094     1.0  0.51304  0.33040  0.08056  1.0000
  H   H2095     1.0  0.86855  0.32667  0.39434  1.0000
  H   H2096     1.0  0.66517  0.46261  0.25969  1.0000
  C   C1179     1.0  0.69143  0.47861  0.23532  1.0000
  H   H2097     1.0  0.67267  0.46459  0.19405  1.0000
  H   H2098     1.0  0.69053  0.45557  0.20220  1.0000
  C   C1180     1.0  0.50250  0.28242  0.48907  1.0000
  S   S274      1.0  0.51299  0.30654  0.48699  1.0000
  H   H2099     1.0  0.73071  0.47858  0.35534  1.0000
  H   H2100     1.0  0.73715  0.47955  0.30833  1.0000
  S   S275      1.0  0.59742  0.44895  0.01984  1.0000
  C   C1181     1.0  0.92788  0.29249  0.03282  1.0000
  C   C1182     1.0  0.82054  0.31300  0.00066  1.0000
  C   C1183     1.0  0.57493  0.39271  0.01156  1.0000
  H   H2101     1.0  0.69862  0.24498  0.46398  1.0000
  H   H2102     1.0  0.95252  0.35690  0.00210  1.0000
  H   H2103     1.0  0.74816  0.48789  0.48907  1.0000
  H   H2104     1.0  0.50993  0.41141  0.00983  1.0000
  C   C1184     1.0  0.57000  0.43005  0.49424  1.0000
  H   H2105     1.0  0.49125  0.41298  0.05279  1.0000
  H   H2106     1.0  0.93481  0.37715  0.00543  1.0000
  C   C1185     1.0  0.72855  0.47521  0.00244  1.0000
  C   C1186     1.0  0.76990  0.25102  0.04819  1.0000
  H   H2107     1.0  0.75606  0.24950  0.11841  1.0000
  H   H2108     1.0  0.67636  0.30568  0.00456  1.0000
  S   S276      1.0  0.84858  0.27042  0.00234  1.0000
  H   H2109     1.0  0.91977  0.26323  0.02213  1.0000
  C   C1187     1.0  0.58423  0.42618  0.00670  1.0000
  H   H2110     1.0  0.62982  0.49290  0.21099  1.0000
  H   H2111     1.0  0.54166  0.24471  0.08961  1.0000
  C   C1188     1.0  0.62849  0.49369  0.26877  1.0000
  H   H2112     1.0  0.50264  0.24466  0.44479  1.0000
  S   S277      1.0  0.79901  0.45533  0.49852  1.0000
  H   H2113     1.0  0.94975  0.29707  0.68728  1.0000
  H   H2114     1.0  0.57449  0.36027  0.55093  1.0000
  H   H2115     1.0  0.97452  0.32215  0.55628  1.0000
  Fe  Fe140     1.0  0.50075  0.33469  0.60321  1.0000
  S   S278      1.0  0.76332  0.36760  0.50480  1.0000
  H   H2116     1.0  0.82560  0.42281  0.54606  1.0000
  Fe  Fe141     1.0  0.50270  0.32256  0.52593  1.0000
  H   H2117     1.0  0.56635  0.38143  0.76321  1.0000
  H   H2118     1.0  0.93022  0.25918  0.62437  1.0000
  Fe  Fe142     1.0  0.50616  0.36178  0.53951  1.0000
  C   C1189     1.0  0.97585  0.28361  0.66166  1.0000
  S   S279      1.0  0.52199  0.34466  0.55848  1.0000
  Fe  Fe143     1.0  0.79322  0.47431  0.53867  1.0000
  S   S280      1.0  0.76926  0.46647  0.57746  1.0000
  C   C1190     1.0  0.53983  0.27829  0.54798  1.0000
  H   H2119     1.0  0.66362  0.25795  0.72429  1.0000
  H   H2120     1.0  0.55504  0.37658  0.57164  1.0000
  H   H2121     1.0  0.55903  0.27424  0.51026  1.0000
  H   H2122     1.0  0.66904  0.26006  0.95580  1.0000
  C   C1191     1.0  0.78709  0.41888  0.63193  1.0000
  C   C1192     1.0  0.96275  0.27580  0.55285  1.0000
  C   C1193     1.0  0.96602  0.30773  0.55534  1.0000
  H   H2123     1.0  0.77972  0.40706  0.65058  1.0000
  H   H2124     1.0  0.82714  0.40819  0.88788  1.0000
  Fe  Fe144     1.0  0.50233  0.31387  0.91573  1.0000
  S   S281      1.0  0.50285  0.32849  0.96638  1.0000
  H   H2125     1.0  0.50628  0.41328  0.62145  1.0000
  Fe  Fe145     1.0  0.50110  0.34602  0.86965  1.0000
  S   S282      1.0  0.50141  0.36309  0.91810  1.0000
  C   C1194     1.0  0.71662  0.25657  0.69329  1.0000
  Fe  Fe146     1.0  0.52338  0.35359  0.93850  1.0000
  H   H2126     1.0  0.72871  0.48694  0.72413  1.0000
  S   S283      1.0  0.52444  0.33812  0.88856  1.0000
  C   C1195     1.0  0.91269  0.31786  0.89069  1.0000
  H   H2127     1.0  0.93792  0.35426  0.96432  1.0000
  C   C1196     1.0  0.50067  0.35284  0.70628  1.0000
  H   H2128     1.0  0.53368  0.25590  0.97169  1.0000
  H   H2129     1.0  0.83588  0.38543  0.90722  1.0000
  H   H2130     1.0  0.82317  0.39701  0.57736  1.0000
  Fe  Fe147     1.0  0.79723  0.47628  0.94499  1.0000
  S   S284      1.0  0.80860  0.45615  0.97109  1.0000
  S   S285      1.0  0.77809  0.46951  0.89923  1.0000
  H   H2131     1.0  0.91399  0.29433  0.70450  1.0000
  C   C1197     1.0  0.70058  0.46675  0.97007  1.0000
  C   C1198     1.0  0.71960  0.47178  0.97011  1.0000
  H   H2132     1.0  0.72256  0.26203  0.71912  1.0000
  H   H2133     1.0  0.69358  0.46407  0.94509  1.0000
  H   H2134     1.0  0.69798  0.27142  0.69398  1.0000
  H   H2135     1.0  0.82217  0.42916  0.65438  1.0000
  C   C1199     1.0  0.55978  0.40614  0.97007  1.0000
  H   H2136     1.0  0.80431  0.25305  0.98256  1.0000
  H   H2137     1.0  0.54979  0.40468  0.94987  1.0000
  H   H2138     1.0  0.87176  0.29953  0.58460  1.0000
  H   H2139     1.0  0.80887  0.29911  0.57287  1.0000
  H   H2140     1.0  0.94074  0.31280  0.55544  1.0000
  H   H2141     1.0  0.54446  0.27626  0.57498  1.0000
  C   C1200     1.0  0.94866  0.27893  0.92235  1.0000
  C   C1201     1.0  0.96167  0.29236  0.89991  1.0000
  C   C1202     1.0  0.55688  0.24883  0.56123  1.0000
  H   H2142     1.0  0.95880  0.30838  0.98554  1.0000
  N   N68       1.0  0.81983  0.38617  0.95432  1.0000
  C   C1203     1.0  0.68827  0.24993  0.75332  1.0000
  H   H2143     1.0  0.74318  0.26804  0.66606  1.0000
  H   H2144     1.0  0.98188  0.29814  0.66983  1.0000
  C   C1204     1.0  0.77633  0.42593  0.97734  1.0000
  H   H2145     1.0  0.56943  0.43592  0.96837  1.0000
  H   H2146     1.0  0.77121  0.43277  0.95706  1.0000
  C   C1205     1.0  0.54480  0.26632  0.51999  1.0000
  H   H2147     1.0  0.54431  0.29003  0.92870  1.0000
  H   H2148     1.0  0.53545  0.37148  0.68444  1.0000
  H   H2149     1.0  0.84453  0.29496  0.94517  1.0000
  H   H2150     1.0  0.52478  0.27453  0.54959  1.0000
  C   C1206     1.0  0.71810  0.27821  0.96340  1.0000
  C   C1207     1.0  0.74151  0.46167  0.83376  1.0000
  C   C1208     1.0  0.70747  0.42059  0.94426  1.0000
  C   C1209     1.0  0.50704  0.32744  0.73331  1.0000
  H   H2151     1.0  0.79187  0.43134  0.64852  1.0000
  C   C1210     1.0  0.79185  0.46904  0.74611  1.0000
  H   H2152     1.0  0.79524  0.47101  0.80334  1.0000
  H   H2153     1.0  0.79172  0.45510  0.74559  1.0000
  H   H2154     1.0  0.91591  0.27929  0.80020  1.0000
  C   C1211     1.0  0.92495  0.29839  0.99419  1.0000
  H   H2155     1.0  0.91977  0.25772  0.80200  1.0000
  H   H2156     1.0  0.89854  0.31600  0.88335  1.0000
  H   H2157     1.0  0.84417  0.36809  0.97679  1.0000
  H   H2158     1.0  0.76255  0.29581  0.57863  1.0000
  H   H2159     1.0  0.50409  0.39264  0.59828  1.0000
  C   C1212     1.0  0.94396  0.28307  0.67609  1.0000
  C   C1213     1.0  0.66452  0.24594  0.70984  1.0000
  H   H2160     1.0  0.90558  0.31268  0.61611  1.0000
  C   C1214     1.0  0.65961  0.24891  0.67084  1.0000
  H   H2161     1.0  0.49605  0.37167  0.74336  1.0000
  C   C1215     1.0  0.76209  0.27333  0.97448  1.0000
  H   H2162     1.0  0.68373  0.26217  0.82108  1.0000
  C   C1216     1.0  0.81613  0.41537  0.64243  1.0000
  C   C1217     1.0  0.49865  0.25363  0.95409  1.0000
  C   C1218     1.0  0.48948  0.27348  0.51588  1.0000
  S   S286      1.0  0.87777  0.27197  0.90913  1.0000
  Fe  Fe148     1.0  0.84425  0.25540  0.57815  1.0000
  C   C1219     1.0  0.77246  0.29192  0.95567  1.0000
  C   C1220     1.0  0.75323  0.25826  0.52283  1.0000
  S   S287      1.0  0.54792  0.36757  0.97377  1.0000
  C   C1221     1.0  0.93529  0.28368  0.55302  1.0000
  C   C1222     1.0  0.78469  0.36975  0.95319  1.0000
  C   C1223     1.0  0.94349  0.27042  0.55258  1.0000
  C   C1224     1.0  0.84428  0.47864  0.65173  1.0000
  C   C1225     1.0  0.50116  0.34965  0.77161  1.0000
  C   C1226     1.0  0.66769  0.27362  0.95869  1.0000
  H   H2163     1.0  0.54297  0.42981  0.50687  1.0000
  H   H2164     1.0  0.81586  0.38769  0.71799  1.0000
  C   C1227     1.0  0.50513  0.33366  0.76771  1.0000
  H   H2165     1.0  0.73028  0.28306  0.66511  1.0000
  C   C1228     1.0  0.97346  0.28056  0.96218  1.0000
  H   H2166     1.0  0.67363  0.27962  0.90202  1.0000
  C   C1229     1.0  0.81385  0.29714  0.54672  1.0000
  H   H2167     1.0  0.87501  0.32316  0.59319  1.0000
  C   C1230     1.0  0.56556  0.37568  0.58980  1.0000
  H   H2168     1.0  0.69120  0.26499  0.75554  1.0000
  C   C1231     1.0  0.79046  0.47811  0.71398  1.0000
  C   C1232     1.0  0.54336  0.40226  0.50950  1.0000
  H   H2169     1.0  0.80680  0.40615  0.96047  1.0000
  H   H2170     1.0  0.71505  0.42034  0.91903  1.0000
  H   H2171     1.0  0.91626  0.30658  0.87890  1.0000
  C   C1233     1.0  0.86034  0.37022  0.92915  1.0000
  S   S288      1.0  0.66880  0.25253  0.57570  1.0000
  S   S289      1.0  0.78933  0.46685  0.67303  1.0000
  H   H2172     1.0  0.51038  0.31520  0.73070  1.0000
  C   C1234     1.0  0.52559  0.40064  0.63719  1.0000
  C   C1235     1.0  0.51398  0.40534  0.60919  1.0000
  C   C1236     1.0  0.55880  0.37406  0.62921  1.0000
  H   H2173     1.0  0.51644  0.39347  0.66026  1.0000
  H   H2174     1.0  0.53539  0.41379  0.64669  1.0000
  H   H2175     1.0  0.52280  0.41391  0.58694  1.0000
  H   H2176     1.0  0.74518  0.24818  0.54414  1.0000
  H   H2177     1.0  0.68112  0.28380  0.96554  1.0000
  H   H2178     1.0  0.85921  0.37049  0.89965  1.0000
  H   H2179     1.0  0.77562  0.27346  0.55815  1.0000
  H   H2180     1.0  0.93329  0.28574  0.74204  1.0000
  H   H2181     1.0  0.78255  0.38259  0.94514  1.0000
  H   H2182     1.0  0.58172  0.35820  0.59569  1.0000
  H   H2183     1.0  0.98574  0.27676  0.66717  1.0000
  H   H2184     1.0  0.58689  0.44266  0.57148  1.0000
  C   C1237     1.0  0.49903  0.35924  0.74065  1.0000
  S   S290      1.0  0.69723  0.25017  0.92252  1.0000
  H   H2185     1.0  0.93504  0.25601  0.55098  1.0000
  H   H2186     1.0  0.90390  0.30366  0.94105  1.0000
  H   H2187     1.0  0.95261  0.25906  0.67321  1.0000
  H   H2188     1.0  0.52082  0.24527  0.56998  1.0000
  H   H2189     1.0  0.56911  0.26166  0.55663  1.0000
  H   H2190     1.0  0.88330  0.33161  0.52873  1.0000
  H   H2191     1.0  0.79072  0.25911  0.51846  1.0000
  H   H2192     1.0  0.81128  0.38143  0.61318  1.0000
  H   H2193     1.0  0.83951  0.42955  0.58480  1.0000
  C   C1238     1.0  0.97426  0.29451  0.55388  1.0000
  H   H2194     1.0  0.91010  0.29568  0.99277  1.0000
  C   C1239     1.0  0.74705  0.44511  0.82696  1.0000
  H   H2195     1.0  0.73472  0.46256  0.77788  1.0000
  H   H2196     1.0  0.54217  0.25688  0.92758  1.0000
  C   C1240     1.0  0.54705  0.38488  0.68115  1.0000
  H   H2197     1.0  0.54211  0.39543  0.69217  1.0000
  H   H2198     1.0  0.77994  0.25965  0.95909  1.0000
  H   H2199     1.0  0.97084  0.33012  0.93748  1.0000
  H   H2200     1.0  0.54304  0.37021  0.75069  1.0000
  C   C1241     1.0  0.55999  0.27741  0.96058  1.0000
  C   C1242     1.0  0.80210  0.37251  0.56112  1.0000
  C   C1243     1.0  0.77506  0.26316  0.98509  1.0000
  Fe  Fe149     1.0  0.89406  0.25417  0.92279  1.0000
  H   H2201     1.0  0.78038  0.29026  0.93197  1.0000
  H   H2202     1.0  0.90191  0.24743  0.68719  1.0000
  H   H2203     1.0  0.89767  0.26935  0.74563  1.0000
  H   H2204     1.0  0.54271  0.30679  0.55539  1.0000
  H   H2205     1.0  0.70424  0.43334  0.94368  1.0000
  H   H2206     1.0  0.55757  0.42435  0.60082  1.0000
  C   C1244     1.0  0.71915  0.42021  0.97614  1.0000
  H   H2207     1.0  0.71070  0.47223  0.76854  1.0000
  H   H2208     1.0  0.76080  0.44964  0.81372  1.0000
  H   H2209     1.0  0.74749  0.43800  0.85282  1.0000
  H   H2210     1.0  0.73703  0.43518  0.80990  1.0000
  Fe  Fe150     1.0  0.88287  0.25480  0.56122  1.0000
  C   C1245     1.0  0.70640  0.25971  0.96313  1.0000
  H   H2211     1.0  0.80286  0.39667  0.89466  1.0000
  H   H2212     1.0  0.83018  0.31869  0.94572  1.0000
  N   N69       1.0  0.54304  0.24715  0.53275  1.0000
  C   C1246     1.0  0.70195  0.24929  0.99518  1.0000
  H   H2213     1.0  0.83300  0.46503  0.65178  1.0000
  H   H2214     1.0  0.93042  0.30681  0.64747  1.0000
  H   H2215     1.0  0.67515  0.49338  0.96447  1.0000
  S   S291      1.0  0.91110  0.27802  0.54894  1.0000
  H   H2216     1.0  0.58100  0.40645  0.64163  1.0000
  C   C1247     1.0  0.56753  0.40778  0.63762  1.0000
  H   H2217     1.0  0.57820  0.38798  0.58535  1.0000
  C   C1248     1.0  0.81806  0.40435  0.94451  1.0000
  C   C1249     1.0  0.58674  0.43496  0.59695  1.0000
  H   H2218     1.0  0.50691  0.32619  0.79122  1.0000
  H   H2219     1.0  0.78823  0.36295  0.56977  1.0000
  C   C1250     1.0  0.82028  0.38442  0.99447  1.0000
  H   H2220     1.0  0.89884  0.32318  0.55128  1.0000
  C   C1251     1.0  0.76974  0.35382  0.93636  1.0000
  S   S292      1.0  0.81382  0.48682  0.58062  1.0000
  C   C1252     1.0  0.91284  0.28418  0.68333  1.0000
  H   H2221     1.0  0.80424  0.31669  0.52001  1.0000
  H   H2222     1.0  0.69333  0.25425  0.66206  1.0000
  H   H2223     1.0  0.78185  0.30126  0.97441  1.0000
  N   N70       1.0  0.73359  0.48761  0.80023  1.0000
  C   C1253     1.0  0.80389  0.37018  0.94158  1.0000
  C   C1254     1.0  0.48884  0.38817  0.98928  1.0000
  H   H2224     1.0  0.96881  0.26536  0.55174  1.0000
  C   C1255     1.0  0.72931  0.26851  0.66349  1.0000
  C   C1256     1.0  0.50477  0.33693  0.70240  1.0000
  H   H2225     1.0  0.72167  0.28633  0.93862  1.0000
  C   C1257     1.0  0.85564  0.24495  0.78194  1.0000
  C   C1258     1.0  0.66299  0.27951  0.92213  1.0000
  C   C1259     1.0  0.65260  0.27208  0.98726  1.0000
  C   C1260     1.0  0.83752  0.29680  0.96911  1.0000
  H   H2226     1.0  0.84817  0.48355  0.62356  1.0000
  H   H2227     1.0  0.77234  0.28712  0.52142  1.0000
  H   H2228     1.0  0.64964  0.26970  0.91364  1.0000
  C   C1261     1.0  0.90301  0.30535  0.64264  1.0000
  C   C1262     1.0  0.84001  0.45180  0.55021  1.0000
  H   H2229     1.0  0.79972  0.42565  0.91277  1.0000
  Fe  Fe151     1.0  0.85920  0.25828  0.95603  1.0000
  H   H2230     1.0  0.75180  0.26496  0.95579  1.0000
  H   H2231     1.0  0.63706  0.25083  0.64088  1.0000
  C   C1263     1.0  0.71340  0.48001  0.79357  1.0000
  C   C1264     1.0  0.84239  0.36894  0.94759  1.0000
  H   H2232     1.0  0.88883  0.29521  0.64385  1.0000
  H   H2233     1.0  0.79203  0.40150  0.56601  1.0000
  H   H2234     1.0  0.78272  0.36779  0.98260  1.0000
  C   C1265     1.0  0.82940  0.31025  0.96952  1.0000
  H   H2235     1.0  0.57473  0.39617  0.70257  1.0000
  H   H2236     1.0  0.95727  0.29704  0.87560  1.0000
  H   H2237     1.0  0.72418  0.26331  0.63693  1.0000
  C   C1266     1.0  0.82234  0.39731  0.69504  1.0000
  C   C1267     1.0  0.50217  0.28075  0.98750  1.0000
  H   H2238     1.0  0.74351  0.28671  0.54995  1.0000
  H   H2239     1.0  0.54554  0.30144  0.50963  1.0000
  H   H2240     1.0  0.83115  0.45585  0.53181  1.0000
  C   C1268     1.0  0.81248  0.43256  0.58903  1.0000
  Fe  Fe152     1.0  0.78964  0.48084  0.61851  1.0000
  C   C1269     1.0  0.68557  0.24812  0.51319  1.0000
  H   H2241     1.0  0.58858  0.44451  0.61930  1.0000
  H   H2242     1.0  0.56108  0.30570  0.95623  1.0000
  H   H2243     1.0  0.74646  0.27265  0.58682  1.0000
  Fe  Fe153     1.0  0.76247  0.48316  0.93159  1.0000
  H   H2244     1.0  0.49766  0.24700  0.92877  1.0000
  H   H2245     1.0  0.87163  0.38278  0.93715  1.0000
  C   C1270     1.0  0.56866  0.41872  0.60165  1.0000
  H   H2246     1.0  0.75066  0.39541  0.53014  1.0000
  H   H2247     1.0  0.83049  0.41601  0.95174  1.0000
  H   H2248     1.0  0.58032  0.25693  0.94435  1.0000
  C   C1271     1.0  0.54842  0.29882  0.53772  1.0000
  H   H2249     1.0  0.91611  0.28710  0.62449  1.0000
  C   C1272     1.0  0.82970  0.43284  0.56777  1.0000
  H   H2250     1.0  0.76267  0.29835  0.94680  1.0000
  C   C1273     1.0  0.93345  0.31976  0.94251  1.0000
  N   N71       1.0  0.80316  0.41598  0.61370  1.0000
  H   H2251     1.0  0.55274  0.39506  0.75271  1.0000
  C   C1274     1.0  0.81235  0.42595  0.89848  1.0000
  H   H2252     1.0  0.54770  0.36031  0.63382  1.0000
  H   H2253     1.0  0.86363  0.35796  0.93721  1.0000
  H   H2254     1.0  0.94511  0.26289  0.97141  1.0000
  H   H2255     1.0  0.56726  0.41013  0.57804  1.0000
  H   H2256     1.0  0.82988  0.39082  0.67792  1.0000
  S   S293      1.0  0.86923  0.26056  0.61055  1.0000
  C   C1275     1.0  0.92609  0.27178  0.73147  1.0000
  H   H2257     1.0  0.54027  0.28973  0.97649  1.0000
  H   H2258     1.0  0.63827  0.25945  0.68535  1.0000
  H   H2259     1.0  0.96106  0.27326  0.71101  1.0000
  H   H2260     1.0  0.90655  0.25691  0.62497  1.0000
  C   C1276     1.0  0.77149  0.42180  0.51605  1.0000
  C   C1277     1.0  0.83708  0.38568  0.93675  1.0000
  H   H2261     1.0  0.89818  0.27499  0.68405  1.0000
  H   H2262     1.0  0.66250  0.29358  0.92285  1.0000
  H   H2263     1.0  0.85740  0.31033  0.56398  1.0000
  H   H2264     1.0  0.77134  0.34050  0.94294  1.0000
  C   C1278     1.0  0.55130  0.42148  0.50377  1.0000
  C   C1279     1.0  0.75366  0.28317  0.56571  1.0000
  C   C1280     1.0  0.88492  0.31915  0.54065  1.0000
  C   C1281     1.0  0.91670  0.29576  0.64768  1.0000
  H   H2265     1.0  0.72814  0.45662  0.84818  1.0000
  H   H2266     1.0  0.97791  0.27577  0.98633  1.0000
  C   C1282     1.0  0.85099  0.25133  0.74951  1.0000
  H   H2267     1.0  0.81102  0.42846  0.86955  1.0000
  C   C1283     1.0  0.50066  0.27225  0.95468  1.0000
  H   H2268     1.0  0.75621  0.47857  0.78976  1.0000
  C   C1284     1.0  0.76376  0.40240  0.51672  1.0000
  S   S294      1.0  0.82674  0.27305  0.58134  1.0000
  H   H2269     1.0  0.76747  0.40906  0.58925  1.0000
  H   H2270     1.0  0.82412  0.43758  0.90823  1.0000
  H   H2271     1.0  0.97370  0.28343  0.63240  1.0000
  S   S295      1.0  0.49877  0.35823  0.81427  1.0000
  H   H2272     1.0  0.75202  0.40143  0.98051  1.0000
  H   H2273     1.0  0.80459  0.35693  0.95179  1.0000
  C   C1285     1.0  0.54627  0.25753  0.95588  1.0000
  H   H2274     1.0  0.82795  0.41255  0.63118  1.0000
  H   H2275     1.0  0.69827  0.28722  0.56046  1.0000
  H   H2276     1.0  0.80313  0.43383  0.56822  1.0000
  H   H2277     1.0  0.84946  0.24861  0.69218  1.0000
  H   H2278     1.0  0.56525  0.37131  0.70177  1.0000
  H   H2279     1.0  0.69455  0.40842  0.94559  1.0000
  C   C1286     1.0  0.56206  0.38386  0.70642  1.0000
  C   C1287     1.0  0.57102  0.42387  0.98055  1.0000
  H   H2280     1.0  0.85610  0.47694  0.66496  1.0000
  S   S296      1.0  0.51989  0.39202  0.52205  1.0000
  C   C1288     1.0  0.57028  0.35898  0.57968  1.0000
  H   H2281     1.0  0.70288  0.45323  0.82223  1.0000
  C   C1289     1.0  0.87145  0.31258  0.57251  1.0000
  C   C1290     1.0  0.69843  0.27795  0.53954  1.0000
  H   H2282     1.0  0.83368  0.48634  0.69921  1.0000
  C   C1291     1.0  0.82316  0.28490  0.54306  1.0000
  C   C1292     1.0  0.75581  0.42137  0.62857  1.0000
  C   C1293     1.0  0.55561  0.38258  0.74558  1.0000
  C   C1294     1.0  0.76551  0.40816  0.99062  1.0000
  H   H2283     1.0  0.75055  0.48518  0.73123  1.0000
  C   C1295     1.0  0.98033  0.29992  0.90859  1.0000
  H   H2284     1.0  0.94398  0.28555  0.64677  1.0000
  H   H2285     1.0  0.70829  0.49143  0.78872  1.0000
  C   C1296     1.0  0.77235  0.42084  0.60712  1.0000
  S   S297      1.0  0.92500  0.27049  0.91057  1.0000
  H   H2286     1.0  0.92764  0.28854  0.97599  1.0000
  H   H2287     1.0  0.50402  0.29510  0.98840  1.0000
  N   N72       1.0  0.92484  0.27314  0.69131  1.0000
  H   H2288     1.0  0.59833  0.43000  0.59567  1.0000
  C   C1297     1.0  0.80951  0.38791  0.58752  1.0000
  H   H2289     1.0  0.81123  0.36449  0.55931  1.0000
  H   H2290     1.0  0.72174  0.29785  0.51095  1.0000
  H   H2291     1.0  0.82572  0.49280  0.65819  1.0000
  C   C1298     1.0  0.74276  0.49454  0.73266  1.0000
  H   H2292     1.0  0.55831  0.34600  0.58417  1.0000
  H   H2293     1.0  0.51831  0.39611  0.98809  1.0000
  C   C1299     1.0  0.91648  0.25382  0.67803  1.0000
  H   H2294     1.0  0.83614  0.27264  0.50600  1.0000
  H   H2295     1.0  0.80453  0.36947  0.91198  1.0000
  C   C1300     1.0  0.78850  0.43098  0.49916  1.0000
  H   H2296     1.0  0.57053  0.37366  0.64470  1.0000
  H   H2297     1.0  0.72192  0.40725  0.97525  1.0000
  S   S298      1.0  0.85199  0.25473  0.82230  1.0000
  H   H2298     1.0  0.79805  0.38798  0.66422  1.0000
  H   H2299     1.0  0.75619  0.35310  0.94697  1.0000
  C   C1301     1.0  0.79397  0.43459  0.98959  1.0000
  H   H2300     1.0  0.83209  0.41027  0.70553  1.0000
  H   H2301     1.0  0.55112  0.25041  0.58784  1.0000
  C   C1302     1.0  0.80767  0.40122  0.67383  1.0000
  C   C1303     1.0  0.91383  0.31714  0.93137  1.0000
  C   C1304     1.0  0.79630  0.39850  0.59290  1.0000
  H   H2302     1.0  0.84553  0.26225  0.74962  1.0000
  H   H2303     1.0  0.78368  0.38834  0.60594  1.0000
  H   H2304     1.0  0.84883  0.39854  0.94166  1.0000
  S   S299      1.0  0.78034  0.48784  0.97898  1.0000
  H   H2305     1.0  0.77021  0.35594  0.90687  1.0000
  C   C1305     1.0  0.68533  0.25999  0.54043  1.0000
  C   C1306     1.0  0.56170  0.39040  0.98549  1.0000
  H   H2306     1.0  0.75990  0.43312  0.64677  1.0000
  H   H2307     1.0  0.83182  0.35587  0.93965  1.0000
  N   N73       1.0  0.55245  0.38906  0.64197  1.0000
  H   H2308     1.0  0.75152  0.47080  0.85184  1.0000
  C   C1307     1.0  0.79379  0.47799  0.77889  1.0000
  H   H2309     1.0  0.79999  0.40682  0.69262  1.0000
  H   H2310     1.0  0.52534  0.37366  0.62399  1.0000
  H   H2311     1.0  0.80146  0.37836  0.53407  1.0000
  H   H2312     1.0  0.56634  0.41705  0.65896  1.0000
  C   C1308     1.0  0.69712  0.25696  0.69030  1.0000
  C   C1309     1.0  0.68105  0.24717  0.82026  1.0000
  H   H2313     1.0  0.96824  0.34882  0.96095  1.0000
  H   H2314     1.0  0.56565  0.27924  0.98766  1.0000
  C   C1310     1.0  0.55423  0.39165  0.50514  1.0000
  H   H2315     1.0  0.74571  0.42317  0.60998  1.0000
  H   H2316     1.0  0.81605  0.44544  0.60429  1.0000
  C   C1311     1.0  0.88163  0.30376  0.51308  1.0000
  H   H2317     1.0  0.90956  0.32817  0.94209  1.0000
  H   H2318     1.0  0.74918  0.40831  0.64446  1.0000
  S   S300      1.0  0.73175  0.47285  0.92966  1.0000
  C   C1312     1.0  0.81116  0.30706  0.51680  1.0000
  C   C1313     1.0  0.77290  0.39198  0.50045  1.0000
  S   S301      1.0  0.50114  0.28435  0.91404  1.0000
  C   C1314     1.0  0.53548  0.38806  0.62258  1.0000
  H   H2319     1.0  0.77780  0.43383  0.59081  1.0000
  H   H2320     1.0  0.90445  0.31555  0.66365  1.0000
  C   C1315     1.0  0.55081  0.29152  0.95509  1.0000
  H   H2321     1.0  0.85198  0.45142  0.53444  1.0000
  C   C1316     1.0  0.81509  0.40765  0.90448  1.0000
  H   H2322     1.0  0.89704  0.25789  0.80764  1.0000
  S   S302      1.0  0.50820  0.32885  0.65977  1.0000
  S   S303      1.0  0.85818  0.25161  0.52806  1.0000
  H   H2323     1.0  0.53836  0.39118  0.59354  1.0000
  H   H2324     1.0  0.76425  0.42964  0.52856  1.0000
  C   C1317     1.0  0.94677  0.30235  0.55474  1.0000
  H   H2325     1.0  0.57142  0.28082  0.94053  1.0000
  H   H2326     1.0  0.48627  0.37381  0.98178  1.0000
  C   C1318     1.0  0.95476  0.27318  0.95374  1.0000
  C   C1319     1.0  0.76525  0.27598  0.54140  1.0000
  H   H2327     1.0  0.49925  0.36047  0.68281  1.0000
  H   H2328     1.0  0.73231  0.43197  0.97218  1.0000
  C   C1320     1.0  0.95600  0.32132  0.98896  1.0000
  C   C1321     1.0  0.77819  0.24645  0.51995  1.0000
  C   C1322     1.0  0.95787  0.27342  0.68232  1.0000
  C   C1323     1.0  0.97071  0.33579  0.96440  1.0000
  H   H2329     1.0  0.84492  0.46237  0.57074  1.0000
  H   H2330     1.0  0.94226  0.33339  0.93100  1.0000
  H   H2331     1.0  0.64003  0.26124  0.97796  1.0000
  C   C1324     1.0  0.74155  0.47259  0.79853  1.0000
  H   H2332     1.0  0.67778  0.47554  0.81719  1.0000
  N   N74       1.0  0.93617  0.31799  0.98207  1.0000
  C   C1325     1.0  0.90766  0.26287  0.75276  1.0000
  H   H2333     1.0  0.90157  0.24797  0.74738  1.0000
  C   C1326     1.0  0.91035  0.26458  0.79303  1.0000
  H   H2334     1.0  0.67722  0.45671  0.78916  1.0000
  H   H2335     1.0  0.69371  0.24463  0.82653  1.0000
  H   H2336     1.0  0.83335  0.49300  0.78646  1.0000
  H   H2337     1.0  0.49974  0.40006  0.93639  1.0000
  C   C1327     1.0  0.91662  0.25177  0.63704  1.0000
  H   H2338     1.0  0.67220  0.45268  0.83649  1.0000
  C   C1328     1.0  0.82946  0.28241  0.50916  1.0000
  H   H2339     1.0  0.88420  0.29217  0.52703  1.0000
  C   C1329     1.0  0.83786  0.49217  0.67172  1.0000
  H   H2340     1.0  0.93438  0.26340  0.73902  1.0000
  H   H2341     1.0  0.70111  0.24782  0.75993  1.0000
  H   H2342     1.0  0.56343  0.30380  0.54070  1.0000
  H   H2343     1.0  0.54823  0.37682  0.50863  1.0000
  C   C1330     1.0  0.68083  0.46270  0.81582  1.0000
  H   H2344     1.0  0.64971  0.28506  0.98598  1.0000
  H   H2345     1.0  0.93785  0.30969  0.92804  1.0000
  C   C1331     1.0  0.71091  0.49381  0.52601  1.0000
  C   C1332     1.0  0.64007  0.24847  0.66905  1.0000
  C   C1333     1.0  0.72856  0.49340  0.52340  1.0000
  H   H2346     1.0  0.73225  0.48726  0.85830  1.0000
  H   H2347     1.0  0.92207  0.33133  0.87924  1.0000
  C   C1334     1.0  0.70095  0.46664  0.82275  1.0000
  C   C1335     1.0  0.71169  0.28400  0.51151  1.0000
  H   H2348     1.0  0.66866  0.26265  0.65990  1.0000
  H   H2349     1.0  0.74318  0.26226  0.50753  1.0000
  H   H2350     1.0  0.70359  0.47221  0.84986  1.0000
  Fe  Fe154     1.0  0.76892  0.49456  0.56337  1.0000
  H   H2351     1.0  0.86682  0.29849  0.50796  1.0000
  C   C1336     1.0  0.93821  0.35144  0.99339  1.0000
  H   H2352     1.0  0.58793  0.24879  0.59607  1.0000
  H   H2353     1.0  0.73353  0.30079  0.99570  1.0000
  H   H2354     1.0  0.48932  0.41337  0.96168  1.0000
  H   H2355     1.0  0.68588  0.48986  0.49930  1.0000
  C   C1337     1.0  0.48834  0.39921  0.95522  1.0000
  Fe  Fe155     1.0  0.86037  0.24826  0.87740  1.0000
  H   H2356     1.0  0.91566  0.31324  0.51260  1.0000
  S   S304      1.0  0.48802  0.34027  0.50396  1.0000
  H   H2357     1.0  0.78740  0.27332  0.99686  1.0000
  C   C1338     1.0  0.72487  0.28642  0.99571  1.0000
  H   H2358     1.0  0.92315  0.24478  0.69022  1.0000
  H   H2359     1.0  0.75475  0.27587  0.99793  1.0000
  S   S305      1.0  0.62597  0.49491  0.34205  1.0000
  H   H2360     1.0  0.84609  0.62602  0.00878  1.0000
  H   H2361     1.0  0.71782  0.52880  0.48611  1.0000
  H   H2362     1.0  0.54697  0.66144  0.32003  1.0000
  H   H2363     1.0  0.86594  0.69677  0.09602  1.0000
  Fe  Fe156     1.0  0.89049  0.66251  0.38911  1.0000
  S   S306      1.0  0.90210  0.68230  0.43336  1.0000
  S   S307      1.0  0.89009  0.67528  0.33363  1.0000
  Fe  Fe157     1.0  0.88410  0.62888  0.43873  1.0000
  S   S308      1.0  0.89633  0.64628  0.48523  1.0000
  H   H2364     1.0  0.69301  0.63981  0.44980  1.0000
  Fe  Fe158     1.0  0.87908  0.66260  0.46830  1.0000
  C   C1339     1.0  0.86055  0.69312  0.12396  1.0000
  Fe  Fe159     1.0  0.91854  0.66461  0.44642  1.0000
  S   S309      1.0  0.94948  0.67492  0.45964  1.0000
  S   S310      1.0  0.86626  0.64464  0.42305  1.0000
  S   S311      1.0  0.90754  0.64544  0.40101  1.0000
  H   H2365     1.0  0.81575  0.65960  0.24079  1.0000
  S   S312      1.0  0.65671  0.53107  0.07992  1.0000
  C   C1340     1.0  0.93897  0.72503  0.47067  1.0000
  Fe  Fe160     1.0  0.88202  0.64225  0.13008  1.0000
  S   S313      1.0  0.89407  0.67108  0.10642  1.0000
  S   S314      1.0  0.87212  0.63260  0.18758  1.0000
  Fe  Fe161     1.0  0.88473  0.62496  0.05806  1.0000
  H   H2366     1.0  0.91569  0.61166  0.24614  1.0000
  Fe  Fe162     1.0  0.91517  0.66189  0.07861  1.0000
  S   S315      1.0  0.94657  0.67567  0.08703  1.0000
  Fe  Fe163     1.0  0.87560  0.65941  0.05997  1.0000
  S   S316      1.0  0.65772  0.50510  0.42317  1.0000
  S   S317      1.0  0.90340  0.63328  0.10440  1.0000
  S   S318      1.0  0.86238  0.63134  0.08582  1.0000
  H   H2367     1.0  0.93436  0.67736  0.15859  1.0000
  C   C1341     1.0  0.85868  0.58286  0.47569  1.0000
  H   H2368     1.0  0.95034  0.67630  0.21502  1.0000
  C   C1342     1.0  0.94823  0.63091  0.15581  1.0000
  H   H2369     1.0  0.96532  0.67935  0.37696  1.0000
  H   H2370     1.0  0.95843  0.66007  0.16667  1.0000
  C   C1343     1.0  0.76299  0.51838  0.03949  1.0000
  H   H2371     1.0  0.64133  0.56380  0.43151  1.0000
  N   N75       1.0  0.53078  0.67076  0.35674  1.0000
  C   C1344     1.0  0.80350  0.63796  0.03318  1.0000
  C   C1345     1.0  0.64490  0.62186  0.49372  1.0000
  C   C1346     1.0  0.51933  0.68988  0.02798  1.0000
  C   C1347     1.0  0.68480  0.64579  0.46647  1.0000
  C   C1348     1.0  0.51319  0.65024  0.41149  1.0000
  H   H2372     1.0  0.67292  0.64557  0.45084  1.0000
  H   H2373     1.0  0.81669  0.63446  0.28233  1.0000
  C   C1349     1.0  0.96969  0.69089  0.07632  1.0000
  C   C1350     1.0  0.97448  0.70206  0.04503  1.0000
  H   H2374     1.0  0.57425  0.70148  0.42085  1.0000
  H   H2375     1.0  0.49306  0.72018  0.46911  1.0000
  H   H2376     1.0  0.66943  0.64732  0.01655  1.0000
  C   C1351     1.0  0.62478  0.64808  0.00268  1.0000
  C   C1352     1.0  0.94415  0.73734  0.40621  1.0000
  H   H2377     1.0  0.50649  0.66024  0.41705  1.0000
  H   H2378     1.0  0.51549  0.72190  0.31657  1.0000
  H   H2379     1.0  0.67855  0.64052  0.07643  1.0000
  H   H2380     1.0  0.67788  0.60380  0.47395  1.0000
  H   H2381     1.0  0.94836  0.62897  0.23002  1.0000
  H   H2382     1.0  0.90503  0.71327  0.48245  1.0000
  C   C1353     1.0  0.53838  0.69777  0.03085  1.0000
  H   H2383     1.0  0.52484  0.65282  0.42946  1.0000
  H   H2384     1.0  0.88450  0.60381  0.22329  1.0000
  C   C1354     1.0  0.67184  0.54947  0.48376  1.0000
  H   H2385     1.0  0.70316  0.50784  0.06156  1.0000
  C   C1355     1.0  0.91701  0.63359  0.20681  1.0000
  C   C1356     1.0  0.97165  0.69298  0.45383  1.0000
  H   H2386     1.0  0.74949  0.59512  0.02818  1.0000
  H   H2387     1.0  0.81441  0.62919  0.21669  1.0000
  C   C1357     1.0  0.94806  0.64298  0.23302  1.0000
  C   C1358     1.0  0.97433  0.70978  0.43580  1.0000
  C   C1359     1.0  0.68600  0.56680  0.48373  1.0000
  C   C1360     1.0  0.54277  0.70467  0.46636  1.0000
  H   H2388     1.0  0.64822  0.57849  0.02707  1.0000
  C   C1361     1.0  0.88482  0.66311  0.29341  1.0000
  C   C1362     1.0  0.87885  0.64389  0.29310  1.0000
  C   C1363     1.0  0.87473  0.63480  0.26053  1.0000
  C   C1364     1.0  0.87704  0.64481  0.22783  1.0000
  C   C1365     1.0  0.88291  0.66402  0.22813  1.0000
  C   C1366     1.0  0.88661  0.67308  0.26080  1.0000
  H   H2389     1.0  0.87720  0.63602  0.31801  1.0000
  H   H2390     1.0  0.86986  0.61992  0.26076  1.0000
  H   H2391     1.0  0.88450  0.67189  0.20328  1.0000
  H   H2392     1.0  0.89101  0.68795  0.26085  1.0000
  H   H2393     1.0  0.54023  0.65745  0.25005  1.0000
  C   C1367     1.0  0.84544  0.56545  0.46961  1.0000
  C   C1368     1.0  0.98370  0.69185  0.10008  1.0000
  H   H2394     1.0  0.84173  0.56159  0.44250  1.0000
  H   H2395     1.0  0.61571  0.56151  0.04512  1.0000
  H   H2396     1.0  0.69401  0.53092  0.42962  1.0000
  H   H2397     1.0  0.62572  0.54735  0.02186  1.0000
  C   C1369     1.0  0.71260  0.51978  0.07531  1.0000
  H   H2398     1.0  0.93492  0.61991  0.15095  1.0000
  H   H2399     1.0  0.83363  0.65978  0.46141  1.0000
  C   C1370     1.0  0.82799  0.66180  0.48686  1.0000
  S   S319      1.0  0.89770  0.65278  0.03001  1.0000
  H   H2400     1.0  0.92043  0.73432  0.43826  1.0000
  C   C1371     1.0  0.68528  0.57687  0.01868  1.0000
  H   H2401     1.0  0.85329  0.70242  0.13154  1.0000
  C   C1372     1.0  0.71936  0.54352  0.48200  1.0000
  C   C1373     1.0  0.95905  0.63491  0.12018  1.0000
  H   H2402     1.0  0.98038  0.64131  0.02709  1.0000
  H   H2403     1.0  0.51975  0.69303  0.30247  1.0000
  H   H2404     1.0  0.69319  0.59117  0.02325  1.0000
  S   S320      1.0  0.86973  0.59763  0.43857  1.0000
  C   C1374     1.0  0.63000  0.63167  0.01398  1.0000
  C   C1375     1.0  0.70363  0.52112  0.11117  1.0000
  H   H2405     1.0  0.52300  0.72763  0.43766  1.0000
  H   H2406     1.0  0.71902  0.56123  0.43565  1.0000
  H   H2407     1.0  0.51706  0.65309  0.23762  1.0000
  C   C1376     1.0  0.93524  0.73817  0.44247  1.0000
  C   C1377     1.0  0.95088  0.63474  0.29841  1.0000
  H   H2408     1.0  0.49720  0.73014  0.10911  1.0000
  C   C1378     1.0  0.52464  0.69213  0.46868  1.0000
  H   H2409     1.0  0.61731  0.62010  0.02248  1.0000
  C   C1379     1.0  0.68701  0.64050  0.05232  1.0000
  S   S321      1.0  0.50556  0.68129  0.06738  1.0000
  H   H2410     1.0  0.50695  0.64562  0.35627  1.0000
  H   H2411     1.0  0.81508  0.59972  0.43943  1.0000
  H   H2412     1.0  0.69413  0.57220  0.45953  1.0000
  C   C1380     1.0  0.54720  0.67839  0.37976  1.0000
  H   H2413     1.0  0.94693  0.63660  0.32631  1.0000
  C   C1381     1.0  0.91410  0.61321  0.21699  1.0000
  H   H2414     1.0  0.67878  0.56955  0.07470  1.0000
  H   H2415     1.0  0.69349  0.63010  0.05640  1.0000
  H   H2416     1.0  0.96599  0.64050  0.29543  1.0000
  H   H2417     1.0  0.75262  0.53801  0.06186  1.0000
  H   H2418     1.0  0.74869  0.56365  0.02617  1.0000
  H   H2419     1.0  0.72495  0.51669  0.08132  1.0000
  C   C1382     1.0  0.53711  0.66873  0.31928  1.0000
  N   N76       1.0  0.93638  0.64728  0.20535  1.0000
  H   H2420     1.0  0.50954  0.66176  0.29739  1.0000
  H   H2421     1.0  0.93649  0.65114  0.14797  1.0000
  H   H2422     1.0  0.76551  0.55864  0.46236  1.0000
  C   C1383     1.0  0.71747  0.53804  0.05271  1.0000
  C   C1384     1.0  0.66049  0.61687  0.02230  1.0000
  C   C1385     1.0  0.51230  0.71064  0.33729  1.0000
  H   H2423     1.0  0.54487  0.68234  0.30626  1.0000
  H   H2424     1.0  0.66787  0.60715  0.02550  1.0000
  H   H2425     1.0  0.68836  0.50399  0.35288  1.0000
  H   H2426     1.0  0.53174  0.67620  0.24685  1.0000
  H   H2427     1.0  0.82856  0.63751  0.05537  1.0000
  H   H2428     1.0  0.83430  0.61604  0.48729  1.0000
  H   H2429     1.0  0.95694  0.68841  0.33938  1.0000
  C   C1386     1.0  0.84204  0.58484  0.02701  1.0000
  C   C1387     1.0  0.72168  0.54835  0.44121  1.0000
  H   H2430     1.0  0.82778  0.63945  0.11838  1.0000
  H   H2431     1.0  0.68858  0.67264  0.48828  1.0000
  C   C1388     1.0  0.80953  0.66021  0.49001  1.0000
  C   C1389     1.0  0.49957  0.63099  0.42154  1.0000
  H   H2432     1.0  0.61726  0.65161  0.02501  1.0000
  H   H2433     1.0  0.77621  0.52382  0.05305  1.0000
  S   S322      1.0  0.57713  0.72239  0.49021  1.0000
  C   C1390     1.0  0.74158  0.57513  0.49052  1.0000
  H   H2434     1.0  0.54794  0.71270  0.44188  1.0000
  H   H2435     1.0  0.82969  0.60119  0.12694  1.0000
  H   H2436     1.0  0.83033  0.65696  0.29731  1.0000
  H   H2437     1.0  0.48742  0.62754  0.40468  1.0000
  H   H2438     1.0  0.89267  0.60108  0.17910  1.0000
  H   H2439     1.0  0.72675  0.54898  0.06931  1.0000
  C   C1391     1.0  0.84050  0.66708  0.16558  1.0000
  C   C1392     1.0  0.66704  0.54585  0.04243  1.0000
  H   H2440     1.0  0.91260  0.66509  0.18053  1.0000
  H   H2441     1.0  0.91989  0.69191  0.22312  1.0000
  C   C1393     1.0  0.65151  0.57806  0.43209  1.0000
  H   H2442     1.0  0.63873  0.63578  0.03746  1.0000
  C   C1394     1.0  0.89497  0.60024  0.20817  1.0000
  C   C1395     1.0  0.70812  0.53315  0.42020  1.0000
  H   H2443     1.0  0.62950  0.50792  0.26874  1.0000
  H   H2444     1.0  0.66322  0.51909  0.31112  1.0000
  C   C1396     1.0  0.81260  0.61512  0.14976  1.0000
  C   C1397     1.0  0.80855  0.60372  0.46277  1.0000
  C   C1398     1.0  0.82738  0.63476  0.14661  1.0000
  H   H2445     1.0  0.69796  0.65431  0.04883  1.0000
  H   H2446     1.0  0.89330  0.58582  0.21564  1.0000
  H   H2447     1.0  0.67301  0.52659  0.35358  1.0000
  H   H2448     1.0  0.77820  0.66192  0.15030  1.0000
  C   C1399     1.0  0.49697  0.73099  0.07947  1.0000
  C   C1400     1.0  0.57793  0.70272  0.39184  1.0000
  H   H2449     1.0  0.96404  0.70159  0.02634  1.0000
  H   H2450     1.0  0.93875  0.72310  0.39628  1.0000
  H   H2451     1.0  0.77294  0.63864  0.13534  1.0000
  C   C1401     1.0  0.75897  0.54538  0.47751  1.0000
  N   N77       1.0  0.82513  0.64867  0.17182  1.0000
  C   C1402     1.0  0.69645  0.66591  0.47264  1.0000
  H   H2452     1.0  0.71296  0.53241  0.12680  1.0000
  C   C1403     1.0  0.79523  0.64754  0.01144  1.0000
  H   H2453     1.0  0.65093  0.57691  0.48914  1.0000
  H   H2454     1.0  0.83854  0.63759  0.21127  1.0000
  H   H2455     1.0  0.84244  0.59614  0.04355  1.0000
  C   C1404     1.0  0.94242  0.64460  0.27246  1.0000
  S   S323      1.0  0.88001  0.59843  0.02862  1.0000
  H   H2456     1.0  0.84025  0.66813  0.23596  1.0000
  H   H2457     1.0  0.66582  0.61322  0.44472  1.0000
  H   H2458     1.0  0.76965  0.60839  0.46968  1.0000
  H   H2459     1.0  0.78066  0.53575  0.46191  1.0000
  C   C1405     1.0  0.50419  0.73331  0.47496  1.0000
  C   C1406     1.0  0.51918  0.68256  0.35790  1.0000
  H   H2460     1.0  0.79496  0.59283  0.46832  1.0000
  H   H2461     1.0  0.69080  0.52372  0.10699  1.0000
  C   C1407     1.0  0.96796  0.68368  0.34823  1.0000
  C   C1408     1.0  0.75514  0.53357  0.03498  1.0000
  C   C1409     1.0  0.55425  0.70695  0.49549  1.0000
  C   C1410     1.0  0.52819  0.66144  0.25476  1.0000
  H   H2462     1.0  0.54612  0.74349  0.02877  1.0000
  H   H2463     1.0  0.55459  0.70829  0.37512  1.0000
  H   H2464     1.0  0.85283  0.66713  0.17984  1.0000
  C   C1411     1.0  0.52176  0.65796  0.29397  1.0000
  H   H2465     1.0  0.79889  0.61549  0.14478  1.0000
  H   H2466     1.0  0.49501  0.63052  0.44997  1.0000
  H   H2467     1.0  0.72964  0.51251  0.02110  1.0000
  H   H2468     1.0  0.50456  0.67398  0.35474  1.0000
  H   H2469     1.0  0.51977  0.68856  0.38468  1.0000
  H   H2470     1.0  0.98035  0.68337  0.12435  1.0000
  H   H2471     1.0  0.91856  0.69813  0.17685  1.0000
  H   H2472     1.0  0.52730  0.64222  0.36847  1.0000
  H   H2473     1.0  0.51559  0.71688  0.36381  1.0000
  H   H2474     1.0  0.54291  0.67942  0.40785  1.0000
  H   H2475     1.0  0.68965  0.50327  0.28392  1.0000
  H   H2476     1.0  0.58399  0.73905  0.04555  1.0000
  H   H2477     1.0  0.83650  0.67147  0.10770  1.0000
  C   C1412     1.0  0.67718  0.56457  0.04780  1.0000
  C   C1413     1.0  0.82909  0.64685  0.27619  1.0000
  C   C1414     1.0  0.81631  0.60254  0.12237  1.0000
  H   H2478     1.0  0.68760  0.51230  0.01568  1.0000
  H   H2479     1.0  0.51075  0.73954  0.06853  1.0000
  H   H2480     1.0  0.56545  0.69929  0.34103  1.0000
  H   H2481     1.0  0.84086  0.63346  0.15046  1.0000
  H   H2482     1.0  0.49745  0.70237  0.33687  1.0000
  C   C1415     1.0  0.80678  0.65058  0.16891  1.0000
  H   H2483     1.0  0.73553  0.55051  0.43055  1.0000
  C   C1416     1.0  0.93615  0.66625  0.21260  1.0000
  H   H2484     1.0  0.58712  0.71715  0.38553  1.0000
  H   H2485     1.0  0.74950  0.53510  0.46022  1.0000
  C   C1417     1.0  0.82516  0.57221  0.01631  1.0000
  H   H2486     1.0  0.79573  0.63767  0.17874  1.0000
  H   H2487     1.0  0.95593  0.62581  0.17514  1.0000
  H   H2488     1.0  0.56418  0.73404  0.07524  1.0000
  H   H2489     1.0  0.85518  0.66443  0.11694  1.0000
  C   C1418     1.0  0.84754  0.67303  0.12649  1.0000
  H   H2490     1.0  0.65277  0.61564  0.04810  1.0000
  H   H2491     1.0  0.51591  0.69069  0.44632  1.0000
  C   C1419     1.0  0.67506  0.52054  0.32805  1.0000
  H   H2492     1.0  0.66533  0.57742  0.42862  1.0000
  H   H2493     1.0  0.91047  0.63393  0.18090  1.0000
  C   C1420     1.0  0.63231  0.59364  0.00235  1.0000
  H   H2494     1.0  0.55481  0.66877  0.38063  1.0000
  C   C1421     1.0  0.92677  0.67457  0.18459  1.0000
  H   H2495     1.0  0.96292  0.71175  0.42329  1.0000
  H   H2496     1.0  0.65419  0.65223  0.49181  1.0000
  H   H2497     1.0  0.68769  0.53016  0.31435  1.0000
  H   H2498     1.0  0.92394  0.60830  0.20326  1.0000
  H   H2499     1.0  0.90858  0.63764  0.22669  1.0000
  C   C1422     1.0  0.52342  0.69854  0.32942  1.0000
  Fe  Fe164     1.0  0.64075  0.49960  0.47387  1.0000
  C   C1423     1.0  0.67537  0.63644  0.01919  1.0000
  C   C1424     1.0  0.80184  0.65588  0.13144  1.0000
  H   H2500     1.0  0.94050  0.70347  0.19656  1.0000
  H   H2501     1.0  0.73019  0.57999  0.48485  1.0000
  H   H2502     1.0  0.75350  0.50658  0.05581  1.0000
  C   C1425     1.0  0.51960  0.65166  0.37163  1.0000
  H   H2503     1.0  0.94585  0.61974  0.29358  1.0000
  C   C1426     1.0  0.66497  0.53959  0.00756  1.0000
  H   H2504     1.0  0.66906  0.54168  0.45970  1.0000
  H   H2505     1.0  0.83670  0.67827  0.17723  1.0000
  H   H2506     1.0  0.92892  0.66608  0.23859  1.0000
  H   H2507     1.0  0.94717  0.65934  0.27945  1.0000
  H   H2508     1.0  0.70031  0.50796  0.12686  1.0000
  H   H2509     1.0  0.80119  0.65714  0.46670  1.0000
  H   H2510     1.0  0.81242  0.60865  0.17655  1.0000
  H   H2511     1.0  0.54428  0.69830  0.05682  1.0000
  H   H2512     1.0  0.79524  0.62472  0.04525  1.0000
  C   C1427     1.0  0.51724  0.73848  0.44232  1.0000
  H   H2513     1.0  0.80447  0.64742  0.11026  1.0000
  H   H2514     1.0  0.96747  0.67164  0.33252  1.0000
  H   H2515     1.0  0.64906  0.58629  0.40948  1.0000
  C   C1428     1.0  0.94511  0.64831  0.16865  1.0000
  H   H2516     1.0  0.80577  0.66134  0.18688  1.0000
  H   H2517     1.0  0.81267  0.57398  0.02464  1.0000
  C   C1429     1.0  0.56089  0.69794  0.36948  1.0000
  C   C1430     1.0  0.82644  0.64178  0.20945  1.0000
  H   H2518     1.0  0.81629  0.60806  0.09473  1.0000
  H   H2519     1.0  0.70079  0.67354  0.44657  1.0000
  H   H2520     1.0  0.80554  0.58860  0.12500  1.0000
  H   H2521     1.0  0.70480  0.54130  0.05109  1.0000
  H   H2522     1.0  0.80689  0.61699  0.45593  1.0000
  H   H2523     1.0  0.77867  0.65761  0.10324  1.0000
  H   H2524     1.0  0.71065  0.52007  0.42363  1.0000
  H   H2525     1.0  0.92739  0.63876  0.27688  1.0000
  C   C1431     1.0  0.78166  0.65334  0.13022  1.0000
  C   C1432     1.0  0.72823  0.57252  0.00352  1.0000
  H   H2526     1.0  0.96254  0.65240  0.22887  1.0000
  H   H2527     1.0  0.74875  0.57587  0.46442  1.0000
  H   H2528     1.0  0.84130  0.64288  0.27682  1.0000
  C   C1433     1.0  0.82509  0.67199  0.00239  1.0000
  C   C1434     1.0  0.82786  0.65551  0.23971  1.0000
  H   H2529     1.0  0.87226  0.69527  0.14163  1.0000
  H   H2530     1.0  0.80973  0.67066  0.12502  1.0000
  C   C1435     1.0  0.92641  0.69313  0.19616  1.0000
  S   S324      1.0  0.85730  0.67243  0.03161  1.0000
  C   C1436     1.0  0.62133  0.55937  0.01885  1.0000
  N   N78       1.0  0.72586  0.53873  0.01570  1.0000
  C   C1437     1.0  0.82243  0.64522  0.03916  1.0000
  H   H2531     1.0  0.70950  0.53716  0.39132  1.0000
  C   C1438     1.0  0.83338  0.66236  0.02399  1.0000
  H   H2532     1.0  0.53800  0.70747  0.32805  1.0000
  H   H2533     1.0  0.62592  0.59512  0.02834  1.0000
  H   H2534     1.0  0.50598  0.62052  0.41818  1.0000
  H   H2535     1.0  0.95146  0.63919  0.09919  1.0000
  C   C1439     1.0  0.67660  0.50177  0.33552  1.0000
  Fe  Fe165     1.0  0.64591  0.49951  0.08189  1.0000
  H   H2536     1.0  0.58549  0.69345  0.38596  1.0000
  H   H2537     1.0  0.49347  0.71684  0.06944  1.0000
  H   H2538     1.0  0.96115  0.62227  0.11146  1.0000
  H   H2539     1.0  0.51749  0.64291  0.29994  1.0000
  H   H2540     1.0  0.76576  0.54546  0.02084  1.0000
  H   H2541     1.0  0.49843  0.74428  0.47760  1.0000
  H   H2542     1.0  0.93388  0.71093  0.45983  1.0000
  H   H2543     1.0  0.70883  0.66688  0.48733  1.0000
  H   H2544     1.0  0.90990  0.73585  0.49817  1.0000
  C   C1440     1.0  0.85834  0.58277  0.01634  1.0000
  C   C1441     1.0  0.63770  0.57638  0.00672  1.0000
  H   H2545     1.0  0.76548  0.51357  0.01293  1.0000
  C   C1442     1.0  0.66465  0.60585  0.47103  1.0000
  H   H2546     1.0  0.95404  0.72914  0.47117  1.0000
  C   C1443     1.0  0.73753  0.52705  0.01305  1.0000
  H   H2547     1.0  0.64269  0.62237  0.46449  1.0000
  H   H2548     1.0  0.63581  0.58708  0.46985  1.0000
  C   C1444     1.0  0.64966  0.58647  0.46773  1.0000
  H   H2549     1.0  0.98595  0.71103  0.35836  1.0000
  H   H2550     1.0  0.97259  0.64599  0.12276  1.0000
  C   C1445     1.0  0.77390  0.53792  0.48682  1.0000
  H   H2551     1.0  0.71854  0.57077  0.02643  1.0000
  S   S325      1.0  0.77126  0.63737  0.00468  1.0000
  H   H2552     1.0  0.56450  0.71083  0.00310  1.0000
  C   C1446     1.0  0.74189  0.59228  0.00301  1.0000
  H   H2553     1.0  0.62128  0.64019  0.47708  1.0000
  H   H2554     1.0  0.70578  0.54397  0.48954  1.0000
  H   H2555     1.0  0.98530  0.67770  0.48272  1.0000
  H   H2556     1.0  0.65705  0.52528  0.00302  1.0000
  H   H2557     1.0  0.95920  0.74190  0.40822  1.0000
  H   H2558     1.0  0.73446  0.60194  0.00053  1.0000
  H   H2559     1.0  0.50967  0.73980  0.41832  1.0000
  H   H2560     1.0  0.75072  0.61341  0.48899  1.0000
  C   C1447     1.0  0.73795  0.55840  0.00610  1.0000
  C   C1448     1.0  0.76217  0.60872  0.49497  1.0000
  H   H2561     1.0  0.82723  0.53944  0.49303  1.0000
  C   C1449     1.0  0.54989  0.70486  0.00040  1.0000
  C   C1450     1.0  0.82059  0.60580  0.49507  1.0000
  C   C1451     1.0  0.83720  0.55285  0.49824  1.0000
  Fe  Fe166     1.0  0.71580  0.65770  0.57815  1.0000
  S   S326      1.0  0.70420  0.62850  0.60074  1.0000
  S   S327      1.0  0.69212  0.66878  0.57626  1.0000
  Fe  Fe167     1.0  0.75361  0.65349  0.56191  1.0000
  S   S328      1.0  0.74356  0.62445  0.58445  1.0000
  C   C1452     1.0  0.73395  0.52018  0.87874  1.0000
  Fe  Fe168     1.0  0.71798  0.62037  0.55486  1.0000
  Fe  Fe169     1.0  0.73065  0.63518  0.62903  1.0000
  S   S329      1.0  0.72831  0.62252  0.68559  1.0000
  S   S330      1.0  0.74209  0.66485  0.60855  1.0000
  Fe  Fe170     1.0  0.81019  0.51360  0.56657  1.0000
  S   S331      1.0  0.78737  0.50831  0.60758  1.0000
  S   S332      1.0  0.83333  0.54158  0.57002  1.0000
  Fe  Fe171     1.0  0.71711  0.65577  0.95810  1.0000
  S   S333      1.0  0.70638  0.63728  0.91246  1.0000
  S   S334      1.0  0.70502  0.67721  0.97605  1.0000
  Fe  Fe172     1.0  0.74935  0.64154  0.96889  1.0000
  S   S335      1.0  0.74056  0.62276  0.92242  1.0000
  H   H2562     1.0  0.71551  0.50814  0.83737  1.0000
  Fe  Fe173     1.0  0.73564  0.64614  0.89332  1.0000
  S   S336      1.0  0.74523  0.65937  0.83778  1.0000
  Fe  Fe174     1.0  0.71209  0.61546  0.94570  1.0000
  S   S337      1.0  0.69303  0.58536  0.94609  1.0000
  S   S338      1.0  0.74649  0.66559  0.93815  1.0000
  H   H2563     1.0  0.80010  0.67226  0.97936  1.0000
  H   H2564     1.0  0.76795  0.52448  0.50175  1.0000
  Fe  Fe175     1.0  0.79698  0.51522  0.95218  1.0000
  H   H2565     1.0  0.85608  0.51602  0.64284  1.0000
  S   S339      1.0  0.77750  0.51120  0.90749  1.0000
  H   H2566     1.0  0.87684  0.63998  0.57029  1.0000
  S   S340      1.0  0.60520  0.71904  0.88608  1.0000
  H   H2567     1.0  0.70279  0.52857  0.54287  1.0000
  H   H2568     1.0  0.61340  0.68517  0.61781  1.0000
  S   S341      1.0  0.55626  0.71418  0.92786  1.0000
  H   H2569     1.0  0.87022  0.70803  0.55579  1.0000
  S   S342      1.0  0.61031  0.71818  0.57128  1.0000
  C   C1453     1.0  0.69704  0.70567  0.55972  1.0000
  Fe  Fe176     1.0  0.59778  0.73309  0.53393  1.0000
  C   C1454     1.0  0.54736  0.69671  0.52724  1.0000
  H   H2570     1.0  0.55609  0.69832  0.54984  1.0000
  H   H2571     1.0  0.52411  0.67584  0.55380  1.0000
  H   H2572     1.0  0.60436  0.72438  0.79869  1.0000
  H   H2573     1.0  0.59321  0.71032  0.74071  1.0000
  C   C1455     1.0  0.54245  0.70423  0.96666  1.0000
  H   H2574     1.0  0.85886  0.64292  0.97477  1.0000
  H   H2575     1.0  0.70605  0.49747  0.55082  1.0000
  C   C1456     1.0  0.60148  0.72482  0.74134  1.0000
  N   N79       1.0  0.80943  0.61334  0.92505  1.0000
  H   H2576     1.0  0.69454  0.70780  0.99383  1.0000
  C   C1457     1.0  0.79454  0.49619  0.77970  1.0000
  C   C1458     1.0  0.82293  0.59595  0.88028  1.0000
  H   H2577     1.0  0.86480  0.62306  0.98465  1.0000
  C   C1459     1.0  0.77657  0.56218  0.93226  1.0000
  H   H2578     1.0  0.69437  0.50697  0.93623  1.0000
  H   H2579     1.0  0.84020  0.54368  0.96844  1.0000
  C   C1460     1.0  0.64695  0.60210  0.92547  1.0000
  C   C1461     1.0  0.68642  0.68360  0.96208  1.0000
  C   C1462     1.0  0.68463  0.69964  0.97549  1.0000
  C   C1463     1.0  0.67018  0.70532  0.96539  1.0000
  C   C1464     1.0  0.65708  0.69490  0.94196  1.0000
  C   C1465     1.0  0.65881  0.67876  0.92870  1.0000
  C   C1466     1.0  0.67341  0.67322  0.93845  1.0000
  C   C1467     1.0  0.88992  0.57024  0.66102  1.0000
  Fe  Fe177     1.0  0.79437  0.49810  0.87751  1.0000
  H   H2580     1.0  0.66888  0.73659  0.79832  1.0000
  H   H2581     1.0  0.75200  0.50466  0.67845  1.0000
  H   H2582     1.0  0.66576  0.59978  0.96574  1.0000
  C   C1468     1.0  0.80619  0.66462  0.99599  1.0000
  C   C1469     1.0  0.84607  0.50518  0.78898  1.0000
  H   H2583     1.0  0.78455  0.61580  0.90571  1.0000
  H   H2584     1.0  0.75281  0.50282  0.83893  1.0000
  H   H2585     1.0  0.69361  0.69504  0.68409  1.0000
  C   C1470     1.0  0.68312  0.57059  0.98380  1.0000
  C   C1471     1.0  0.67282  0.55195  0.97842  1.0000
  H   H2586     1.0  0.67096  0.54700  0.95152  1.0000
  H   H2587     1.0  0.74818  0.59135  0.53929  1.0000
  H   H2588     1.0  0.75169  0.59496  0.97994  1.0000
  H   H2589     1.0  0.75857  0.55583  0.53071  1.0000
  H   H2590     1.0  0.79323  0.51916  0.74812  1.0000
  H   H2591     1.0  0.70023  0.73407  0.54860  1.0000
  C   C1472     1.0  0.85547  0.57490  0.53943  1.0000
  H   H2592     1.0  0.87390  0.60080  0.51562  1.0000
  H   H2593     1.0  0.85967  0.57853  0.56638  1.0000
  H   H2594     1.0  0.64509  0.70401  0.63027  1.0000
  C   C1473     1.0  0.68481  0.68776  0.56784  1.0000
  C   C1474     1.0  0.67182  0.71731  0.55722  1.0000
  C   C1475     1.0  0.65956  0.69934  0.56472  1.0000
  C   C1476     1.0  0.66603  0.68474  0.57022  1.0000
  H   H2595     1.0  0.64508  0.69670  0.56638  1.0000
  H   H2596     1.0  0.65639  0.67100  0.57649  1.0000
  C   C1477     1.0  0.73218  0.63334  0.72750  1.0000
  C   C1478     1.0  0.74202  0.65220  0.73032  1.0000
  C   C1479     1.0  0.74581  0.65990  0.76429  1.0000
  C   C1480     1.0  0.73956  0.64897  0.79578  1.0000
  C   C1481     1.0  0.72935  0.63020  0.79299  1.0000
  C   C1482     1.0  0.72584  0.62243  0.75904  1.0000
  H   H2597     1.0  0.74712  0.66073  0.70636  1.0000
  H   H2598     1.0  0.75395  0.67434  0.76619  1.0000
  H   H2599     1.0  0.72446  0.62160  0.81694  1.0000
  H   H2600     1.0  0.71825  0.60782  0.75716  1.0000
  H   H2601     1.0  0.72070  0.57086  0.97833  1.0000
  C   C1483     1.0  0.81265  0.61254  0.52794  1.0000
  S   S343      1.0  0.60682  0.72978  0.97022  1.0000
  H   H2602     1.0  0.86999  0.56603  0.98694  1.0000
  C   C1484     1.0  0.74855  0.54768  0.51144  1.0000
  C   C1485     1.0  0.55765  0.69634  0.83416  1.0000
  H   H2603     1.0  0.65624  0.54761  0.56956  1.0000
  C   C1486     1.0  0.82819  0.54582  0.68806  1.0000
  C   C1487     1.0  0.66458  0.55294  0.54555  1.0000
  H   H2604     1.0  0.85768  0.50121  0.73910  1.0000
  C   C1488     1.0  0.79945  0.59451  0.94222  1.0000
  H   H2605     1.0  0.72706  0.50902  0.89903  1.0000
  H   H2606     1.0  0.75741  0.50944  0.77735  1.0000
  S   S344      1.0  0.79152  0.50173  0.52148  1.0000
  H   H2607     1.0  0.82489  0.60052  0.82236  1.0000
  H   H2608     1.0  0.88734  0.58006  0.67943  1.0000
  S   S345      1.0  0.49529  0.66515  0.50335  1.0000
  H   H2609     1.0  0.51752  0.69534  0.93767  1.0000
  C   C1489     1.0  0.54665  0.72965  0.74735  1.0000
  H   H2610     1.0  0.83171  0.59368  0.90112  1.0000
  H   H2611     1.0  0.72248  0.52941  0.56752  1.0000
  C   C1490     1.0  0.85475  0.51252  0.75210  1.0000
  S   S346      1.0  0.59751  0.72487  0.66872  1.0000
  S   S347      1.0  0.81524  0.50412  0.92074  1.0000
  C   C1491     1.0  0.66102  0.54245  0.51466  1.0000
  H   H2612     1.0  0.89539  0.69827  0.53876  1.0000
  H   H2613     1.0  0.64863  0.64252  0.53596  1.0000
  C   C1492     1.0  0.82444  0.62414  0.94914  1.0000
  H   H2614     1.0  0.79555  0.59580  0.97058  1.0000
  S   S348      1.0  0.63843  0.70130  0.92811  1.0000
  H   H2615     1.0  0.84480  0.63312  0.54781  1.0000
  H   H2616     1.0  0.54225  0.72038  0.69295  1.0000
  Fe  Fe178     1.0  0.58742  0.72674  0.92572  1.0000
  C   C1493     1.0  0.65019  0.72029  0.75926  1.0000
  H   H2617     1.0  0.78804  0.60036  0.61249  1.0000
  H   H2618     1.0  0.80751  0.67004  0.57743  1.0000
  H   H2619     1.0  0.56998  0.71680  0.79319  1.0000
  C   C1494     1.0  0.56541  0.71655  0.82138  1.0000
  H   H2620     1.0  0.81914  0.55343  0.63753  1.0000
  C   C1495     1.0  0.84026  0.61704  0.95423  1.0000
  H   H2621     1.0  0.70316  0.54176  0.98788  1.0000
  H   H2622     1.0  0.87964  0.62853  0.61099  1.0000
  H   H2623     1.0  0.54893  0.72640  0.85512  1.0000
  H   H2624     1.0  0.60582  0.68921  0.66145  1.0000
  H   H2625     1.0  0.87360  0.71058  0.50802  1.0000
  C   C1496     1.0  0.83153  0.66924  0.54909  1.0000
  C   C1497     1.0  0.61746  0.68788  0.64594  1.0000
  S   S349      1.0  0.74289  0.50047  0.56014  1.0000
  N   N80       1.0  0.82029  0.60997  0.56344  1.0000
  H   H2626     1.0  0.82213  0.59241  0.50094  1.0000
  H   H2627     1.0  0.73731  0.52472  0.82200  1.0000
  H   H2628     1.0  0.81170  0.64472  0.88268  1.0000
  C   C1498     1.0  0.83350  0.52998  0.67293  1.0000
  C   C1499     1.0  0.78851  0.65079  0.90095  1.0000
  H   H2629     1.0  0.65287  0.60968  0.62715  1.0000
  C   C1500     1.0  0.95248  0.69191  0.55425  1.0000
  H   H2630     1.0  0.79444  0.66534  0.89088  1.0000
  H   H2631     1.0  0.81274  0.65268  0.92761  1.0000
  H   H2632     1.0  0.83698  0.53291  0.64392  1.0000
  H   H2633     1.0  0.83528  0.60235  0.96305  1.0000
  H   H2634     1.0  0.55247  0.69496  0.86228  1.0000
  S   S350      1.0  0.64258  0.52107  0.51520  1.0000
  C   C1501     1.0  0.91116  0.72235  0.50496  1.0000
  N   N81       1.0  0.71111  0.69676  0.83978  1.0000
  C   C1502     1.0  0.70489  0.71299  0.84060  1.0000
  C   C1503     1.0  0.72217  0.69799  0.80568  1.0000
  C   C1504     1.0  0.69420  0.67953  0.83859  1.0000
  C   C1505     1.0  0.72178  0.69530  0.87217  1.0000
  C   C1506     1.0  0.73366  0.71368  0.88892  1.0000
  C   C1507     1.0  0.69060  0.71195  0.87063  1.0000
  C   C1508     1.0  0.69745  0.66135  0.83189  1.0000
  C   C1509     1.0  0.73991  0.71507  0.80006  1.0000
  C   C1510     1.0  0.74794  0.71605  0.76218  1.0000
  C   C1511     1.0  0.74666  0.71069  0.91595  1.0000
  S   S351      1.0  0.70784  0.59874  0.51265  1.0000
  C   C1512     1.0  0.68002  0.64452  0.83892  1.0000
  H   H2635     1.0  0.69873  0.71454  0.81475  1.0000
  C   C1513     1.0  0.51407  0.73113  0.50928  1.0000
  H   H2636     1.0  0.72673  0.68604  0.80415  1.0000
  H   H2637     1.0  0.71349  0.69722  0.78215  1.0000
  H   H2638     1.0  0.68504  0.68107  0.81741  1.0000
  H   H2639     1.0  0.68614  0.67733  0.86420  1.0000
  H   H2640     1.0  0.71251  0.68699  0.89429  1.0000
  H   H2641     1.0  0.73078  0.68747  0.86573  1.0000
  H   H2642     1.0  0.72486  0.71980  0.90332  1.0000
  H   H2643     1.0  0.74197  0.72403  0.86867  1.0000
  H   H2644     1.0  0.67687  0.70249  0.86315  1.0000
  H   H2645     1.0  0.69398  0.70667  0.89618  1.0000
  H   H2646     1.0  0.70812  0.66004  0.84933  1.0000
  H   H2647     1.0  0.70185  0.66096  0.80362  1.0000
  H   H2648     1.0  0.84278  0.51595  0.80344  1.0000
  H   H2649     1.0  0.82831  0.50811  0.72981  1.0000
  C   C1514     1.0  0.48650  0.71026  0.54028  1.0000
  C   C1515     1.0  0.51056  0.73383  0.94754  1.0000
  C   C1516     1.0  0.73775  0.49713  0.83541  1.0000
  H   H2650     1.0  0.73888  0.70117  0.93810  1.0000
  H   H2651     1.0  0.75614  0.70494  0.90285  1.0000
  H   H2652     1.0  0.75485  0.72403  0.92754  1.0000
  H   H2653     1.0  0.49088  0.69897  0.53091  1.0000
  C   C1517     1.0  0.85749  0.56781  0.99520  1.0000
  C   C1518     1.0  0.65950  0.60627  0.53539  1.0000
  H   H2654     1.0  0.67522  0.64375  0.86723  1.0000
  H   H2655     1.0  0.66911  0.64512  0.82114  1.0000
  H   H2656     1.0  0.68282  0.63181  0.83346  1.0000
  H   H2657     1.0  0.82869  0.62547  0.88115  1.0000
  H   H2658     1.0  0.52760  0.74021  0.80261  1.0000
  C   C1519     1.0  0.79133  0.55752  0.58260  1.0000
  H   H2659     1.0  0.64307  0.57314  0.98116  1.0000
  H   H2660     1.0  0.84839  0.61893  0.92888  1.0000
  H   H2661     1.0  0.66692  0.62859  0.57400  1.0000
  C   C1520     1.0  0.83919  0.66651  0.51636  1.0000
  H   H2662     1.0  0.63925  0.69739  0.70065  1.0000
  H   H2663     1.0  0.81854  0.62500  0.97602  1.0000
  H   H2664     1.0  0.74186  0.52649  0.98467  1.0000
  C   C1521     1.0  0.84193  0.51931  0.72959  1.0000
  S   S352      1.0  0.66464  0.73656  0.55141  1.0000
  H   H2665     1.0  0.78052  0.65033  0.92600  1.0000
  H   H2666     1.0  0.71151  0.70830  0.55773  1.0000
  C   C1522     1.0  0.69058  0.72029  0.55458  1.0000
  H   H2667     1.0  0.78296  0.58492  0.89428  1.0000
  H   H2668     1.0  0.78903  0.50303  0.69066  1.0000
  H   H2669     1.0  0.87690  0.53942  0.70369  1.0000
  H   H2670     1.0  0.54638  0.68832  0.81702  1.0000
  H   H2671     1.0  0.71653  0.72613  0.84303  1.0000
  C   C1523     1.0  0.74285  0.50189  0.77095  1.0000
  H   H2672     1.0  0.73841  0.71775  0.74211  1.0000
  H   H2673     1.0  0.83979  0.53047  0.74490  1.0000
  H   H2674     1.0  0.92536  0.69552  0.51448  1.0000
  C   C1524     1.0  0.63418  0.70562  0.64716  1.0000
  H   H2675     1.0  0.71787  0.53436  0.96083  1.0000
  C   C1525     1.0  0.86348  0.58760  0.51082  1.0000
  C   C1526     1.0  0.52925  0.68397  0.52939  1.0000
  H   H2676     1.0  0.68638  0.73684  0.85180  1.0000
  C   C1527     1.0  0.67898  0.57017  0.54570  1.0000
  H   H2677     1.0  0.81513  0.62739  0.52257  1.0000
  H   H2678     1.0  0.54157  0.73013  0.55300  1.0000
  C   C1528     1.0  0.68936  0.73078  0.87694  1.0000
  H   H2679     1.0  0.92610  0.70652  0.55534  1.0000
  C   C1529     1.0  0.78169  0.58275  0.92374  1.0000
  S   S353      1.0  0.72824  0.64897  0.53054  1.0000
  C   C1530     1.0  0.81297  0.66730  0.55239  1.0000
  C   C1531     1.0  0.79322  0.61420  0.59899  1.0000
  H   H2680     1.0  0.64782  0.59298  0.53444  1.0000
  H   H2681     1.0  0.67185  0.60272  0.53945  1.0000
  C   C1532     1.0  0.86548  0.54301  0.69298  1.0000
  H   H2682     1.0  0.81085  0.58304  0.87903  1.0000
  S   S354      1.0  0.77903  0.66274  0.52394  1.0000
  H   H2683     1.0  0.66912  0.71771  0.97593  1.0000
  H   H2684     1.0  0.90370  0.71886  0.56324  1.0000
  H   H2685     1.0  0.53301  0.73076  0.74949  1.0000
  C   C1533     1.0  0.84239  0.55741  0.53327  1.0000
  C   C1534     1.0  0.75500  0.58975  0.51404  1.0000
  H   H2686     1.0  0.96015  0.71049  0.50880  1.0000
  C   C1535     1.0  0.71362  0.53717  0.56023  1.0000
  C   C1536     1.0  0.60600  0.73546  0.70924  1.0000
  H   H2687     1.0  0.82536  0.58430  0.56366  1.0000
  H   H2688     1.0  0.86784  0.52397  0.75618  1.0000
  C   C1537     1.0  0.65398  0.73038  0.79437  1.0000
  C   C1538     1.0  0.70420  0.53973  0.59472  1.0000
  C   C1539     1.0  0.65468  0.60268  0.60267  1.0000
  H   H2689     1.0  0.61590  0.64480  0.97920  1.0000
  C   C1540     1.0  0.53468  0.73564  0.57355  1.0000
  H   H2690     1.0  0.76314  0.55435  0.92104  1.0000
  H   H2691     1.0  0.73767  0.72814  0.80391  1.0000
  H   H2692     1.0  0.73552  0.56322  0.56141  1.0000
  Fe  Fe179     1.0  0.62593  0.72418  0.92949  1.0000
  H   H2693     1.0  0.54112  0.71936  0.61580  1.0000
  H   H2694     1.0  0.89466  0.57743  0.63463  1.0000
  H   H2695     1.0  0.75030  0.71405  0.81879  1.0000
  C   C1541     1.0  0.65825  0.60906  0.95919  1.0000
  H   H2696     1.0  0.53783  0.71641  0.81618  1.0000
  C   C1542     1.0  0.55235  0.73148  0.70776  1.0000
  C   C1543     1.0  0.93278  0.70850  0.52843  1.0000
  H   H2697     1.0  0.98578  0.65931  0.99279  1.0000
  H   H2698     1.0  0.68617  0.72796  0.70196  1.0000
  N   N82       1.0  0.65843  0.72532  0.69106  1.0000
  S   S355      1.0  0.72075  0.63323  0.99314  1.0000
  C   C1544     1.0  0.81525  0.58991  0.57480  1.0000
  H   H2699     1.0  0.69456  0.54684  0.58893  1.0000
  C   C1545     1.0  0.67817  0.70977  0.65750  1.0000
  H   H2700     1.0  0.68179  0.57797  0.56977  1.0000
  C   C1546     1.0  0.81382  0.54940  0.66542  1.0000
  C   C1547     1.0  0.85325  0.62798  0.98230  1.0000
  H   H2701     1.0  0.79250  0.64114  0.61157  1.0000
  H   H2702     1.0  0.69635  0.52604  0.60752  1.0000
  H   H2703     1.0  0.71440  0.54788  0.61376  1.0000
  H   H2704     1.0  0.77161  0.61896  0.51244  1.0000
  H   H2705     1.0  0.54541  0.71564  0.75694  1.0000
  C   C1548     1.0  0.78892  0.62724  0.62446  1.0000
  H   H2706     1.0  0.83704  0.58649  0.83931  1.0000
  H   H2707     1.0  0.84006  0.67309  0.57202  1.0000
  H   H2708     1.0  0.75074  0.70336  0.75670  1.0000
  H   H2709     1.0  0.72852  0.53140  0.88213  1.0000
  H   H2710     1.0  0.71597  0.56420  0.53959  1.0000
  C   C1549     1.0  0.68967  0.57719  0.51464  1.0000
  H   H2711     1.0  0.66989  0.70592  0.71253  1.0000
  H   H2712     1.0  0.51897  0.71956  0.50530  1.0000
  N   N83       1.0  0.73387  0.55560  0.50586  1.0000
  H   H2713     1.0  0.83120  0.63857  0.93889  1.0000
  H   H2714     1.0  0.80843  0.58635  0.94419  1.0000
  H   H2715     1.0  0.81934  0.63526  0.58402  1.0000
  H   H2716     1.0  0.90092  0.56594  0.67162  1.0000
  H   H2717     1.0  0.78521  0.58148  0.56952  1.0000
  C   C1550     1.0  0.66217  0.74030  0.66229  1.0000
  C   C1551     1.0  0.80183  0.66290  0.52276  1.0000
  H   H2718     1.0  0.53607  0.73894  0.63132  1.0000
  H   H2719     1.0  0.52538  0.73010  0.99204  1.0000
  C   C1552     1.0  0.67341  0.71749  0.69244  1.0000
  H   H2720     1.0  0.86232  0.55855  0.64472  1.0000
  C   C1553     1.0  0.52342  0.69611  0.96367  1.0000
  H   H2721     1.0  0.76685  0.58589  0.52034  1.0000
  H   H2722     1.0  0.62953  0.62111  0.96159  1.0000
  H   H2723     1.0  0.67108  0.60908  0.89001  1.0000
  H   H2724     1.0  0.74337  0.51939  0.70354  1.0000
  C   C1554     1.0  0.64007  0.71031  0.68605  1.0000
  H   H2725     1.0  0.82082  0.51758  0.67385  1.0000
  H   H2726     1.0  0.62108  0.59051  0.98314  1.0000
  H   H2727     1.0  0.64881  0.67056  0.91058  1.0000
  H   H2728     1.0  0.76564  0.51869  0.71241  1.0000
  C   C1555     1.0  0.79050  0.49605  0.71506  1.0000
  H   H2729     1.0  0.87574  0.54450  0.63713  1.0000
  C   C1556     1.0  0.81690  0.61252  0.88786  1.0000
  H   H2730     1.0  0.81029  0.56079  0.67669  1.0000
  H   H2731     1.0  0.80662  0.61204  0.86749  1.0000
  H   H2732     1.0  0.80122  0.53691  0.66528  1.0000
  C   C1557     1.0  0.87252  0.55349  0.65658  1.0000
  C   C1558     1.0  0.79273  0.50510  0.74769  1.0000
  C   C1559     1.0  0.49615  0.74316  0.55129  1.0000
  N   N84       1.0  0.50294  0.72774  0.54384  1.0000
  Fe  Fe180     1.0  0.60748  0.73751  0.61304  1.0000
  H   H2733     1.0  0.79765  0.60582  0.52828  1.0000
  H   H2734     1.0  0.64264  0.61712  0.56859  1.0000
  H   H2735     1.0  0.67753  0.64352  0.52320  1.0000
  C   C1560     1.0  0.87981  0.71587  0.53382  1.0000
  C   C1561     1.0  0.51382  0.72457  0.57450  1.0000
  C   C1562     1.0  0.65823  0.59728  0.89641  1.0000
  H   H2736     1.0  0.82234  0.54224  0.71565  1.0000
  H   H2737     1.0  0.63719  0.66035  0.99580  1.0000
  H   H2738     1.0  0.65639  0.70962  0.76064  1.0000
  H   H2739     1.0  0.67860  0.51711  0.95370  1.0000
  H   H2740     1.0  0.52666  0.74352  0.51031  1.0000
  H   H2741     1.0  0.66703  0.69674  0.65135  1.0000
  H   H2742     1.0  0.67454  0.66087  0.92786  1.0000
  H   H2743     1.0  0.51271  0.70985  0.57606  1.0000
  H   H2744     1.0  0.64288  0.58952  0.60106  1.0000
  N   N85       1.0  0.84848  0.52597  0.69180  1.0000
  C   C1563     1.0  0.85301  0.51159  0.67150  1.0000
  H   H2745     1.0  0.79029  0.55872  0.61197  1.0000
  H   H2746     1.0  0.49788  0.72316  0.95895  1.0000
  C   C1564     1.0  0.79632  0.57638  0.56366  1.0000
  H   H2747     1.0  0.64758  0.72060  0.81716  1.0000
  H   H2748     1.0  0.79649  0.62838  0.64954  1.0000
  S   S356      1.0  0.79876  0.50883  0.81931  1.0000
  C   C1565     1.0  0.73044  0.51295  0.84096  1.0000
  H   H2749     1.0  0.78562  0.61406  0.57436  1.0000
  H   H2750     1.0  0.77796  0.54800  0.57364  1.0000
  H   H2751     1.0  0.74880  0.52578  0.88346  1.0000
  H   H2752     1.0  0.50795  0.72703  0.60037  1.0000
  H   H2753     1.0  0.62057  0.67600  0.65691  1.0000
  H   H2754     1.0  0.62896  0.71425  0.69805  1.0000
  H   H2755     1.0  0.73642  0.51247  0.76917  1.0000
  H   H2756     1.0  0.77926  0.64261  0.88052  1.0000
  H   H2757     1.0  0.65052  0.63850  0.97066  1.0000
  N   N86       1.0  0.93104  0.72474  0.50798  1.0000
  H   H2758     1.0  0.84618  0.61104  0.84486  1.0000
  C   C1566     1.0  0.83339  0.59875  0.84445  1.0000
  H   H2759     1.0  0.87547  0.61628  0.57007  1.0000
  H   H2760     1.0  0.78691  0.55718  0.92032  1.0000
  C   C1567     1.0  0.79603  0.62322  0.92302  1.0000
  H   H2761     1.0  0.68071  0.71972  0.63455  1.0000
  C   C1568     1.0  0.51189  0.68908  0.99417  1.0000
  C   C1569     1.0  0.55113  0.72587  0.82579  1.0000
  H   H2762     1.0  0.86352  0.55291  0.71212  1.0000
  C   C1570     1.0  0.81402  0.62026  0.59135  1.0000
  C   C1571     1.0  0.85163  0.62010  0.59413  1.0000
  C   C1572     1.0  0.72504  0.55608  0.54191  1.0000
  H   H2763     1.0  0.76099  0.72801  0.75918  1.0000
  C   C1573     1.0  0.94173  0.74285  0.52424  1.0000
  H   H2764     1.0  0.77410  0.62191  0.63157  1.0000
  C   C1574     1.0  0.87213  0.62662  0.58574  1.0000
  C   C1575     1.0  0.80378  0.64348  0.90809  1.0000
  C   C1576     1.0  0.69710  0.51301  0.99283  1.0000
  H   H2765     1.0  0.81975  0.61892  0.61768  1.0000
  C   C1577     1.0  0.95251  0.70933  0.53443  1.0000
  H   H2766     1.0  0.63477  0.58956  0.93146  1.0000
  H   H2767     1.0  0.70736  0.71784  0.66615  1.0000
  H   H2768     1.0  0.57748  0.72370  0.83742  1.0000
  H   H2769     1.0  0.81607  0.58853  0.60432  1.0000
  C   C1578     1.0  0.65591  0.61518  0.56979  1.0000
  H   H2770     1.0  0.56586  0.73013  0.70419  1.0000
  H   H2771     1.0  0.63057  0.71695  0.63498  1.0000
  S   S357      1.0  0.80273  0.54193  0.98203  1.0000
  H   H2772     1.0  0.84737  0.60651  0.60858  1.0000
  H   H2773     1.0  0.84949  0.63034  0.61203  1.0000
  H   H2774     1.0  0.55749  0.74240  0.60908  1.0000
  H   H2775     1.0  0.96006  0.72124  0.55070  1.0000
  H   H2776     1.0  0.56854  0.69042  0.83270  1.0000
  H   H2777     1.0  0.51682  0.72723  0.92793  1.0000
  C   C1579     1.0  0.71136  0.53277  0.98806  1.0000
  H   H2778     1.0  0.78970  0.62323  0.94993  1.0000
  C   C1580     1.0  0.69539  0.70517  0.66159  1.0000
  H   H2779     1.0  0.64242  0.61299  0.91411  1.0000
  H   H2780     1.0  0.70230  0.74031  0.88760  1.0000
  H   H2781     1.0  0.74255  0.53367  0.52409  1.0000
  H   H2782     1.0  0.66158  0.58518  0.90525  1.0000
  H   H2783     1.0  0.96673  0.69263  0.55727  1.0000
  C   C1581     1.0  0.68565  0.50737  0.95967  1.0000
  H   H2784     1.0  0.86570  0.51015  0.68135  1.0000
  C   C1582     1.0  0.65767  0.73392  0.72658  1.0000
  H   H2785     1.0  0.65031  0.59373  0.87172  1.0000
  S   S358      1.0  0.86278  0.66938  0.51386  1.0000
  C   C1583     1.0  0.60763  0.73278  0.77427  1.0000
  H   H2786     1.0  0.77575  0.55946  0.96159  1.0000
  H   H2787     1.0  0.93640  0.73327  0.58097  1.0000
  H   H2788     1.0  0.66732  0.59955  0.60503  1.0000
  H   H2789     1.0  0.84010  0.55890  0.68844  1.0000
  H   H2790     1.0  0.74527  0.55914  0.98000  1.0000
  C   C1584     1.0  0.84083  0.61885  0.55951  1.0000
  H   H2791     1.0  0.66909  0.62240  0.95089  1.0000
  H   H2792     1.0  0.63518  0.71320  0.75784  1.0000
  H   H2793     1.0  0.94588  0.69053  0.58122  1.0000
  H   H2794     1.0  0.88162  0.73065  0.53532  1.0000
  H   H2795     1.0  0.78441  0.54768  0.50313  1.0000
  H   H2796     1.0  0.80170  0.55139  0.57618  1.0000
  C   C1585     1.0  0.63979  0.62592  0.98266  1.0000
  H   H2797     1.0  0.84627  0.61128  0.54030  1.0000
  H   H2798     1.0  0.66211  0.73485  0.63518  1.0000
  H   H2799     1.0  0.49729  0.68292  0.99151  1.0000
  H   H2800     1.0  0.79654  0.57436  0.53452  1.0000
  H   H2801     1.0  0.53201  0.74253  0.86890  1.0000
  C   C1586     1.0  0.54275  0.73392  0.60967  1.0000
  C   C1587     1.0  0.75150  0.51034  0.70523  1.0000
  H   H2802     1.0  0.69821  0.69899  0.63684  1.0000
  C   C1588     1.0  0.84061  0.55511  0.98467  1.0000
  H   H2803     1.0  0.83335  0.68529  0.99054  1.0000
  H   H2804     1.0  0.94513  0.67950  0.53895  1.0000
  H   H2805     1.0  0.67817  0.72925  0.89682  1.0000
  C   C1589     1.0  0.89809  0.71331  0.53743  1.0000
  H   H2806     1.0  0.77023  0.58678  0.93326  1.0000
  H   H2807     1.0  0.48851  0.74062  0.57739  1.0000
  H   H2808     1.0  0.67144  0.74356  0.73341  1.0000
  C   C1590     1.0  0.82435  0.55726  0.99514  1.0000
  H   H2809     1.0  0.61556  0.63051  0.52226  1.0000
  Fe  Fe181     1.0  0.63715  0.74077  0.55739  1.0000
  H   H2810     1.0  0.85566  0.50094  0.80515  1.0000
  N   N87       1.0  0.64769  0.61139  0.99162  1.0000
  H   H2811     1.0  0.68454  0.63770  0.99564  1.0000
  H   H2812     1.0  0.64895  0.74248  0.72496  1.0000
  C   C1591     1.0  0.52361  0.74189  0.97758  1.0000
  H   H2813     1.0  0.57435  0.74349  0.76467  1.0000
  H   H2814     1.0  0.64827  0.74148  0.79440  1.0000
  H   H2815     1.0  0.48602  0.74349  0.53134  1.0000
  H   H2816     1.0  0.62606  0.65509  0.51461  1.0000
  H   H2817     1.0  0.63253  0.61053  0.50478  1.0000
  H   H2818     1.0  0.70357  0.50277  0.99740  1.0000
  C   C1592     1.0  0.51785  0.68154  0.50004  1.0000
  H   H2819     1.0  0.69049  0.63041  0.51044  1.0000
  C   C1593     1.0  0.64459  0.64040  0.50784  1.0000
  H   H2820     1.0  0.61051  0.55615  0.99881  1.0000
  C   C1594     1.0  0.67881  0.63432  0.50216  1.0000
  H   H2821     1.0  0.56417  0.74362  0.99909  1.0000
  N   N88       1.0  0.66174  0.61738  0.50080  1.0000
  C   C1595     1.0  0.62567  0.64152  0.50521  1.0000
  Fe  Fe182     1.0  0.62853  0.92564  0.05421  1.0000
  S   S359      1.0  0.60017  0.91372  0.07935  1.0000
  S   S360      1.0  0.63894  0.95764  0.05671  1.0000
  Fe  Fe183     1.0  0.62599  0.88590  0.03323  1.0000
  S   S361      1.0  0.59794  0.87241  0.05776  1.0000
  H   H2822     1.0  0.63250  0.80772  0.20403  1.0000
  Fe  Fe184     1.0  0.59190  0.89573  0.03194  1.0000
  C   C1596     1.0  0.64833  0.84101  0.08719  1.0000
  Fe  Fe185     1.0  0.60885  0.89157  0.10305  1.0000
  S   S362      1.0  0.60031  0.88010  0.15966  1.0000
  S   S363      1.0  0.63758  0.90387  0.08052  1.0000
  H   H2823     1.0  0.68482  0.83327  0.04425  1.0000
  Fe  Fe186     1.0  0.63285  0.93105  0.42742  1.0000
  S   S364      1.0  0.61180  0.92451  0.38496  1.0000
  S   S365      1.0  0.64381  0.96029  0.45044  1.0000
  Fe  Fe187     1.0  0.63218  0.89076  0.42959  1.0000
  S   S366      1.0  0.61203  0.88235  0.38577  1.0000
  H   H2824     1.0  0.61634  0.84008  0.39412  1.0000
  Fe  Fe188     1.0  0.62803  0.90958  0.35830  1.0000
  S   S367      1.0  0.63923  0.91660  0.30086  1.0000
  Fe  Fe189     1.0  0.59731  0.89773  0.41617  1.0000
  S   S368      1.0  0.56620  0.88441  0.41882  1.0000
  S   S369      1.0  0.64961  0.91703  0.39968  1.0000
  S   S370      1.0  0.61692  0.90519  0.46129  1.0000
  H   H2825     1.0  0.94106  0.74661  0.38647  1.0000
  H   H2826     1.0  0.94079  0.75267  0.45074  1.0000
  C   C1597     1.0  0.62530  0.95203  0.25643  1.0000
  H   H2827     1.0  0.58005  0.81593  0.12043  1.0000
  H   H2828     1.0  0.58475  0.91171  0.19500  1.0000
  H   H2829     1.0  0.57185  0.88093  0.49542  1.0000
  C   C1598     1.0  0.57359  0.94743  0.05602  1.0000
  C   C1599     1.0  0.61128  0.89046  0.19863  1.0000
  C   C1600     1.0  0.60242  0.88453  0.23214  1.0000
  C   C1601     1.0  0.61076  0.89235  0.26378  1.0000
  C   C1602     1.0  0.62821  0.90595  0.26217  1.0000
  C   C1603     1.0  0.63719  0.91166  0.22870  1.0000
  C   C1604     1.0  0.62869  0.90415  0.19701  1.0000
  H   H2830     1.0  0.58896  0.87392  0.23365  1.0000
  H   H2831     1.0  0.60371  0.88783  0.28940  1.0000
  H   H2832     1.0  0.65081  0.92195  0.22739  1.0000
  H   H2833     1.0  0.63560  0.90895  0.17140  1.0000
  C   C1605     1.0  0.54405  0.85830  0.01617  1.0000
  C   C1606     1.0  0.54697  0.80598  0.47903  1.0000
  H   H2834     1.0  0.67126  0.86903  0.12445  1.0000
  H   H2835     1.0  0.65444  0.81479  0.13273  1.0000
  H   H2836     1.0  0.64429  0.94315  0.13887  1.0000
  H   H2837     1.0  0.67481  0.83986  0.10376  1.0000
  C   C1607     1.0  0.65337  0.95685  0.14755  1.0000
  C   C1608     1.0  0.64738  0.83753  0.15436  1.0000
  H   H2838     1.0  0.57218  0.93329  0.06531  1.0000
  C   C1609     1.0  0.66089  0.98251  0.43905  1.0000
  C   C1610     1.0  0.59085  0.82986  0.11810  1.0000
  C   C1611     1.0  0.67536  0.98252  0.05363  1.0000
  C   C1612     1.0  0.65683  0.98004  0.05606  1.0000
  H   H2839     1.0  0.58818  0.83848  0.13913  1.0000
  H   H2840     1.0  0.50178  0.76629  0.07568  1.0000
  C   C1613     1.0  0.51601  0.80895  0.47246  1.0000
  H   H2841     1.0  0.51089  0.79846  0.06752  1.0000
  H   H2842     1.0  0.62064  0.94707  0.31360  1.0000
  H   H2843     1.0  0.59803  0.81893  0.38458  1.0000
  H   H2844     1.0  0.61730  0.93232  0.19389  1.0000
  H   H2845     1.0  0.65288  0.96744  0.12783  1.0000
  H   H2846     1.0  0.59123  0.93069  0.00718  1.0000
  C   C1614     1.0  0.61824  0.83158  0.01955  1.0000
  H   H2847     1.0  0.50500  0.79064  0.11325  1.0000
  C   C1615     1.0  0.67495  0.98506  0.41352  1.0000
  H   H2848     1.0  0.58345  0.91958  0.14967  1.0000
  H   H2849     1.0  0.63871  0.95046  0.25848  1.0000
  H   H2850     1.0  0.67561  0.94721  0.43598  1.0000
  H   H2851     1.0  0.54300  0.79355  0.46258  1.0000
  H   H2852     1.0  0.66961  0.95091  0.49660  1.0000
  H   H2853     1.0  0.63040  0.97109  0.30029  1.0000
  H   H2854     1.0  0.65230  0.87085  0.18144  1.0000
  H   H2855     1.0  0.53844  0.81962  0.43452  1.0000
  H   H2856     1.0  0.51061  0.79450  0.46365  1.0000
  H   H2857     1.0  0.62308  0.85606  0.09935  1.0000
  H   H2858     1.0  0.55337  0.85825  0.03695  1.0000
  H   H2859     1.0  0.56071  0.94690  0.04366  1.0000
  C   C1616     1.0  0.67282  0.95693  0.14654  1.0000
  H   H2860     1.0  0.52762  0.86450  0.42320  1.0000
  H   H2861     1.0  0.58226  0.76129  0.47215  1.0000
  H   H2862     1.0  0.56752  0.92095  0.18374  1.0000
  C   C1617     1.0  0.60136  0.83256  0.39679  1.0000
  H   H2863     1.0  0.56569  0.76648  0.06576  1.0000
  H   H2864     1.0  0.65834  0.97342  0.19490  1.0000
  C   C1618     1.0  0.58249  0.77253  0.49001  1.0000
  H   H2865     1.0  0.64840  0.94939  0.20318  1.0000
  H   H2866     1.0  0.59107  0.95170  0.17043  1.0000
  H   H2867     1.0  0.56735  0.80643  0.00309  1.0000
  S   S371      1.0  0.61959  0.90878  0.00495  1.0000
  C   C1619     1.0  0.66942  0.89725  0.15878  1.0000
  H   H2868     1.0  0.61368  0.97025  0.22977  1.0000
  H   H2869     1.0  0.66269  0.81637  0.05645  1.0000
  H   H2870     1.0  0.61606  0.94133  0.15078  1.0000
  H   H2871     1.0  0.54128  0.83179  0.47530  1.0000
  H   H2872     1.0  0.50872  0.81679  0.45829  1.0000
  C   C1620     1.0  0.54686  0.77825  0.01001  1.0000
  H   H2873     1.0  0.57591  0.95630  0.07954  1.0000
  C   C1621     1.0  0.55755  0.87389  0.49051  1.0000
  C   C1622     1.0  0.53649  0.81793  0.46404  1.0000
  H   H2874     1.0  0.62178  0.85397  0.14680  1.0000
  C   C1623     1.0  0.58188  0.92229  0.17828  1.0000
  H   H2875     1.0  0.63794  0.99425  0.05985  1.0000
  H   H2876     1.0  0.60901  0.82094  0.14829  1.0000
  H   H2877     1.0  0.60259  0.82182  0.44935  1.0000
  H   H2878     1.0  0.59687  0.78009  0.49703  1.0000
  H   H2879     1.0  0.70228  0.93010  0.46646  1.0000
  H   H2880     1.0  0.67931  0.97063  0.05167  1.0000
  C   C1624     1.0  0.55131  0.87367  0.45577  1.0000
  H   H2881     1.0  0.61151  0.81996  0.10032  1.0000
  H   H2882     1.0  0.56924  0.80947  0.42305  1.0000
  H   H2883     1.0  0.54289  0.79708  0.07113  1.0000
  H   H2884     1.0  0.55940  0.81922  0.05681  1.0000
  H   H2885     1.0  0.50491  0.77048  0.01801  1.0000
  H   H2886     1.0  0.65470  0.92896  0.48503  1.0000
  H   H2887     1.0  0.59446  0.84064  0.38214  1.0000
  H   H2888     1.0  0.63972  0.82634  0.08413  1.0000
  H   H2889     1.0  0.65695  0.81362  0.19912  1.0000
  C   C1625     1.0  0.59552  0.83016  0.43631  1.0000
  C   C1626     1.0  0.62042  0.95751  0.29304  1.0000
  H   H2890     1.0  0.63050  0.80931  0.13772  1.0000
  C   C1627     1.0  0.63664  0.85043  0.47760  1.0000
  H   H2891     1.0  0.68491  0.89447  0.47792  1.0000
  C   C1628     1.0  0.64184  0.83522  0.47136  1.0000
  H   H2892     1.0  0.60041  0.84404  0.44787  1.0000
  C   C1629     1.0  0.54974  0.80592  0.04744  1.0000
  H   H2893     1.0  0.63902  0.83892  0.17775  1.0000
  C   C1630     1.0  0.57448  0.82119  0.44125  1.0000
  H   H2894     1.0  0.70086  0.96201  0.39236  1.0000
  H   H2895     1.0  0.67402  0.94621  0.16542  1.0000
  C   C1631     1.0  0.64369  0.80707  0.18612  1.0000
  C   C1632     1.0  0.59472  0.94163  0.18709  1.0000
  C   C1633     1.0  0.64765  0.96072  0.18549  1.0000
  C   C1634     1.0  0.57464  0.78543  0.47084  1.0000
  H   H2896     1.0  0.60547  0.80317  0.03770  1.0000
  H   H2897     1.0  0.67639  0.95392  0.11913  1.0000
  H   H2898     1.0  0.66378  0.98936  0.29815  1.0000
  C   C1635     1.0  0.68952  0.94820  0.44324  1.0000
  H   H2899     1.0  0.62630  0.97243  0.13595  1.0000
  C   C1636     1.0  0.62743  0.97690  0.16416  1.0000
  H   H2900     1.0  0.58288  0.79046  0.44572  1.0000
  H   H2901     1.0  0.64111  0.88189  0.15228  1.0000
  C   C1637     1.0  0.56009  0.79652  0.02511  1.0000
  C   C1638     1.0  0.55891  0.75270  0.01496  1.0000
  N   N89       1.0  0.64427  0.84807  0.12227  1.0000
  C   C1639     1.0  0.68842  0.93088  0.46612  1.0000
  H   H2902     1.0  0.59003  0.83599  0.09145  1.0000
  C   C1640     1.0  0.53260  0.86464  0.44995  1.0000
  H   H2903     1.0  0.61450  0.97915  0.17026  1.0000
  H   H2904     1.0  0.68005  0.91903  0.45020  1.0000
  H   H2905     1.0  0.63749  0.97951  0.23453  1.0000
  H   H2906     1.0  0.71487  0.95132  0.41423  1.0000
  H   H2907     1.0  0.61157  0.83673  0.03989  1.0000
  H   H2908     1.0  0.52006  0.82464  0.10681  1.0000
  H   H2909     1.0  0.68265  0.97067  0.15345  1.0000
  C   C1641     1.0  0.62621  0.96682  0.22708  1.0000
  H   H2910     1.0  0.60651  0.95808  0.29332  1.0000
  N   N90       1.0  0.62905  0.96207  0.18910  1.0000
  H   H2911     1.0  0.57053  0.79433  0.04199  1.0000
  H   H2912     1.0  0.53789  0.77002  0.03251  1.0000
  C   C1642     1.0  0.50160  0.79801  0.09030  1.0000
  H   H2913     1.0  0.59206  0.94361  0.21559  1.0000
  H   H2914     1.0  0.65027  0.83549  0.44799  1.0000
  H   H2915     1.0  0.56916  0.83174  0.43076  1.0000
  H   H2916     1.0  0.61491  0.93838  0.25105  1.0000
  H   H2917     1.0  0.67527  0.97345  0.39872  1.0000
  H   H2918     1.0  0.64470  0.84854  0.06482  1.0000
  H   H2919     1.0  0.64154  0.79235  0.18217  1.0000
  H   H2920     1.0  0.64052  0.80813  0.49002  1.0000
  C   C1643     1.0  0.61488  0.94386  0.17970  1.0000
  S   S372      1.0  0.64545  0.87047  0.44875  1.0000
  H   H2921     1.0  0.66177  0.84368  0.16286  1.0000
  C   C1644     1.0  0.64368  0.81668  0.15004  1.0000
  N   N91       1.0  0.56744  0.81522  0.47904  1.0000
  C   C1645     1.0  0.62488  0.84761  0.12246  1.0000
  H   H2922     1.0  0.50192  0.82584  0.07946  1.0000
  H   H2923     1.0  0.67079  0.90599  0.13418  1.0000
  H   H2924     1.0  0.66676  0.90467  0.18191  1.0000
  H   H2925     1.0  0.52464  0.83134  0.03123  1.0000
  H   H2926     1.0  0.69434  0.93732  0.39248  1.0000
  C   C1646     1.0  0.65680  0.86802  0.12365  1.0000
  C   C1647     1.0  0.70060  0.94974  0.40849  1.0000
  H   H2927     1.0  0.59068  0.96935  0.02045  1.0000
  C   C1648     1.0  0.57217  0.76043  0.04551  1.0000
  C   C1649     1.0  0.52026  0.85577  0.47841  1.0000
  H   H2928     1.0  0.50594  0.84884  0.47348  1.0000
  C   C1650     1.0  0.60955  0.82835  0.12234  1.0000
  H   H2929     1.0  0.50285  0.79272  0.01268  1.0000
  C   C1651     1.0  0.67024  0.83117  0.04940  1.0000
  C   C1652     1.0  0.58963  0.95528  0.02917  1.0000
  C   C1653     1.0  0.52772  0.84305  0.01292  1.0000
  H   H2930     1.0  0.56048  0.77714  0.46391  1.0000
  H   H2931     1.0  0.68243  0.89507  0.16304  1.0000
  C   C1654     1.0  0.49623  0.77784  0.00794  1.0000
  H   H2932     1.0  0.65580  0.87578  0.09880  1.0000
  C   C1655     1.0  0.61474  0.81249  0.01809  1.0000
  C   C1656     1.0  0.66852  0.84329  0.07972  1.0000
  H   H2933     1.0  0.60222  0.95655  0.04350  1.0000
  S   S373      1.0  0.63899  0.86850  0.00174  1.0000
  C   C1657     1.0  0.65367  0.87880  0.15585  1.0000
  H   H2934     1.0  0.58522  0.77093  0.03575  1.0000
  H   H2935     1.0  0.67657  0.85782  0.07130  1.0000
  C   C1658     1.0  0.50537  0.81781  0.10124  1.0000
  H   H2936     1.0  0.69558  0.96119  0.45733  1.0000
  H   H2937     1.0  0.66474  0.83487  0.02448  1.0000
  H   H2938     1.0  0.53947  0.80887  0.03099  1.0000
  C   C1659     1.0  0.48702  0.75871  0.08105  1.0000
  H   H2939     1.0  0.57082  0.84377  0.48771  1.0000
  H   H2940     1.0  0.49722  0.81796  0.12574  1.0000
  H   H2941     1.0  0.58587  0.75082  0.08686  1.0000
  C   C1660     1.0  0.63638  0.81968  0.49524  1.0000
  H   H2942     1.0  0.68002  0.98341  0.32406  1.0000
  C   C1661     1.0  0.57529  0.80168  0.49463  1.0000
  H   H2943     1.0  0.52852  0.75184  0.44593  1.0000
  C   C1662     1.0  0.57676  0.74509  0.06441  1.0000
  C   C1663     1.0  0.59400  0.96642  0.94708  1.0000
  H   H2944     1.0  0.54799  0.87617  0.63167  1.0000
  Fe  Fe190     1.0  0.61902  0.75987  0.95121  1.0000
  S   S374      1.0  0.59893  0.75656  0.90798  1.0000
  H   H2945     1.0  0.51564  0.87107  0.60697  1.0000
  H   H2946     1.0  0.52429  0.88101  0.70510  1.0000
  S   S375      1.0  0.62558  0.76236  0.81632  1.0000
  C   C1664     1.0  0.68046  0.75684  0.66452  1.0000
  S   S376      1.0  0.63976  0.75453  0.91418  1.0000
  Fe  Fe191     1.0  0.62017  0.77137  0.56042  1.0000
  H   H2947     1.0  0.53553  0.84243  0.66381  1.0000
  H   H2948     1.0  0.53012  0.87299  0.76860  1.0000
  C   C1665     1.0  0.68309  0.77059  0.63315  1.0000
  H   H2949     1.0  0.58934  0.91405  0.87895  1.0000
  S   S377      1.0  0.63465  0.75965  0.60056  1.0000
  S   S378      1.0  0.51193  0.84430  0.54977  1.0000
  C   C1666     1.0  0.49535  0.77568  0.96760  1.0000
  H   H2950     1.0  0.54869  0.74783  0.94621  1.0000
  C   C1667     1.0  0.61685  0.75414  0.71032  1.0000
  C   C1668     1.0  0.61875  0.95920  0.97517  1.0000
  H   H2951     1.0  0.58476  0.75364  0.82091  1.0000
  H   H2952     1.0  0.54590  0.89527  0.65479  1.0000
  H   H2953     1.0  0.60033  0.80026  0.92458  1.0000
  H   H2954     1.0  0.68084  0.76442  0.68934  1.0000
  N   N92       1.0  0.51156  0.86262  0.66322  1.0000
  C   C1669     1.0  0.51066  0.76280  0.55284  1.0000
  C   C1670     1.0  0.52862  0.85899  0.75997  1.0000
  H   H2955     1.0  0.61334  0.83477  0.55691  1.0000
  H   H2956     1.0  0.62053  0.97021  0.99471  1.0000
  H   H2957     1.0  0.51225  0.79106  0.55857  1.0000
  H   H2958     1.0  0.54299  0.89049  0.57351  1.0000
  H   H2959     1.0  0.50224  0.85311  0.73907  1.0000
  C   C1671     1.0  0.52006  0.87700  0.63351  1.0000
  H   H2960     1.0  0.54964  0.82921  0.53718  1.0000
  C   C1672     1.0  0.62275  0.76216  0.74334  1.0000
  H   H2961     1.0  0.62046  0.76249  0.68581  1.0000
  H   H2962     1.0  0.63095  0.77668  0.74399  1.0000
  S   S379      1.0  0.59264  0.75035  0.57672  1.0000
  C   C1673     1.0  0.52655  0.85585  0.51305  1.0000
  C   C1674     1.0  0.49311  0.86336  0.67310  1.0000
  H   H2963     1.0  0.51269  0.81587  0.60877  1.0000
  H   H2964     1.0  0.57701  0.85869  0.54988  1.0000
  H   H2965     1.0  0.64775  0.91940  0.54978  1.0000
  S   S380      1.0  0.61949  0.80075  0.55871  1.0000
  C   C1675     1.0  0.57876  0.90981  0.90085  1.0000
  H   H2966     1.0  0.69633  0.78218  0.63516  1.0000
  C   C1676     1.0  0.51941  0.85823  0.96288  1.0000
  H   H2967     1.0  0.53850  0.88554  0.94861  1.0000
  H   H2968     1.0  0.50991  0.85839  0.94251  1.0000
  H   H2969     1.0  0.51694  0.74855  0.99616  1.0000
  C   C1677     1.0  0.52610  0.83952  0.64131  1.0000
  N   N93       1.0  0.55535  0.76653  0.99012  1.0000
  H   H2970     1.0  0.54212  0.90994  0.59773  1.0000
  H   H2971     1.0  0.66222  0.98440  0.93802  1.0000
  H   H2972     1.0  0.65651  0.96950  0.97753  1.0000
  H   H2973     1.0  0.58813  0.81385  0.90577  1.0000
  C   C1678     1.0  0.65192  0.97865  0.96012  1.0000
  S   S381      1.0  0.49430  0.82392  0.98557  1.0000
  H   H2974     1.0  0.66892  0.90683  0.54362  1.0000
  C   C1679     1.0  0.63548  0.81781  0.96715  1.0000
  H   H2975     1.0  0.53897  0.76521  0.94361  1.0000
  H   H2976     1.0  0.60166  0.97990  0.95904  1.0000
  H   H2977     1.0  0.56520  0.90315  0.88905  1.0000
  H   H2978     1.0  0.52153  0.77346  0.83410  1.0000
  H   H2979     1.0  0.64973  0.84646  0.95143  1.0000
  H   H2980     1.0  0.62990  0.93591  0.51960  1.0000
  H   H2981     1.0  0.58299  0.78654  0.98908  1.0000
  H   H2982     1.0  0.68946  0.93504  0.55787  1.0000
  S   S382      1.0  0.62496  0.75450  0.51611  1.0000
  H   H2983     1.0  0.67997  0.88131  0.55696  1.0000
  C   C1680     1.0  0.71587  0.96773  0.55743  1.0000
  H   H2984     1.0  0.66419  0.94120  0.56261  1.0000
  H   H2985     1.0  0.53769  0.78240  0.99230  1.0000
  C   C1681     1.0  0.57127  0.79035  0.93903  1.0000
  H   H2986     1.0  0.59832  0.96832  0.91827  1.0000
  C   C1682     1.0  0.57297  0.77782  0.97059  1.0000
  C   C1683     1.0  0.58944  0.80591  0.92991  1.0000
  C   C1684     1.0  0.54013  0.75091  0.81241  1.0000
  H   H2987     1.0  0.72654  0.96161  0.56071  1.0000
  N   N94       1.0  0.59913  0.95124  0.96408  1.0000
  C   C1685     1.0  0.63963  0.83700  0.96970  1.0000
  H   H2988     1.0  0.56272  0.90481  0.59643  1.0000
  H   H2989     1.0  0.52294  0.84913  0.78302  1.0000
  H   H2990     1.0  0.56093  0.79659  0.94505  1.0000
  H   H2991     1.0  0.95171  0.77491  0.56264  1.0000
  C   C1686     1.0  0.50869  0.84357  0.65057  1.0000
  C   C1687     1.0  0.63336  0.96785  0.94484  1.0000
  H   H2992     1.0  0.60215  0.92562  0.95088  1.0000
  C   C1688     1.0  0.54797  0.87378  0.99322  1.0000
  H   H2993     1.0  0.67203  0.77630  0.63339  1.0000
  H   H2994     1.0  0.57971  0.76865  0.95975  1.0000
  H   H2995     1.0  0.66393  0.87118  0.52271  1.0000
  C   C1689     1.0  0.52140  0.81929  0.63246  1.0000
  H   H2996     1.0  0.64629  0.95768  0.53279  1.0000
  H   H2997     1.0  0.56229  0.75817  0.75575  1.0000
  C   C1690     1.0  0.56378  0.82941  0.53936  1.0000
  H   H2998     1.0  0.57841  0.99285  0.93414  1.0000
  H   H2999     1.0  0.58730  0.84392  0.57084  1.0000
  C   C1691     1.0  0.59775  0.93633  0.93799  1.0000
  H   H3000     1.0  0.50919  0.78203  0.95495  1.0000
  C   C1692     1.0  0.57356  0.96424  0.94986  1.0000
  C   C1693     1.0  0.54759  0.89863  0.59773  1.0000
  H   H3001     1.0  0.50692  0.74469  0.93356  1.0000
  C   C1694     1.0  0.57889  0.92646  0.92179  1.0000
  H   H3002     1.0  0.63523  0.95691  0.92852  1.0000
  C   C1695     1.0  0.54223  0.75573  0.96266  1.0000
  H   H3003     1.0  0.51413  0.81011  0.65549  1.0000
  C   C1696     1.0  0.57885  0.77833  0.81353  1.0000
  C   C1697     1.0  0.62106  0.83471  0.53272  1.0000
  H   H3004     1.0  0.60715  0.94197  0.91450  1.0000
  C   C1698     1.0  0.52288  0.86702  0.69621  1.0000
  C   C1699     1.0  0.51568  0.85340  0.72891  1.0000
  H   H3005     1.0  0.53816  0.75044  0.56692  1.0000
  C   C1700     1.0  0.57414  0.84507  0.56351  1.0000
  H   H3006     1.0  0.50657  0.74974  0.84259  1.0000
  C   C1701     1.0  0.54518  0.86509  0.51896  1.0000
  H   H3007     1.0  0.56432  0.95055  0.94189  1.0000
  H   H3008     1.0  0.58126  0.89947  0.91888  1.0000
  H   H3009     1.0  0.53698  0.86768  0.69040  1.0000
  H   H3010     1.0  0.53318  0.84783  0.61729  1.0000
  H   H3011     1.0  0.69220  0.75215  0.66362  1.0000
  H   H3012     1.0  0.50030  0.83297  0.67054  1.0000
  H   H3013     1.0  0.57577  0.93602  0.90280  1.0000
  H   H3014     1.0  0.56814  0.79547  0.52036  1.0000
  H   H3015     1.0  0.56592  0.84427  0.58840  1.0000
  H   H3016     1.0  0.51445  0.83925  0.72199  1.0000
  H   H3017     1.0  0.56780  0.92135  0.94246  1.0000
  H   H3018     1.0  0.64234  0.81271  0.94700  1.0000
  H   H3019     1.0  0.63284  0.94098  0.56625  1.0000
  H   H3020     1.0  0.53411  0.81673  0.62614  1.0000
  H   H3021     1.0  0.69414  0.96657  0.52319  1.0000
  C   C1702     1.0  0.62614  0.81943  0.52639  1.0000
  C   C1703     1.0  0.50165  0.77716  0.55601  1.0000
  H   H3022     1.0  0.51886  0.76384  0.57694  1.0000
  H   H3023     1.0  0.57299  0.93629  0.99108  1.0000
  H   H3024     1.0  0.59353  0.81550  0.95231  1.0000
  C   C1704     1.0  0.51526  0.84295  0.98646  1.0000
  H   H3025     1.0  0.54687  0.76620  0.86243  1.0000
  H   H3026     1.0  0.68659  0.87072  0.51952  1.0000
  C   C1705     1.0  0.53562  0.87363  0.96646  1.0000
  C   C1706     1.0  0.68508  0.89749  0.50679  1.0000
  H   H3027     1.0  0.51504  0.88865  0.63548  1.0000
  C   C1707     1.0  0.59480  0.79042  0.83494  1.0000
  H   H3028     1.0  0.58339  0.78016  0.78497  1.0000
  H   H3029     1.0  0.55005  0.86542  0.54576  1.0000
  C   C1708     1.0  0.67845  0.87908  0.52785  1.0000
  C   C1709     1.0  0.66497  0.93613  0.50497  1.0000
  H   H3030     1.0  0.56305  0.81633  0.55288  1.0000
  C   C1710     1.0  0.54116  0.88634  0.63156  1.0000
  C   C1711     1.0  0.65471  0.93413  0.54160  1.0000
  H   H3031     1.0  0.51606  0.76436  0.87921  1.0000
  H   H3032     1.0  0.94684  0.76404  0.60664  1.0000
  C   C1712     1.0  0.62330  0.80539  0.99189  1.0000
  H   H3033     1.0  0.49482  0.87682  0.68516  1.0000
  C   C1713     1.0  0.61804  0.75156  0.77548  1.0000
  H   H3034     1.0  0.56700  0.78200  0.91492  1.0000
  H   H3035     1.0  0.49370  0.77737  0.53195  1.0000
  C   C1714     1.0  0.51889  0.76097  0.85162  1.0000
  C   C1715     1.0  0.64006  0.94271  0.53986  1.0000
  Fe  Fe192     1.0  0.61833  0.74914  0.87235  1.0000
  H   H3036     1.0  0.54223  0.85870  0.75225  1.0000
  H   H3037     1.0  0.60705  0.78688  0.82985  1.0000
  H   H3038     1.0  0.59821  0.80514  0.82692  1.0000
  H   H3039     1.0  0.59128  0.78861  0.86393  1.0000
  C   C1716     1.0  0.56987  0.97875  0.92631  1.0000
  H   H3040     1.0  0.70726  0.96513  0.58233  1.0000
  H   H3041     1.0  0.54208  0.76338  0.79515  1.0000
  N   N95       1.0  0.68045  0.92901  0.50379  1.0000
  H   H3042     1.0  0.56766  0.78369  0.81692  1.0000
  H   H3043     1.0  0.55530  0.97716  0.92945  1.0000
  H   H3044     1.0  0.62953  0.97740  0.92711  1.0000
  S   S383      1.0  0.56763  0.89390  0.99798  1.0000
  H   H3045     1.0  0.72271  0.98287  0.55305  1.0000
  H   H3046     1.0  0.68319  0.76389  0.60734  1.0000
  C   C1717     1.0  0.53538  0.75496  0.85104  1.0000
  H   H3047     1.0  0.62255  0.94840  0.98927  1.0000
  H   H3048     1.0  0.50054  0.84084  0.62604  1.0000
  H   H3049     1.0  0.49234  0.77409  0.57999  1.0000
  H   H3050     1.0  0.48960  0.76090  0.96111  1.0000
  C   C1718     1.0  0.57278  0.75775  0.82598  1.0000
  H   H3051     1.0  0.51972  0.76658  0.52860  1.0000
  S   S384      1.0  0.61934  0.78123  0.99332  1.0000
  H   H3052     1.0  0.57279  0.97704  0.89773  1.0000
  C   C1719     1.0  0.62604  0.84999  0.50835  1.0000
  C   C1720     1.0  0.70419  0.95968  0.52548  1.0000
  H   H3053     1.0  0.56959  0.96603  0.97771  1.0000
  H   H3054     1.0  0.57069  0.75668  0.85555  1.0000
  H   H3055     1.0  0.62225  0.86171  0.51400  1.0000
  H   H3056     1.0  0.65965  0.90170  0.50063  1.0000
  C   C1721     1.0  0.93686  0.74517  0.56359  1.0000
  H   H3057     1.0  0.69942  0.90496  0.51368  1.0000
  H   H3058     1.0  0.92349  0.74693  0.56522  1.0000
  H   H3059     1.0  0.96458  0.76129  0.57878  1.0000
  C   C1722     1.0  0.95090  0.76243  0.57869  1.0000
  N   N96       1.0  0.55621  0.74480  0.80830  1.0000
  H   H3060     1.0  0.65092  0.74584  0.66265  1.0000
  C   C1723     1.0  0.67263  0.90872  0.51456  1.0000
  H   H3061     1.0  0.65121  0.99027  0.97596  1.0000
  C   C1724     1.0  0.63125  0.84409  0.99620  1.0000
  H   H3062     1.0  0.58808  0.83709  0.50522  1.0000
  C   C1725     1.0  0.56076  0.74471  0.76894  1.0000
  C   C1726     1.0  0.58765  0.94250  0.99713  1.0000
  C   C1727     1.0  0.57311  0.83202  0.50164  1.0000
  C   C1728     1.0  0.69497  0.93848  0.52993  1.0000
  H   H3063     1.0  0.70627  0.93314  0.52833  1.0000
  H   H3064     1.0  0.55312  0.74501  0.69613  1.0000
  H   H3065     1.0  0.57433  0.76626  0.51474  1.0000
  H   H3066     1.0  0.93994  0.75446  0.50892  1.0000
  H   H3067     1.0  0.95663  0.74558  0.52189  1.0000
  H   H3068     1.0  0.54143  0.80076  0.50641  1.0000
  H   H3069     1.0  0.58973  0.80879  0.50184  1.0000
  H   H3070     1.0  0.48653  0.78265  0.95635  1.0000
  H   H3071     1.0  0.51319  0.80925  0.50157  1.0000
  H   H3072     1.0  0.71350  0.96328  0.50153  1.0000
