data_image0
_chemical_formula_structural       FeS2FeS2FeSFeS3FeS2FeS2FeSFeS3FeS2FeS2FeSFeS3H2CH3C3H2C7H4CHCH2C3H4CH2C6H4C3H2CHC2HNC10HCH10CH13CH5CHCH2C4H3CH10CH6C3HCH2CH2C2NC2HC3HC5H12CH10C2H5C6HCHC2H2C2H2CHCHNH2C2H3C2H7NH2CH4CHCH11CH2C3H3CH8CH2CH2NCHCH4FeS2FeS2FeSFeS3FeS2FeS2FeSFeS3HFeS2FeS2FeSFeS3CH4C4H2C2H3CHCH2C6H4C6H4C3H2C2H3C3H2CH9CH3CH10CH7CH5C3H2NCHCNC7H17CH3CH2C2HC3H4CNC5H6CHC2H2C2H2CH2CHNC12H23CH7CNC12H33CHCHC2H7NC2H4CH6C3H4C3FeS2FeS2FeSFeS3FeS2FeS2FeSFeS3FeS2FeS2FeSFeS3CH3CHCH3C2H2CH3CH4C3H2C6H5CH3C2H5C2HC6H9NC6H9CH3NCH3CH7CHC3HCH7CHCHC2H2CHCH5CH3C2HCH2NC4HC6H12CH2NCH5C2H5NC12H17NH10NC9H18CH5CH2CHCH3C2HCHC2H5C3H2CH2C2HC2HCHC2HC3H2CH4C2H5CH3CHC2H3FeS2FeS2FeSFeS3FeS2FeS2FeSFeS3FeS2FeS2FeSFeS3CH4C2H2CH4C2HC7H4C6H4C3HCH2C2H2C3H2C2H2CH7C2H3C2H4C2H6C3H3CH3NCHCH2CNCH2CH2C2HC3H3CH4CH4CHCHNHC2HCH3CH6CH2CH2CH5CH2CHCH2NC12H25CH4C2H3CHCH3CHCHCHCNCHCHCH5NH4C3HCH4CH4CH6CHCH3CH2CHCHCH4CHCHCHCHCH4CHC2H2CH3CH5CHNH4CH6FeSFeS2FeSFeS3FeS2FeS2FeSFeS3CH4CHCH2NHCH2CHC6H5C6H3C3H5CH2C2H2CH2C2HCNH2CHCH3CHC2HCHCH3CHCH5NCHCH2CHCH3CHCHCH2C2H4CHCHCHCH3C2HSH3CH4CHCHCH5CH5NH3CHCNHC2H3C3H2CH2C2H3CH4CH5C2H3CHCHCH10C3HFeS2FeS2Fe2S3FeS2FeS2FeSFeS3H2C2HCHC3H4CHC3H2C6H4C3H3C2H4CH2C2H2CH3C2H2NH7C2H3CH7CHCNH2CHCH13CH2C2H2C2H2C3HNHCH2C2HC2H2CH7CH2CHCH2CH2CHCSH4CHCH2CH3CH2C2H2C2H6C2H2C2H2FeS2FeS2FeSFeS3FeS2FeSHFeSFeS3H4C3HCH3C2H2C6H5CHC2HCH7CH5C2H8C2H2SH2C2NC3H2C2HCHC2H7CHCH4CH3CH3CHC2HCH2CH6CNCHCH2CH6CHCFeS2FeS2FeSFeHS2FeSHFeS2FeSFeS3C9H7C2HCHC2H8CH2CH2CH3CH4CH2C2HC2H6C3H3CH8CHCH3C2HC2HCH3C2HNHCH2CSH2C2H2C2HCH4CH3SH7C2H5CNH3CHC2H2CH2CFeS2FeS2FeSFeS3FeS2FeS2FeSFeS3FeS2FeS2FeSFeS3C3HC2H4C6H4C2H3C6H4CHC2H3CH4CH4CH2CHC5H10C2H2CH5CH6CHC2H3CH2NC7H2CHC2H3CH13CH3CH2CH2C3H8CHCH3CHCHC3H5NC12H29CHC4H3C2HC2H2CH3C3H5NH2C4HC2H4C2HCH3NCH2NCH4CHCHCH5CH3CHCH8CHC3HCH2NC2H4CHC2HNCH2CHCHCHCH5C2H2CHCHCH2CHNH12CH2C4H12C3FeS2FeS2FeSFeS3FeS2FeS2FeSFeS3FeS2FeS2FeSFeS3C6H4C6H4NCH3C5H2C5H4CHCHC2H4CHC3HC3H2C2H5CH4CH5CH3CH4CH2CH3C2HCH8NC12H28CH2CH2CHC2H2CHCHNH7CHC2NCHC4H3C2H3CH5CH6CH5CH6CH4CHC2HC2H4CH2NCH2CHCH3CH4CH4C2H2CH4C3H4CHC2HCH7C2H2C4H12C2HC2NC2H5CHNCHC2H2CH3C2HCHCH3CHC2FeS2FeS2FeSFeS3FeS2FeS2FeSFeS3FeS2FeS2FeSFeS3C2H3C3HCHC2H6C6H4C2H3C6H2CHC6H4C3H2C3H10C3HC2H9NC10HCH10CH13NH10NHCH3NH2CH5C2H3CH3CH3CH4CNC6HC2HCH4CH8CH2CH3CH4NC10H15CHCH3CHCH13CH3C2H2C2HCH3C2HCH3CHC2HCH2CHCHC2HCH5C2H4C2H2CFeS2FeS2FeSFeS3FeS2FeS2FeSFeS3FeS2FeS2FeSFeS3C2H3CH2CHC6H4C6H4CHC2H3C3H3C3H3C3HC2HCHC2HCNC10H23NC6NC4H6CH5CH7C2H7CH12CH3CNH4C3HC2H2CH10C2HCHCH2C2HC2H6C2H2CH14CH2CHCH6C3H2CH2C2HC2H3CH3NC3H9CHCH6CH2C2H2CHCNH2CH2CH2CH2C2HCH5CH6CH2C2HCH5
_chemical_formula_sum              "Fe128 S256 H2048 C1152 N64"
_cell_length_a       67.5705
_cell_length_b       67.3121
_cell_length_c       39.3758
_cell_angle_alpha    89.6028
_cell_angle_beta     90.1282
_cell_angle_gamma    85.1734

_space_group_name_H-M_alt    "P 1"
_space_group_IT_number       1

loop_
  _space_group_symop_operation_xyz
  'x, y, z'

loop_
  _atom_site_type_symbol
  _atom_site_label
  _atom_site_symmetry_multiplicity
  _atom_site_fract_x
  _atom_site_fract_y
  _atom_site_fract_z
  _atom_site_occupancy
  Fe  Fe1       1.0  0.26325  0.12306  0.19660  1.0000
  S   S1        1.0  0.24089  0.10573  0.22388  1.0000
  S   S2        1.0  0.29194  0.13353  0.21980  1.0000
  Fe  Fe2       1.0  0.23772  0.12648  0.13022  1.0000
  S   S3        1.0  0.21429  0.10898  0.15369  1.0000
  S   S4        1.0  0.23165  0.14178  0.07824  1.0000
  Fe  Fe3       1.0  0.21730  0.12790  0.20058  1.0000
  S   S5        1.0  0.18809  0.14052  0.22652  1.0000
  Fe  Fe4       1.0  0.23956  0.08863  0.17478  1.0000
  S   S6        1.0  0.24610  0.05490  0.16862  1.0000
  S   S7        1.0  0.23978  0.14615  0.17621  1.0000
  S   S8        1.0  0.26302  0.10518  0.14848  1.0000
  Fe  Fe5       1.0  0.11468  0.24068  0.28957  1.0000
  S   S9        1.0  0.11403  0.26990  0.31889  1.0000
  S   S10       1.0  0.14520  0.22559  0.27231  1.0000
  Fe  Fe6       1.0  0.06887  0.24217  0.28983  1.0000
  S   S11       1.0  0.06576  0.27074  0.31831  1.0000
  S   S12       1.0  0.04135  0.22825  0.27084  1.0000
  Fe  Fe7       1.0  0.08910  0.28127  0.28316  1.0000
  S   S13       1.0  0.07849  0.31034  0.25441  1.0000
  Fe  Fe8       1.0  0.09054  0.25710  0.35167  1.0000
  S   S14       1.0  0.08222  0.25619  0.40844  1.0000
  S   S15       1.0  0.09101  0.25294  0.25267  1.0000
  S   S16       1.0  0.09254  0.22759  0.32427  1.0000
  Fe  Fe9       1.0  0.08349  0.46068  0.14470  1.0000
  S   S17       1.0  0.05218  0.45599  0.12933  1.0000
  S   S18       1.0  0.09335  0.49053  0.12577  1.0000
  Fe  Fe10      1.0  0.09085  0.41678  0.17130  1.0000
  S   S19       1.0  0.06030  0.40998  0.15666  1.0000
  S   S20       1.0  0.11033  0.39124  0.19672  1.0000
  Fe  Fe11      1.0  0.06504  0.42685  0.10849  1.0000
  S   S21       1.0  0.05302  0.41524  0.05949  1.0000
  Fe  Fe12      1.0  0.05083  0.43970  0.17883  1.0000
  S   S22       1.0  0.02433  0.44218  0.21314  1.0000
  S   S23       1.0  0.09657  0.43194  0.12101  1.0000
  S   S24       1.0  0.08119  0.44620  0.19641  1.0000
  H   H1        1.0  0.13908  0.47684  0.02294  1.0000
  H   H2        1.0  0.00584  0.37791  0.31859  1.0000
  C   C1        1.0  0.07296  0.35828  0.04380  1.0000
  H   H3        1.0  0.09408  0.18175  0.40344  1.0000
  H   H4        1.0  0.09322  0.42620  0.04603  1.0000
  H   H5        1.0  0.32831  0.17963  0.46055  1.0000
  C   C2        1.0  0.26567  0.00741  0.27007  1.0000
  C   C3        1.0  0.09228  0.25896  0.45001  1.0000
  C   C4        1.0  0.11149  0.26458  0.45565  1.0000
  H   H6        1.0  0.05007  0.32240  0.32757  1.0000
  H   H7        1.0  0.12057  0.26823  0.43429  1.0000
  C   C5        1.0  0.25882  0.02456  0.24503  1.0000
  C   C6        1.0  0.08843  0.33210  0.23758  1.0000
  C   C7        1.0  0.07606  0.34510  0.21708  1.0000
  C   C8        1.0  0.08257  0.36311  0.20455  1.0000
  C   C9        1.0  0.10168  0.36841  0.21193  1.0000
  C   C10       1.0  0.11428  0.35516  0.23171  1.0000
  C   C11       1.0  0.10770  0.33715  0.24458  1.0000
  H   H8        1.0  0.06126  0.34125  0.21098  1.0000
  H   H9        1.0  0.07274  0.37297  0.18935  1.0000
  H   H10       1.0  0.12914  0.35897  0.23753  1.0000
  H   H11       1.0  0.11746  0.32734  0.26024  1.0000
  C   C12       1.0  0.23547  0.13185  0.03657  1.0000
  H   H12       1.0  0.26016  0.01225  0.29556  1.0000
  C   C13       1.0  0.24514  0.11295  0.03100  1.0000
  H   H13       1.0  0.09658  0.34099  0.01476  1.0000
  H   H14       1.0  0.25023  0.10377  0.05248  1.0000
  C   C14       1.0  0.31174  0.12005  0.24243  1.0000
  C   C15       1.0  0.31008  0.10091  0.25565  1.0000
  C   C16       1.0  0.03583  0.32052  0.31427  1.0000
  H   H15       1.0  0.32389  0.05241  0.36382  1.0000
  H   H16       1.0  0.05865  0.19412  0.39949  1.0000
  H   H17       1.0  0.03909  0.31277  0.28989  1.0000
  H   H18       1.0  0.29648  0.09380  0.25177  1.0000
  C   C17       1.0  0.08075  0.25434  0.47832  1.0000
  H   H19       1.0  0.25836  0.04825  0.28276  1.0000
  H   H20       1.0  0.29879  0.02958  0.19807  1.0000
  C   C18       1.0  0.17646  0.16446  0.23857  1.0000
  C   C19       1.0  0.18695  0.18146  0.24161  1.0000
  C   C20       1.0  0.17711  0.19988  0.25176  1.0000
  C   C21       1.0  0.15664  0.20174  0.25934  1.0000
  C   C22       1.0  0.14611  0.18477  0.25618  1.0000
  C   C23       1.0  0.15596  0.16634  0.24598  1.0000
  H   H21       1.0  0.20275  0.18034  0.23681  1.0000
  H   H22       1.0  0.18552  0.21279  0.25414  1.0000
  H   H23       1.0  0.13040  0.18580  0.26177  1.0000
  H   H24       1.0  0.14760  0.15337  0.24396  1.0000
  C   C24       1.0  0.23805  0.01641  0.15678  1.0000
  C   C25       1.0  0.23056  0.03492  0.16974  1.0000
  C   C26       1.0  0.21176  0.03651  0.18485  1.0000
  H   H25       1.0  0.25252  0.01506  0.14492  1.0000
  H   H26       1.0  0.20584  0.05066  0.19506  1.0000
  C   C27       1.0  0.32948  0.15121  0.43382  1.0000
  H   H27       1.0  0.02469  0.47087  0.03584  1.0000
  C   C28       1.0  0.01722  0.27496  0.24021  1.0000
  C   C29       1.0  0.22895  0.14351  0.00816  1.0000
  H   H28       1.0  0.03688  0.29881  0.23287  1.0000
  N   N1        1.0  0.17682  0.17926  0.12325  1.0000
  C   C30       1.0  0.16917  0.18150  0.08729  1.0000
  C   C31       1.0  0.16232  0.19060  0.14662  1.0000
  C   C32       1.0  0.19707  0.18716  0.12475  1.0000
  C   C33       1.0  0.17886  0.15766  0.13425  1.0000
  C   C34       1.0  0.15965  0.14655  0.13192  1.0000
  C   C35       1.0  0.18074  0.16829  0.06052  1.0000
  C   C36       1.0  0.20549  0.19039  0.16077  1.0000
  C   C37       1.0  0.15939  0.21346  0.14056  1.0000
  C   C38       1.0  0.14699  0.22367  0.16889  1.0000
  C   C39       1.0  0.16383  0.12433  0.13954  1.0000
  H   H29       1.0  0.27078  0.15345  0.00770  1.0000
  C   C40       1.0  0.22611  0.19807  0.15891  1.0000
  H   H30       1.0  0.16960  0.19721  0.07852  1.0000
  H   H31       1.0  0.15321  0.17863  0.08591  1.0000
  H   H32       1.0  0.14730  0.18518  0.14407  1.0000
  H   H33       1.0  0.16649  0.18760  0.17370  1.0000
  H   H34       1.0  0.19719  0.20151  0.11054  1.0000
  H   H35       1.0  0.20823  0.17678  0.11163  1.0000
  H   H36       1.0  0.19092  0.14910  0.11993  1.0000
  H   H37       1.0  0.18378  0.15638  0.16110  1.0000
  H   H38       1.0  0.15287  0.14790  0.10629  1.0000
  H   H39       1.0  0.14858  0.15257  0.15081  1.0000
  C   C41       1.0  0.06772  0.19845  0.42138  1.0000
  H   H40       1.0  0.18001  0.15220  0.06614  1.0000
  H   H41       1.0  0.20671  0.17623  0.17536  1.0000
  H   H42       1.0  0.19592  0.20150  0.17525  1.0000
  H   H43       1.0  0.17370  0.22037  0.13962  1.0000
  H   H44       1.0  0.15144  0.21676  0.11620  1.0000
  H   H45       1.0  0.15504  0.22198  0.19350  1.0000
  H   H46       1.0  0.14420  0.23986  0.16326  1.0000
  H   H47       1.0  0.13245  0.21721  0.17140  1.0000
  H   H48       1.0  0.17025  0.12199  0.16539  1.0000
  H   H49       1.0  0.14977  0.11693  0.13846  1.0000
  H   H50       1.0  0.17422  0.11727  0.12048  1.0000
  H   H51       1.0  0.08258  0.41107  0.26924  1.0000
  H   H52       1.0  0.13385  0.26988  0.49316  1.0000
  C   C42       1.0  0.32594  0.09108  0.27427  1.0000
  H   H53       1.0  0.23647  0.18762  0.14441  1.0000
  H   H54       1.0  0.09058  0.20736  0.38919  1.0000
  H   H55       1.0  0.23214  0.19939  0.18499  1.0000
  H   H56       1.0  0.31360  0.02822  0.25589  1.0000
  H   H57       1.0  0.31877  0.11733  0.40617  1.0000
  C   C43       1.0  0.17217  0.17219  0.02493  1.0000
  H   H58       1.0  0.15773  0.22587  0.41951  1.0000
  C   C44       1.0  0.01798  0.38564  0.30654  1.0000
  H   H59       1.0  0.12159  0.21155  0.38141  1.0000
  H   H60       1.0  0.06154  0.34736  0.04190  1.0000
  C   C45       1.0  0.01275  0.35481  0.22472  1.0000
  C   C46       1.0  0.30547  0.14453  0.32566  1.0000
  C   C47       1.0  0.28319  0.14224  0.32414  1.0000
  C   C48       1.0  0.08671  0.35492  0.01235  1.0000
  H   H61       1.0  0.31595  0.10901  0.36366  1.0000
  H   H62       1.0  0.01735  0.27604  0.26831  1.0000
  H   H63       1.0  0.13543  0.22718  0.46432  1.0000
  C   C49       1.0  0.13065  0.16561  0.45037  1.0000
  H   H64       1.0  0.30333  0.14417  0.38072  1.0000
  H   H65       1.0  0.30686  0.16764  0.36313  1.0000
  H   H66       1.0  0.04172  0.36787  0.15767  1.0000
  H   H67       1.0  0.06252  0.21397  0.42855  1.0000
  H   H68       1.0  0.03186  0.48435  0.19209  1.0000
  H   H69       1.0  0.02957  0.38580  0.32665  1.0000
  H   H70       1.0  0.10779  0.29897  0.10817  1.0000
  H   H71       1.0  0.17328  0.18798  0.01728  1.0000
  H   H72       1.0  0.28143  0.04435  0.25945  1.0000
  H   H73       1.0  0.02515  0.35878  0.20842  1.0000
  C   C50       1.0  0.00205  0.22180  0.27935  1.0000
  H   H74       1.0  0.28211  0.00677  0.27210  1.0000
  H   H75       1.0  0.31346  0.13010  0.31860  1.0000
  H   H76       1.0  0.13640  0.13346  0.45461  1.0000
  H   H77       1.0  0.27460  0.15655  0.33030  1.0000
  H   H78       1.0  0.27908  0.13785  0.29804  1.0000
  H   H79       1.0  0.27916  0.13044  0.34209  1.0000
  C   C51       1.0  0.15049  0.23691  0.36959  1.0000
  C   C52       1.0  0.12634  0.20664  0.50106  1.0000
  C   C53       1.0  0.20077  0.01960  0.18730  1.0000
  H   H80       1.0  0.07190  0.40361  0.22999  1.0000
  C   C54       1.0  0.13822  0.14544  0.43560  1.0000
  H   H81       1.0  0.02505  0.20861  0.43951  1.0000
  H   H82       1.0  0.02020  0.34716  0.33315  1.0000
  C   C55       1.0  0.06733  0.41579  0.02222  1.0000
  H   H83       1.0  0.09927  0.19415  0.46311  1.0000
  H   H84       1.0  0.19658  0.17145  0.05980  1.0000
  C   C56       1.0  0.32812  0.03287  0.24752  1.0000
  C   C57       1.0  0.33053  0.02593  0.21017  1.0000
  N   N2        1.0  0.08303  0.35684  0.07826  1.0000
  C   C58       1.0  0.06836  0.36576  0.10393  1.0000
  C   C59       1.0  0.10100  0.36880  0.07674  1.0000
  H   H85       1.0  0.32340  0.02589  0.37133  1.0000
  C   C60       1.0  0.08887  0.33509  0.08559  1.0000
  C   C61       1.0  0.09855  0.32993  0.12062  1.0000
  C   C62       1.0  0.04872  0.35557  0.10760  1.0000
  H   H86       1.0  0.24244  0.02616  0.24225  1.0000
  C   C63       1.0  0.10862  0.37710  0.11058  1.0000
  C   C64       1.0  0.12848  0.38603  0.10555  1.0000
  C   C65       1.0  0.31203  0.15152  0.36121  1.0000
  C   C66       1.0  0.03463  0.36696  0.13236  1.0000
  C   C67       1.0  0.00571  0.42918  0.19492  1.0000
  H   H87       1.0  0.06447  0.38171  0.09757  1.0000
  H   H88       1.0  0.07497  0.36597  0.12964  1.0000
  H   H89       1.0  0.11362  0.35997  0.06428  1.0000
  H   H90       1.0  0.09764  0.38239  0.06062  1.0000
  H   H91       1.0  0.32430  0.07653  0.28482  1.0000
  H   H92       1.0  0.26540  0.02188  0.21952  1.0000
  H   H93       1.0  0.07578  0.32626  0.08272  1.0000
  H   H94       1.0  0.09967  0.32887  0.06640  1.0000
  H   H95       1.0  0.09038  0.33757  0.14180  1.0000
  H   H96       1.0  0.11413  0.33402  0.12063  1.0000
  H   H97       1.0  0.04072  0.35514  0.08305  1.0000
  H   H98       1.0  0.05174  0.34012  0.11750  1.0000
  C   C68       1.0  0.11900  0.26547  0.48913  1.0000
  H   H99       1.0  0.02083  0.35924  0.13517  1.0000
  H   H100      1.0  0.09782  0.38913  0.11991  1.0000
  H   H101      1.0  0.11056  0.36577  0.13094  1.0000
  H   H102      1.0  0.14013  0.37432  0.09782  1.0000
  H   H103      1.0  0.12710  0.39803  0.08597  1.0000
  H   H104      1.0  0.13317  0.39258  0.12981  1.0000
  H   H105      1.0  0.16619  0.23889  0.36304  1.0000
  H   H106      1.0  0.11483  0.16472  0.45706  1.0000
  H   H107      1.0  0.08405  0.30262  0.12968  1.0000
  H   H108      1.0  0.03791  0.28046  0.19937  1.0000
  C   C69       1.0  0.31795  0.03522  0.31882  1.0000
  C   C70       1.0  0.32705  0.11176  0.38352  1.0000
  H   H109      1.0  0.01269  0.41749  0.35181  1.0000
  H   H110      1.0  0.32638  0.04948  0.24730  1.0000
  H   H111      1.0  0.10676  0.30435  0.15299  1.0000
  H   H112      1.0  0.03093  0.50100  0.15572  1.0000
  H   H113      1.0  0.06540  0.18824  0.44302  1.0000
  C   C71       1.0  0.09930  0.30757  0.12812  1.0000
  C   C72       1.0  0.06844  0.40827  0.25638  1.0000
  C   C73       1.0  0.00788  0.42173  0.16196  1.0000
  C   C74       1.0  0.31639  0.03893  0.35697  1.0000
  C   C75       1.0  0.00950  0.40743  0.29969  1.0000
  C   C76       1.0  0.02114  0.45616  0.02597  1.0000
  H   H114      1.0  0.02120  0.41671  0.29031  1.0000
  C   C77       1.0  0.01698  0.23833  0.32600  1.0000
  H   H115      1.0  0.03049  0.38231  0.12268  1.0000
  C   C78       1.0  0.13341  0.18266  0.42477  1.0000
  C   C79       1.0  0.05839  0.39206  0.27541  1.0000
  H   H116      1.0  0.02970  0.24439  0.33750  1.0000
  H   H117      1.0  0.25978  0.05659  0.23946  1.0000
  C   C80       1.0  0.01872  0.22970  0.29380  1.0000
  C   C81       1.0  0.14967  0.22083  0.39701  1.0000
  H   H118      1.0  0.15638  0.16875  0.02398  1.0000
  H   H119      1.0  0.00258  0.38456  0.24040  1.0000
  C   C82       1.0  0.03643  0.28273  0.22718  1.0000
  H   H120      1.0  0.31497  0.02935  0.16182  1.0000
  C   C83       1.0  0.02423  0.34070  0.30798  1.0000
  H   H121      1.0  0.22156  0.15819  0.01205  1.0000
  N   N3        1.0  0.02582  0.37421  0.27585  1.0000
  H   H122      1.0  0.31309  0.15156  0.43204  1.0000
  H   H123      1.0  0.09690  0.21894  0.44841  1.0000
  C   C84       1.0  0.03988  0.38600  0.25579  1.0000
  C   C85       1.0  0.03682  0.35498  0.28775  1.0000
  H   H124      1.0  0.12746  0.17845  0.39966  1.0000
  H   H125      1.0  0.32681  0.08132  0.40178  1.0000
  H   H126      1.0  0.04932  0.27442  0.23986  1.0000
  C   C86       1.0  0.32949  0.12914  0.24829  1.0000
  C   C87       1.0  0.13524  0.21064  0.46554  1.0000
  H   H127      1.0  0.32802  0.15797  0.48768  1.0000
  H   H128      1.0  0.11959  0.23191  0.40997  1.0000
  H   H129      1.0  0.03190  0.39959  0.24432  1.0000
  H   H130      1.0  0.04572  0.37738  0.23357  1.0000
  H   H131      1.0  0.04408  0.34678  0.26605  1.0000
  H   H132      1.0  0.04936  0.35806  0.30477  1.0000
  H   H133      1.0  0.01669  0.33973  0.23555  1.0000
  N   N4        1.0  0.12471  0.20314  0.43470  1.0000
  H   H134      1.0  0.01571  0.44727  0.04739  1.0000
  H   H135      1.0  0.13939  0.16776  0.47373  1.0000
  C   C88       1.0  0.00847  0.37044  0.25317  1.0000
  H   H136      1.0  0.14339  0.25139  0.37869  1.0000
  H   H137      1.0  0.14971  0.18268  0.42094  1.0000
  H   H138      1.0  0.12964  0.14220  0.41246  1.0000
  H   H139      1.0  0.14277  0.23255  0.34622  1.0000
  C   C89       1.0  0.26505  0.04457  0.25760  1.0000
  H   H140      1.0  0.18071  0.16247  0.00645  1.0000
  C   C90       1.0  0.10264  0.20363  0.44111  1.0000
  H   H141      1.0  0.02696  0.31093  0.33026  1.0000
  H   H142      1.0  0.05867  0.42238  0.25579  1.0000
  H   H143      1.0  0.06590  0.24991  0.47436  1.0000
  H   H144      1.0  0.22530  0.21299  0.14651  1.0000
  H   H145      1.0  0.18632  0.02092  0.19925  1.0000
  H   H146      1.0  0.15780  0.20706  0.38718  1.0000
  H   H147      1.0  0.01035  0.33795  0.29444  1.0000
  H   H148      1.0  0.15115  0.20474  0.46574  1.0000
  H   H149      1.0  0.05466  0.39793  0.30099  1.0000
  H   H150      1.0  0.01757  0.25903  0.23325  1.0000
  H   H151      1.0  0.06942  0.37893  0.27829  1.0000
  C   C91       1.0  0.08961  0.19728  0.41129  1.0000
  H   H152      1.0  0.02069  0.42459  0.14700  1.0000
  H   H153      1.0  0.11244  0.47716  0.02667  1.0000
  C   C92       1.0  0.12779  0.21715  0.40534  1.0000
  C   C93       1.0  0.31301  0.03452  0.18842  1.0000
  C   C94       1.0  0.12530  0.47322  0.00975  1.0000
  H   H154      1.0  0.30969  0.04802  0.30564  1.0000
  H   H155      1.0  0.30881  0.15568  0.30598  1.0000
  H   H156      1.0  0.01792  0.23411  0.42755  1.0000
  C   C95       1.0  0.08670  0.42167  0.02253  1.0000
  H   H157      1.0  0.15422  0.14527  0.42904  1.0000
  H   H158      1.0  0.31211  0.05110  0.18833  1.0000
  H   H159      1.0  0.06478  0.37326  0.04027  1.0000
  H   H160      1.0  0.33096  0.14394  0.23823  1.0000
  H   H161      1.0  0.33109  0.00944  0.20857  1.0000
  H   H162      1.0  0.03503  0.44844  0.01580  1.0000
  H   H163      1.0  0.31022  0.02181  0.31321  1.0000
  H   H164      1.0  0.00660  0.21386  0.40692  1.0000
  C   C96       1.0  0.01240  0.21916  0.43139  1.0000
  H   H165      1.0  0.30053  0.04125  0.36444  1.0000
  H   H166      1.0  0.00333  0.21490  0.25464  1.0000
  C   C97       1.0  0.02623  0.49934  0.18254  1.0000
  H   H167      1.0  0.09614  0.36755  0.00904  1.0000
  H   H168      1.0  0.33422  0.17521  0.39835  1.0000
  N   N5        1.0  0.33406  0.14844  0.36829  1.0000
  C   C98       1.0  0.00097  0.41717  0.33203  1.0000
  H   H169      1.0  0.00302  0.22417  0.48286  1.0000
  C   C99       1.0  0.00360  0.50226  0.18561  1.0000
  H   H170      1.0  0.09350  0.50277  0.19703  1.0000
  H   H171      1.0  0.12331  0.19088  0.50472  1.0000
  H   H172      1.0  0.11211  0.21599  0.50428  1.0000
  H   H173      1.0  0.12641  0.45693  0.00503  1.0000
  Fe  Fe13      1.0  0.10419  0.25320  0.60990  1.0000
  S   S25       1.0  0.09389  0.22294  0.62019  1.0000
  S   S26       1.0  0.11797  0.26154  0.55903  1.0000
  Fe  Fe14      1.0  0.09493  0.26696  0.68359  1.0000
  S   S27       1.0  0.08387  0.23717  0.69785  1.0000
  S   S28       1.0  0.09292  0.28854  0.72860  1.0000
  Fe  Fe15      1.0  0.11076  0.22324  0.67007  1.0000
  S   S29       1.0  0.13276  0.19586  0.68341  1.0000
  Fe  Fe16      1.0  0.06816  0.23952  0.64734  1.0000
  S   S30       1.0  0.03610  0.23586  0.63192  1.0000
  S   S31       1.0  0.12249  0.25290  0.65826  1.0000
  S   S32       1.0  0.07779  0.26981  0.63452  1.0000
  Fe  Fe17      1.0  0.24085  0.11729  0.87212  1.0000
  S   S33       1.0  0.21327  0.10937  0.84471  1.0000
  S   S34       1.0  0.24732  0.10806  0.92764  1.0000
  Fe  Fe18      1.0  0.26142  0.12818  0.80474  1.0000
  S   S35       1.0  0.23479  0.12145  0.77367  1.0000
  S   S36       1.0  0.28700  0.13904  0.77321  1.0000
  Fe  Fe19      1.0  0.21608  0.13758  0.81359  1.0000
  S   S37       1.0  0.18935  0.16101  0.80568  1.0000
  Fe  Fe20      1.0  0.23411  0.09408  0.80678  1.0000
  S   S38       1.0  0.23481  0.06396  0.78045  1.0000
  S   S39       1.0  0.24282  0.14622  0.84327  1.0000
  S   S40       1.0  0.26155  0.10015  0.83562  1.0000
  H   H174      1.0  0.08913  0.47990  0.81247  1.0000
  Fe  Fe21      1.0  0.08515  0.41316  0.87595  1.0000
  S   S41       1.0  0.09270  0.42707  0.82585  1.0000
  S   S42       1.0  0.10323  0.41648  0.92370  1.0000
  Fe  Fe22      1.0  0.04643  0.39996  0.84945  1.0000
  S   S43       1.0  0.05017  0.41373  0.79817  1.0000
  S   S44       1.0  0.02033  0.38370  0.86587  1.0000
  Fe  Fe23      1.0  0.08139  0.39930  0.80242  1.0000
  S   S45       1.0  0.09406  0.38217  0.75610  1.0000
  Fe  Fe24      1.0  0.06088  0.44004  0.82602  1.0000
  S   S46       1.0  0.04737  0.47219  0.81919  1.0000
  S   S47       1.0  0.07700  0.38447  0.85284  1.0000
  S   S48       1.0  0.05405  0.42722  0.87697  1.0000
  C   C100      1.0  0.32424  0.07101  0.68249  1.0000
  H   H175      1.0  0.31187  0.15659  0.83444  1.0000
  H   H176      1.0  0.28671  0.09489  0.95849  1.0000
  H   H177      1.0  0.31263  0.08693  0.95509  1.0000
  H   H178      1.0  0.13320  0.45834  0.84455  1.0000
  C   C101      1.0  0.29327  0.15637  0.96868  1.0000
  C   C102      1.0  0.22453  0.04242  0.79657  1.0000
  C   C103      1.0  0.23067  0.02372  0.78268  1.0000
  C   C104      1.0  0.20972  0.04362  0.82140  1.0000
  H   H179      1.0  0.24193  0.02259  0.76321  1.0000
  H   H180      1.0  0.20476  0.05793  0.83215  1.0000
  C   C105      1.0  0.31189  0.12997  0.76303  1.0000
  C   C106      1.0  0.31974  0.13503  0.73133  1.0000
  H   H181      1.0  0.32227  0.11770  0.97687  1.0000
  H   H182      1.0  0.03777  0.26834  0.78694  1.0000
  H   H183      1.0  0.25586  0.09129  0.99376  1.0000
  C   C107      1.0  0.32432  0.11896  0.78609  1.0000
  H   H184      1.0  0.31043  0.14381  0.71344  1.0000
  C   C108      1.0  0.10751  0.26067  0.51740  1.0000
  H   H185      1.0  0.10182  0.46448  0.95906  1.0000
  H   H186      1.0  0.31874  0.11539  0.81090  1.0000
  C   C109      1.0  0.09312  0.31470  0.73506  1.0000
  C   C110      1.0  0.09883  0.32775  0.70981  1.0000
  C   C111      1.0  0.09890  0.34834  0.71658  1.0000
  C   C112      1.0  0.09308  0.35618  0.74847  1.0000
  C   C113      1.0  0.08707  0.34312  0.77350  1.0000
  C   C114      1.0  0.08726  0.32252  0.76689  1.0000
  H   H187      1.0  0.10343  0.32199  0.68522  1.0000
  H   H188      1.0  0.10361  0.35828  0.69703  1.0000
  H   H189      1.0  0.08262  0.34886  0.79816  1.0000
  H   H190      1.0  0.08285  0.31259  0.78668  1.0000
  C   C115      1.0  0.14821  0.18618  0.71789  1.0000
  C   C116      1.0  0.14410  0.19093  0.75184  1.0000
  C   C117      1.0  0.15679  0.18303  0.77813  1.0000
  C   C118      1.0  0.17367  0.16996  0.77113  1.0000
  C   C119      1.0  0.17750  0.16470  0.73727  1.0000
  C   C120      1.0  0.16485  0.17273  0.71094  1.0000
  H   H191      1.0  0.13096  0.20044  0.75794  1.0000
  H   H192      1.0  0.15344  0.18701  0.80419  1.0000
  H   H193      1.0  0.19038  0.15471  0.73128  1.0000
  H   H194      1.0  0.16812  0.16870  0.68488  1.0000
  C   C121      1.0  0.30135  0.10829  0.91483  1.0000
  C   C122      1.0  0.08938  0.41591  0.96154  1.0000
  C   C123      1.0  0.07008  0.40988  0.96139  1.0000
  H   H195      1.0  0.21572  0.02356  0.96501  1.0000
  H   H196      1.0  0.06370  0.40487  0.93810  1.0000
  C   C124      1.0  0.13042  0.46513  0.89862  1.0000
  C   C125      1.0  0.10342  0.48085  0.95791  1.0000
  H   H197      1.0  0.30612  0.06634  0.90550  1.0000
  H   H198      1.0  0.08469  0.35242  0.95751  1.0000
  H   H199      1.0  0.07926  0.25135  0.53311  1.0000
  C   C126      1.0  0.23210  0.13644  0.97468  1.0000
  C   C127      1.0  0.24192  0.11759  0.96915  1.0000
  C   C128      1.0  0.05911  0.40980  0.99162  1.0000
  H   H200      1.0  0.22710  0.14565  0.95320  1.0000
  H   H201      1.0  0.23776  0.01313  0.94448  1.0000
  C   C129      1.0  0.29362  0.07214  0.92186  1.0000
  H   H202      1.0  0.17745  0.02389  0.75750  1.0000
  H   H203      1.0  0.13365  0.45673  0.92263  1.0000
  H   H204      1.0  0.28892  0.05860  0.67665  1.0000
  H   H205      1.0  0.32764  0.05492  0.67675  1.0000
  H   H206      1.0  0.01019  0.32977  0.79495  1.0000
  H   H207      1.0  0.03607  0.37319  0.75373  1.0000
  H   H208      1.0  0.06946  0.46536  0.93755  1.0000
  H   H209      1.0  0.22650  0.02815  0.88964  1.0000
  H   H210      1.0  0.16143  0.13460  0.84961  1.0000
  C   C130      1.0  0.28880  0.05382  0.70360  1.0000
  H   H211      1.0  0.33357  0.15356  0.96078  1.0000
  H   H212      1.0  0.06800  0.46683  0.89181  1.0000
  H   H213      1.0  0.04426  0.40494  0.99129  1.0000
  C   C131      1.0  0.10809  0.47235  0.89688  1.0000
  H   H214      1.0  0.01374  0.44529  0.92956  1.0000
  H   H215      1.0  0.28688  0.11093  0.90136  1.0000
  H   H216      1.0  0.06589  0.34035  0.98037  1.0000
  H   H217      1.0  0.05243  0.29540  0.67430  1.0000
  H   H218      1.0  0.26191  0.03840  0.65821  1.0000
  H   H219      1.0  0.06424  0.36723  0.97629  1.0000
  H   H220      1.0  0.00446  0.29102  0.70904  1.0000
  H   H221      1.0  0.29955  0.04034  0.70523  1.0000
  H   H222      1.0  0.01413  0.33885  0.69354  1.0000
  H   H223      1.0  0.07263  0.31328  0.62783  1.0000
  C   C132      1.0  0.14028  0.21210  0.52950  1.0000
  H   H224      1.0  0.16814  0.10832  0.85529  1.0000
  H   H225      1.0  0.30536  0.15478  0.98783  1.0000
  H   H226      1.0  0.28064  0.15360  0.89055  1.0000
  H   H227      1.0  0.01433  0.39649  0.79598  1.0000
  H   H228      1.0  0.31967  0.07595  0.78587  1.0000
  H   H229      1.0  0.06273  0.27418  0.77654  1.0000
  H   H230      1.0  0.01248  0.42832  0.98192  1.0000
  C   C133      1.0  0.29067  0.13596  0.95223  1.0000
  H   H231      1.0  0.04045  0.49094  0.94143  1.0000
  H   H232      1.0  0.02461  0.30042  0.75731  1.0000
  H   H233      1.0  0.30329  0.17640  0.86319  1.0000
  H   H234      1.0  0.05415  0.25072  0.76388  1.0000
  H   H235      1.0  0.07109  0.33702  0.64926  1.0000
  C   C134      1.0  0.29926  0.16264  0.85043  1.0000
  C   C135      1.0  0.06305  0.32720  0.63246  1.0000
  C   C136      1.0  0.01330  0.29807  0.68907  1.0000
  H   H236      1.0  0.00151  0.44918  0.83724  1.0000
  H   H237      1.0  0.12779  0.43744  0.87117  1.0000
  N   N6        1.0  0.30743  0.12745  0.92998  1.0000
  C   C137      1.0  0.32880  0.01013  0.77697  1.0000
  H   H238      1.0  0.01871  0.45661  0.86831  1.0000
  C   C138      1.0  0.07887  0.49329  0.91505  1.0000
  N   N7        1.0  0.29548  0.06974  0.72685  1.0000
  C   C139      1.0  0.29409  0.06215  0.76293  1.0000
  C   C140      1.0  0.28231  0.08893  0.72385  1.0000
  C   C141      1.0  0.28174  0.09941  0.68874  1.0000
  C   C142      1.0  0.26782  0.04692  0.71041  1.0000
  C   C143      1.0  0.30373  0.07439  0.79084  1.0000
  C   C144      1.0  0.26722  0.11809  0.68849  1.0000
  C   C145      1.0  0.30243  0.06438  0.82564  1.0000
  H   H239      1.0  0.32008  0.08840  0.72892  1.0000
  H   H240      1.0  0.30092  0.04656  0.76486  1.0000
  H   H241      1.0  0.27827  0.06169  0.77057  1.0000
  H   H242      1.0  0.26685  0.08673  0.73177  1.0000
  H   H243      1.0  0.28724  0.10008  0.74192  1.0000
  H   H244      1.0  0.28822  0.12566  0.97372  1.0000
  H   H245      1.0  0.25630  0.05966  0.70932  1.0000
  H   H246      1.0  0.29599  0.08951  0.79257  1.0000
  H   H247      1.0  0.01199  0.36362  0.75610  1.0000
  H   H248      1.0  0.27201  0.12919  0.70684  1.0000
  H   H249      1.0  0.26680  0.12502  0.66280  1.0000
  H   H250      1.0  0.25207  0.11434  0.69516  1.0000
  H   H251      1.0  0.30845  0.07405  0.84520  1.0000
  H   H252      1.0  0.28677  0.06213  0.83210  1.0000
  H   H253      1.0  0.31124  0.04971  0.82615  1.0000
  H   H254      1.0  0.20348  0.03816  0.90899  1.0000
  H   H255      1.0  0.02832  0.23307  0.70506  1.0000
  C   C146      1.0  0.32615  0.12251  0.95073  1.0000
  H   H256      1.0  0.27638  0.13710  0.93800  1.0000
  H   H257      1.0  0.31325  0.07717  0.66354  1.0000
  H   H258      1.0  0.02038  0.28544  0.67391  1.0000
  C   C147      1.0  0.04377  0.48264  0.91755  1.0000
  H   H259      1.0  0.26172  0.16647  0.96957  1.0000
  H   H260      1.0  0.09131  0.48754  0.97450  1.0000
  C   C148      1.0  0.29380  0.14708  0.87650  1.0000
  C   C149      1.0  0.13621  0.45089  0.86953  1.0000
  H   H261      1.0  0.04839  0.34537  0.71701  1.0000
  C   C150      1.0  0.20086  0.02632  0.83161  1.0000
  C   C151      1.0  0.26234  0.03171  0.68410  1.0000
  C   C152      1.0  0.04671  0.31060  0.68197  1.0000
  H   H262      1.0  0.27702  0.08947  0.66848  1.0000
  H   H263      1.0  0.29656  0.10443  0.68265  1.0000
  H   H264      1.0  0.00269  0.46220  0.76309  1.0000
  H   H265      1.0  0.14389  0.22783  0.52676  1.0000
  C   C153      1.0  0.12308  0.48478  0.97620  1.0000
  N   N8        1.0  0.02909  0.30966  0.70521  1.0000
  C   C154      1.0  0.03623  0.29871  0.73725  1.0000
  C   C155      1.0  0.04209  0.27598  0.73368  1.0000
  C   C156      1.0  0.04962  0.26682  0.76742  1.0000
  C   C157      1.0  0.29885  0.09090  0.94032  1.0000
  C   C158      1.0  0.31691  0.07333  0.71975  1.0000
  H   H266      1.0  0.13999  0.47767  0.89676  1.0000
  H   H267      1.0  0.04952  0.30524  0.74780  1.0000
  H   H268      1.0  0.05933  0.31638  0.69576  1.0000
  H   H269      1.0  0.01206  0.46750  0.97705  1.0000
  H   H270      1.0  0.04041  0.33699  0.75789  1.0000
  H   H271      1.0  0.06023  0.33498  0.60774  1.0000
  C   C159      1.0  0.04333  0.32265  0.64852  1.0000
  H   H272      1.0  0.29647  0.16778  0.94951  1.0000
  C   C160      1.0  0.01426  0.23535  0.69180  1.0000
  C   C161      1.0  0.31146  0.14128  0.90086  1.0000
  H   H273      1.0  0.15229  0.44600  0.87116  1.0000
  H   H274      1.0  0.18909  0.02742  0.85025  1.0000
  C   C162      1.0  0.01404  0.23739  0.65641  1.0000
  C   C163      1.0  0.06578  0.47547  0.91562  1.0000
  H   H275      1.0  0.03543  0.31376  0.62998  1.0000
  H   H276      1.0  0.03474  0.33718  0.65233  1.0000
  C   C164      1.0  0.21941  0.03350  0.91370  1.0000
  H   H277      1.0  0.13294  0.21050  0.55449  1.0000
  H   H278      1.0  0.26725  0.03959  0.73564  1.0000
  C   C165      1.0  0.24836  0.10593  0.99756  1.0000
  H   H279      1.0  0.02919  0.26794  0.72594  1.0000
  N   N9        1.0  0.16564  0.09434  0.75114  1.0000
  C   C166      1.0  0.16203  0.09698  0.78869  1.0000
  C   C167      1.0  0.16046  0.07377  0.74141  1.0000
  C   C168      1.0  0.18717  0.09709  0.74384  1.0000
  C   C169      1.0  0.15298  0.10960  0.73051  1.0000
  C   C170      1.0  0.13042  0.11150  0.73847  1.0000
  C   C171      1.0  0.16421  0.11815  0.80251  1.0000
  C   C172      1.0  0.19447  0.09104  0.70766  1.0000
  C   C173      1.0  0.17322  0.05617  0.75858  1.0000
  C   C174      1.0  0.16828  0.03612  0.74434  1.0000
  C   C175      1.0  0.11970  0.12844  0.71767  1.0000
  C   C176      1.0  0.15882  0.11953  0.84014  1.0000
  C   C177      1.0  0.21550  0.09682  0.70133  1.0000
  H   H280      1.0  0.17276  0.08686  0.80353  1.0000
  H   H281      1.0  0.14711  0.09245  0.79580  1.0000
  H   H282      1.0  0.14477  0.07175  0.74814  1.0000
  H   H283      1.0  0.16120  0.07185  0.71336  1.0000
  H   H284      1.0  0.19713  0.08875  0.76258  1.0000
  H   H285      1.0  0.19012  0.11299  0.74733  1.0000
  H   H286      1.0  0.15854  0.12466  0.73297  1.0000
  H   H287      1.0  0.15422  0.10617  0.70298  1.0000
  H   H288      1.0  0.12747  0.11485  0.76560  1.0000
  H   H289      1.0  0.12369  0.09752  0.73208  1.0000
  H   H290      1.0  0.17979  0.12172  0.79974  1.0000
  H   H291      1.0  0.15458  0.12977  0.78891  1.0000
  H   H292      1.0  0.18483  0.09848  0.68776  1.0000
  H   H293      1.0  0.19467  0.07468  0.70419  1.0000
  H   H294      1.0  0.18932  0.05729  0.75471  1.0000
  H   H295      1.0  0.17035  0.05581  0.78631  1.0000
  H   H296      1.0  0.15237  0.03383  0.74853  1.0000
  H   H297      1.0  0.17161  0.03527  0.71675  1.0000
  H   H298      1.0  0.24739  0.02686  0.68996  1.0000
  H   H299      1.0  0.12161  0.12570  0.69003  1.0000
  H   H300      1.0  0.10357  0.12952  0.72351  1.0000
  H   H301      1.0  0.12553  0.14294  0.72399  1.0000
  H   H302      1.0  0.22683  0.04672  0.92230  1.0000
  C   C178      1.0  0.08072  0.49375  0.81889  1.0000
  H   H303      1.0  0.13631  0.48047  0.96060  1.0000
  H   H304      1.0  0.21592  0.11326  0.70302  1.0000
  H   H305      1.0  0.22600  0.08942  0.72011  1.0000
  H   H306      1.0  0.22040  0.09207  0.67552  1.0000
  H   H307      1.0  0.00608  0.35346  0.81629  1.0000
  H   H308      1.0  0.05395  0.27300  0.71458  1.0000
  H   H309      1.0  0.03492  0.46956  0.91709  1.0000
  C   C179      1.0  0.02540  0.36435  0.74009  1.0000
  N   N10       1.0  0.15875  0.25258  0.75347  1.0000
  C   C180      1.0  0.13771  0.24669  0.75130  1.0000
  C   C181      1.0  0.16615  0.25600  0.71789  1.0000
  C   C182      1.0  0.17138  0.23612  0.77126  1.0000
  C   C183      1.0  0.15969  0.27161  0.77327  1.0000
  C   C184      1.0  0.14434  0.28909  0.76283  1.0000
  C   C185      1.0  0.12746  0.24319  0.78589  1.0000
  C   C186      1.0  0.19394  0.23874  0.77310  1.0000
  C   C187      1.0  0.17010  0.23712  0.69559  1.0000
  C   C188      1.0  0.17776  0.24249  0.66049  1.0000
  C   C189      1.0  0.14824  0.30834  0.78110  1.0000
  C   C190      1.0  0.10565  0.23944  0.78115  1.0000
  C   C191      1.0  0.20524  0.22014  0.78844  1.0000
  H   H310      1.0  0.13719  0.23269  0.73672  1.0000
  H   H311      1.0  0.12818  0.25790  0.73639  1.0000
  H   H312      1.0  0.15529  0.26629  0.70369  1.0000
  H   H313      1.0  0.18003  0.26380  0.71841  1.0000
  H   H314      1.0  0.16928  0.22149  0.75942  1.0000
  H   H315      1.0  0.16653  0.23456  0.79804  1.0000
  H   H316      1.0  0.15788  0.26887  0.80096  1.0000
  H   H317      1.0  0.17470  0.27716  0.77085  1.0000
  H   H318      1.0  0.12910  0.28562  0.76972  1.0000
  H   H319      1.0  0.14469  0.29211  0.73513  1.0000
  H   H320      1.0  0.13475  0.22988  0.79900  1.0000
  H   H321      1.0  0.12799  0.25619  0.80288  1.0000
  H   H322      1.0  0.19672  0.25163  0.78937  1.0000
  H   H323      1.0  0.20033  0.24123  0.74769  1.0000
  H   H324      1.0  0.18138  0.22617  0.70709  1.0000
  H   H325      1.0  0.15634  0.22959  0.69191  1.0000
  H   H326      1.0  0.17982  0.22882  0.64480  1.0000
  H   H327      1.0  0.16697  0.25329  0.64727  1.0000
  H   H328      1.0  0.19226  0.24903  0.66266  1.0000
  H   H329      1.0  0.16303  0.31314  0.77412  1.0000
  H   H330      1.0  0.13674  0.32036  0.77351  1.0000
  H   H331      1.0  0.14747  0.30626  0.80906  1.0000
  H   H332      1.0  0.09730  0.25266  0.76950  1.0000
  H   H333      1.0  0.10421  0.22627  0.76481  1.0000
  H   H334      1.0  0.09890  0.23657  0.80620  1.0000
  H   H335      1.0  0.19980  0.21717  0.81444  1.0000
  H   H336      1.0  0.20338  0.20689  0.77239  1.0000
  H   H337      1.0  0.22133  0.22233  0.78997  1.0000
  H   H338      1.0  0.31828  0.01111  0.79863  1.0000
  H   H339      1.0  0.33187  0.00408  0.70469  1.0000
  H   H340      1.0  0.31231  0.10272  0.89524  1.0000
  H   H341      1.0  0.19422  0.00442  0.93364  1.0000
  H   H342      1.0  0.27676  0.17861  0.99960  1.0000
  C   C192      1.0  0.03523  0.34349  0.73313  1.0000
  H   H343      1.0  0.15425  0.20215  0.52919  1.0000
  C   C193      1.0  0.02055  0.33019  0.71553  1.0000
  H   H344      1.0  0.14290  0.11714  0.84388  1.0000
  C   C194      1.0  0.22170  0.01711  0.94081  1.0000
  C   C195      1.0  0.00552  0.45905  0.99788  1.0000
  H   H345      1.0  0.07653  0.50086  0.88996  1.0000
  H   H346      1.0  0.32390  0.13445  0.88509  1.0000
  H   H347      1.0  0.01107  0.33091  0.84056  1.0000
  H   H348      1.0  0.29068  0.06043  0.94077  1.0000
  H   H349      1.0  0.10023  0.45864  0.90057  1.0000
  H   H350      1.0  0.28002  0.07531  0.90612  1.0000
  H   H351      1.0  0.32720  0.06261  0.73437  1.0000
  N   N11       1.0  0.10078  0.48833  0.92169  1.0000
  C   C196      1.0  0.09774  0.42158  0.99226  1.0000
  C   C197      1.0  0.06017  0.49409  0.82327  1.0000
  H   H352      1.0  0.27319  0.01836  0.68464  1.0000
  H   H353      1.0  0.10462  0.47749  0.87044  1.0000
  H   H354      1.0  0.31661  0.15548  0.91015  1.0000
  H   H355      1.0  0.11278  0.42591  0.99259  1.0000
  C   C198      1.0  0.27445  0.16414  0.98748  1.0000
  H   H356      1.0  0.31577  0.00477  0.64895  1.0000
  H   H357      1.0  0.12327  0.50086  0.98214  1.0000
  H   H358      1.0  0.28962  0.13395  0.86209  1.0000
  H   H359      1.0  0.28634  0.16667  0.83352  1.0000
  H   H360      1.0  0.02120  0.37219  0.71589  1.0000
  H   H361      1.0  0.00779  0.32883  0.73296  1.0000
  C   C199      1.0  0.07457  0.35364  0.97974  1.0000
  C   C200      1.0  0.00347  0.33741  0.81750  1.0000
  C   C201      1.0  0.08830  0.25509  0.51173  1.0000
  H   H362      1.0  0.00100  0.42675  0.88536  1.0000
  H   H363      1.0  0.32053  0.01578  0.75423  1.0000
  H   H364      1.0  0.00417  0.31944  0.64755  1.0000
  H   H365      1.0  0.03935  0.49233  0.89538  1.0000
  C   C202      1.0  0.20714  0.00760  0.81792  1.0000
  C   C203      1.0  0.22222  0.00635  0.79361  1.0000
  C   C204      1.0  0.00272  0.45554  0.86299  1.0000
  Fe  Fe25      1.0  0.07998  0.65167  0.18659  1.0000
  S   S49       1.0  0.07540  0.66092  0.13195  1.0000
  S   S50       1.0  0.07370  0.67172  0.23287  1.0000
  Fe  Fe26      1.0  0.08213  0.60627  0.16844  1.0000
  S   S51       1.0  0.07731  0.61229  0.11278  1.0000
  S   S52       1.0  0.08710  0.57613  0.19527  1.0000
  Fe  Fe27      1.0  0.09842  0.63590  0.11973  1.0000
  S   S53       1.0  0.12428  0.63844  0.08444  1.0000
  Fe  Fe28      1.0  0.05480  0.63659  0.12939  1.0000
  S   S54       1.0  0.02505  0.64237  0.10468  1.0000
  S   S55       1.0  0.10498  0.62838  0.17474  1.0000
  S   S56       1.0  0.05765  0.62882  0.18455  1.0000
  Fe  Fe29      1.0  0.10390  0.77221  0.31557  1.0000
  S   S57       1.0  0.09461  0.79681  0.27855  1.0000
  S   S58       1.0  0.11840  0.74355  0.29258  1.0000
  Fe  Fe30      1.0  0.08992  0.79709  0.37782  1.0000
  S   S59       1.0  0.07947  0.82316  0.34387  1.0000
  S   S60       1.0  0.08206  0.80299  0.43418  1.0000
  Fe  Fe31      1.0  0.06683  0.80042  0.31037  1.0000
  S   S61       1.0  0.03674  0.80127  0.28379  1.0000
  Fe  Fe32      1.0  0.10835  0.81742  0.31494  1.0000
  S   S62       1.0  0.12779  0.84366  0.30409  1.0000
  S   S63       1.0  0.07548  0.77475  0.34536  1.0000
  S   S64       1.0  0.11944  0.79247  0.35083  1.0000
  Fe  Fe33      1.0  0.20204  0.90366  0.17647  1.0000
  S   S65       1.0  0.23401  0.89497  0.16248  1.0000
  S   S66       1.0  0.18053  0.87912  0.18511  1.0000
  Fe  Fe34      1.0  0.20879  0.94851  0.16997  1.0000
  S   S67       1.0  0.24082  0.94258  0.15595  1.0000
  S   S68       1.0  0.19451  0.97988  0.17899  1.0000
  Fe  Fe35      1.0  0.23011  0.91881  0.12159  1.0000
  S   S69       1.0  0.24522  0.91558  0.06938  1.0000
  Fe  Fe36      1.0  0.24199  0.91955  0.19741  1.0000
  S   S70       1.0  0.26287  0.91838  0.24317  1.0000
  S   S71       1.0  0.19771  0.92623  0.13330  1.0000
  S   S72       1.0  0.21029  0.92665  0.21359  1.0000
  C   C205      1.0  0.23559  0.91412  0.02724  1.0000
  H   H366      1.0  0.09198  0.76922  0.18198  1.0000
  H   H367      1.0  0.01272  0.75396  0.33353  1.0000
  H   H368      1.0  0.10355  0.59688  0.05419  1.0000
  C   C206      1.0  0.26375  0.98127  0.22583  1.0000
  H   H369      1.0  0.28046  0.98828  0.16213  1.0000
  C   C207      1.0  0.20843  0.00102  0.17465  1.0000
  H   H370      1.0  0.13554  0.59531  0.07592  1.0000
  H   H371      1.0  0.23300  0.98557  0.14860  1.0000
  H   H372      1.0  0.24806  0.86566  0.28432  1.0000
  C   C208      1.0  0.28873  0.92089  0.24528  1.0000
  C   C209      1.0  0.30022  0.92348  0.21632  1.0000
  H   H373      1.0  0.11343  0.54194  0.03624  1.0000
  H   H374      1.0  0.30963  0.88327  0.23373  1.0000
  C   C210      1.0  0.29812  0.91923  0.27716  1.0000
  H   H375      1.0  0.29317  0.92492  0.19164  1.0000
  H   H376      1.0  0.01852  0.72767  0.32582  1.0000
  H   H377      1.0  0.28939  0.91710  0.29968  1.0000
  C   C211      1.0  0.08718  0.79201  0.47501  1.0000
  H   H378      1.0  0.01590  0.63733  0.27242  1.0000
  H   H379      1.0  0.04719  0.76489  0.48653  1.0000
  H   H380      1.0  0.10757  0.76788  0.45813  1.0000
  H   H381      1.0  0.32411  0.86902  0.20353  1.0000
  C   C212      1.0  0.01466  0.79946  0.30748  1.0000
  C   C213      1.0  0.01470  0.80053  0.34290  1.0000
  C   C214      1.0  0.08969  0.57685  0.02054  1.0000
  H   H382      1.0  0.02835  0.80283  0.35615  1.0000
  H   H383      1.0  0.29768  0.80023  0.17728  1.0000
  C   C215      1.0  0.16698  0.86880  0.21931  1.0000
  C   C216      1.0  0.16642  0.87674  0.25212  1.0000
  C   C217      1.0  0.15459  0.86869  0.27761  1.0000
  C   C218      1.0  0.14321  0.85247  0.27100  1.0000
  C   C219      1.0  0.14398  0.84440  0.23828  1.0000
  C   C220      1.0  0.15569  0.85254  0.21272  1.0000
  H   H384      1.0  0.17492  0.88923  0.25781  1.0000
  H   H385      1.0  0.15416  0.87514  0.30271  1.0000
  H   H386      1.0  0.13537  0.83199  0.23257  1.0000
  H   H387      1.0  0.15593  0.84619  0.18755  1.0000
  H   H388      1.0  0.23091  0.95983  0.06494  1.0000
  C   C221      1.0  0.12255  0.63441  0.04028  1.0000
  H   H389      1.0  0.02708  0.65067  0.23822  1.0000
  H   H390      1.0  0.15420  0.63438  0.03446  1.0000
  H   H391      1.0  0.09072  0.63392  0.03754  1.0000
  C   C222      1.0  0.08659  0.55239  0.17584  1.0000
  C   C223      1.0  0.08964  0.53506  0.19600  1.0000
  H   H392      1.0  0.12311  0.61520  0.32985  1.0000
  H   H393      1.0  0.09168  0.53641  0.22312  1.0000
  H   H394      1.0  0.08094  0.56354  0.12523  1.0000
  H   H395      1.0  0.19700  0.98156  0.25526  1.0000
  H   H396      1.0  0.16090  0.58702  0.02970  1.0000
  C   C224      1.0  0.01526  0.61266  0.14758  1.0000
  C   C225      1.0  0.02874  0.83062  0.44699  1.0000
  H   H397      1.0  0.03086  0.60768  0.14824  1.0000
  C   C226      1.0  0.08590  0.69230  0.24778  1.0000
  C   C227      1.0  0.07934  0.70141  0.27824  1.0000
  C   C228      1.0  0.08860  0.71770  0.29143  1.0000
  C   C229      1.0  0.10480  0.72483  0.27455  1.0000
  C   C230      1.0  0.11147  0.71559  0.24423  1.0000
  C   C231      1.0  0.10187  0.69962  0.23058  1.0000
  H   H398      1.0  0.06711  0.69574  0.29190  1.0000
  H   H399      1.0  0.08359  0.72441  0.31513  1.0000
  H   H400      1.0  0.12415  0.72085  0.23126  1.0000
  H   H401      1.0  0.10702  0.69284  0.20703  1.0000
  H   H402      1.0  0.02367  0.62450  0.23414  1.0000
  H   H403      1.0  0.28584  0.97273  0.28370  1.0000
  H   H404      1.0  0.06298  0.62766  0.26000  1.0000
  H   H405      1.0  0.25934  0.96598  0.22081  1.0000
  H   H406      1.0  0.00734  0.59103  0.18468  1.0000
  N   N12       1.0  0.02068  0.77354  0.45715  1.0000
  C   C232      1.0  0.02885  0.79288  0.44612  1.0000
  C   C233      1.0  0.02534  0.75841  0.42949  1.0000
  C   C234      1.0  0.32104  0.92341  0.21921  1.0000
  C   C235      1.0  0.04768  0.75416  0.42043  1.0000
  C   C236      1.0  0.07765  0.80083  0.50366  1.0000
  C   C237      1.0  0.05035  0.73994  0.39039  1.0000
  H   H407      1.0  0.33001  0.84069  0.24252  1.0000
  H   H408      1.0  0.04456  0.79309  0.45438  1.0000
  H   H409      1.0  0.02938  0.79405  0.41788  1.0000
  H   H410      1.0  0.01716  0.76320  0.40571  1.0000
  H   H411      1.0  0.02020  0.74371  0.43664  1.0000
  H   H412      1.0  0.06120  0.58197  0.04650  1.0000
  H   H413      1.0  0.05610  0.74695  0.44207  1.0000
  H   H414      1.0  0.05460  0.76802  0.41364  1.0000
  H   H415      1.0  0.03843  0.67981  0.18741  1.0000
  C   C238      1.0  0.22351  0.96639  0.01214  1.0000
  H   H416      1.0  0.22907  0.99802  0.24684  1.0000
  H   H417      1.0  0.15504  0.57896  0.14322  1.0000
  H   H418      1.0  0.04358  0.72578  0.39581  1.0000
  N   N13       1.0  0.29409  0.86022  0.21009  1.0000
  C   C239      1.0  0.33035  0.99144  0.28203  1.0000
  H   H419      1.0  0.03312  0.51071  0.19792  1.0000
  H   H420      1.0  0.13297  0.82455  0.46617  1.0000
  H   H421      1.0  0.15158  0.54058  0.07957  1.0000
  C   C240      1.0  0.13679  0.51392  0.07480  1.0000
  H   H422      1.0  0.28094  0.90714  0.13901  1.0000
  H   H423      1.0  0.11159  0.58305  0.11958  1.0000
  H   H424      1.0  0.05911  0.60870  0.29118  1.0000
  H   H425      1.0  0.08338  0.52984  0.09891  1.0000
  H   H426      1.0  0.04368  0.82985  0.45899  1.0000
  H   H427      1.0  0.14737  0.59623  0.26953  1.0000
  H   H428      1.0  0.19853  0.95607  0.26994  1.0000
  C   C241      1.0  0.26424  0.97389  0.32356  1.0000
  H   H429      1.0  0.07379  0.60236  0.25409  1.0000
  C   C242      1.0  0.32365  0.85520  0.25261  1.0000
  C   C243      1.0  0.09055  0.51594  0.18130  1.0000
  C   C244      1.0  0.14108  0.53453  0.06151  1.0000
  H   H430      1.0  0.31348  0.85228  0.27380  1.0000
  C   C245      1.0  0.27983  0.85860  0.23952  1.0000
  H   H431      1.0  0.20516  0.91194  0.04153  1.0000
  H   H432      1.0  0.14831  0.53245  0.03634  1.0000
  H   H433      1.0  0.10868  0.97531  0.14043  1.0000
  H   H434      1.0  0.27139  0.87050  0.17344  1.0000
  H   H435      1.0  0.29188  0.99558  0.22036  1.0000
  H   H436      1.0  0.14927  0.56597  0.30530  1.0000
  H   H437      1.0  0.24816  0.97281  0.32794  1.0000
  C   C246      1.0  0.23667  0.98806  0.26641  1.0000
  H   H438      1.0  0.15641  0.80970  0.46402  1.0000
  C   C247      1.0  0.10448  0.63239  0.02343  1.0000
  H   H439      1.0  0.14376  0.67015  0.18903  1.0000
  C   C248      1.0  0.08384  0.55037  0.14085  1.0000
  C   C249      1.0  0.00837  0.62867  0.12670  1.0000
  H   H440      1.0  0.04347  0.74701  0.36720  1.0000
  H   H441      1.0  0.30460  0.86595  0.14077  1.0000
  C   C250      1.0  0.22786  0.97311  0.04823  1.0000
  H   H442      1.0  0.01559  0.81326  0.48555  1.0000
  C   C251      1.0  0.13690  0.59567  0.29113  1.0000
  H   H443      1.0  0.24785  0.84029  0.26910  1.0000
  H   H444      1.0  0.29182  0.95763  0.34094  1.0000
  H   H445      1.0  0.26706  0.95654  0.27716  1.0000
  H   H446      1.0  0.31855  0.88728  0.46556  1.0000
  H   H447      1.0  0.12313  0.58963  0.28178  1.0000
  C   C252      1.0  0.31884  0.91962  0.28013  1.0000
  H   H448      1.0  0.11231  0.54588  0.08034  1.0000
  H   H449      1.0  0.14696  0.62107  0.31685  1.0000
  H   H450      1.0  0.32591  0.91789  0.30478  1.0000
  C   C253      1.0  0.20510  0.97054  0.27253  1.0000
  C   C254      1.0  0.13254  0.61665  0.30695  1.0000
  H   H451      1.0  0.30464  0.97595  0.17126  1.0000
  C   C255      1.0  0.29953  0.84008  0.19454  1.0000
  H   H452      1.0  0.28281  0.84400  0.25284  1.0000
  H   H453      1.0  0.27103  0.94251  0.33639  1.0000
  N   N14       1.0  0.03567  0.73874  0.22298  1.0000
  C   C256      1.0  0.02862  0.73157  0.25693  1.0000
  C   C257      1.0  0.03965  0.72098  0.19993  1.0000
  C   C258      1.0  0.05522  0.74762  0.22886  1.0000
  C   C259      1.0  0.02130  0.75452  0.20673  1.0000
  H   H454      1.0  0.02028  0.84467  0.45495  1.0000
  C   C260      1.0  0.02731  0.74742  0.28543  1.0000
  C   C261      1.0  0.06670  0.75318  0.19654  1.0000
  C   C262      1.0  0.02176  0.70898  0.19113  1.0000
  C   C263      1.0  0.02845  0.69004  0.17153  1.0000
  C   C264      1.0  0.10285  0.58049  0.05201  1.0000
  C   C265      1.0  0.01326  0.74216  0.31388  1.0000
  H   H455      1.0  0.29714  0.89664  0.10631  1.0000
  H   H456      1.0  0.03873  0.71876  0.26632  1.0000
  H   H457      1.0  0.01393  0.72556  0.25468  1.0000
  H   H458      1.0  0.04544  0.72565  0.17498  1.0000
  H   H459      1.0  0.05156  0.71045  0.21118  1.0000
  H   H460      1.0  0.06544  0.73719  0.24390  1.0000
  H   H461      1.0  0.05298  0.76141  0.24443  1.0000
  H   H462      1.0  0.02463  0.76974  0.21490  1.0000
  H   H463      1.0  0.02332  0.75456  0.17866  1.0000
  H   H464      1.0  0.06644  0.73640  0.38544  1.0000
  H   H465      1.0  0.21074  0.95711  0.01382  1.0000
  H   H466      1.0  0.04227  0.74870  0.29665  1.0000
  C   C266      1.0  0.13957  0.58599  0.14323  1.0000
  H   H467      1.0  0.05670  0.76124  0.17773  1.0000
  H   H468      1.0  0.07382  0.73947  0.18461  1.0000
  N   N15       1.0  0.25891  0.98716  0.26192  1.0000
  C   C267      1.0  0.33047  0.92130  0.25109  1.0000
  H   H469      1.0  0.15068  0.50386  0.07527  1.0000
  H   H470      1.0  0.08987  0.96178  0.12006  1.0000
  H   H471      1.0  0.01537  0.68203  0.16429  1.0000
  H   H472      1.0  0.31144  0.88804  0.16217  1.0000
  H   H473      1.0  0.08778  0.56078  0.01737  1.0000
  C   C268      1.0  0.06903  0.58770  0.02414  1.0000
  C   C269      1.0  0.12695  0.57616  0.11698  1.0000
  H   H474      1.0  0.02196  0.76222  0.27516  1.0000
  H   H475      1.0  0.26836  0.98834  0.33363  1.0000
  H   H476      1.0  0.06751  0.81400  0.50039  1.0000
  H   H477      1.0  0.16340  0.56026  0.02941  1.0000
  H   H478      1.0  0.29502  0.96928  0.22991  1.0000
  N   N16       1.0  0.12417  0.91803  0.17911  1.0000
  C   C270      1.0  0.10886  0.91274  0.20485  1.0000
  C   C271      1.0  0.11549  0.93423  0.15517  1.0000
  C   C272      1.0  0.12966  0.89957  0.15835  1.0000
  C   C273      1.0  0.14284  0.92411  0.19582  1.0000
  C   C274      1.0  0.14025  0.94175  0.22080  1.0000
  C   C275      1.0  0.11563  0.89613  0.23090  1.0000
  C   C276      1.0  0.14348  0.90224  0.12740  1.0000
  C   C277      1.0  0.09963  0.94997  0.16967  1.0000
  C   C278      1.0  0.14022  0.63272  0.02175  1.0000
  C   C279      1.0  0.15990  0.94521  0.23812  1.0000
  C   C280      1.0  0.09913  0.89278  0.25629  1.0000
  C   C281      1.0  0.14718  0.88275  0.10782  1.0000
  H   H479      1.0  0.09549  0.90800  0.19146  1.0000
  H   H480      1.0  0.10343  0.92587  0.22006  1.0000
  H   H481      1.0  0.12760  0.94228  0.14358  1.0000
  H   H482      1.0  0.10783  0.92757  0.13342  1.0000
  H   H483      1.0  0.11599  0.89325  0.14876  1.0000
  H   H484      1.0  0.13745  0.88769  0.17432  1.0000
  H   H485      1.0  0.15074  0.91119  0.20931  1.0000
  H   H486      1.0  0.15360  0.92850  0.17638  1.0000
  H   H487      1.0  0.12942  0.93906  0.24106  1.0000
  H   H488      1.0  0.13547  0.95569  0.20685  1.0000
  H   H489      1.0  0.11946  0.88169  0.21818  1.0000
  H   H490      1.0  0.12864  0.90025  0.24565  1.0000
  H   H491      1.0  0.15814  0.90663  0.13577  1.0000
  H   H492      1.0  0.13700  0.91373  0.10933  1.0000
  H   H493      1.0  0.08552  0.94298  0.17416  1.0000
  H   H494      1.0  0.10423  0.95626  0.19402  1.0000
  H   H495      1.0  0.32744  0.99302  0.30966  1.0000
  N   N17       1.0  0.12359  0.57010  0.05216  1.0000
  H   H496      1.0  0.13081  0.51500  0.10109  1.0000
  H   H497      1.0  0.17087  0.94944  0.21897  1.0000
  H   H498      1.0  0.15757  0.95761  0.25652  1.0000
  H   H499      1.0  0.16596  0.93160  0.25202  1.0000
  H   H500      1.0  0.10439  0.88078  0.27450  1.0000
  H   H501      1.0  0.09504  0.90655  0.27094  1.0000
  H   H502      1.0  0.08581  0.88806  0.24300  1.0000
  H   H503      1.0  0.15413  0.87077  0.12463  1.0000
  H   H504      1.0  0.13305  0.87800  0.09743  1.0000
  H   H505      1.0  0.15748  0.88490  0.08640  1.0000
  N   N18       1.0  0.12330  0.63254  0.28332  1.0000
  C   C282      1.0  0.13786  0.63607  0.25527  1.0000
  C   C283      1.0  0.10455  0.62610  0.26738  1.0000
  C   C284      1.0  0.11817  0.65129  0.30336  1.0000
  C   C285      1.0  0.13596  0.66063  0.32025  1.0000
  C   C286      1.0  0.13327  0.65538  0.23385  1.0000
  C   C287      1.0  0.08857  0.61934  0.29226  1.0000
  C   C288      1.0  0.12980  0.68164  0.33297  1.0000
  C   C289      1.0  0.14751  0.65623  0.20386  1.0000
  C   C290      1.0  0.07002  0.61420  0.27309  1.0000
  H   H506      1.0  0.13875  0.62339  0.23715  1.0000
  H   H507      1.0  0.15321  0.63636  0.26550  1.0000
  H   H508      1.0  0.10797  0.61382  0.24893  1.0000
  H   H509      1.0  0.09728  0.63840  0.25184  1.0000
  H   H510      1.0  0.10971  0.66276  0.28727  1.0000
  H   H511      1.0  0.10793  0.64843  0.32452  1.0000
  H   H512      1.0  0.14857  0.66171  0.30261  1.0000
  H   H513      1.0  0.14139  0.65143  0.34244  1.0000
  H   H514      1.0  0.11793  0.65637  0.22374  1.0000
  H   H515      1.0  0.13485  0.66887  0.24931  1.0000
  H   H516      1.0  0.08375  0.63128  0.31039  1.0000
  H   H517      1.0  0.09424  0.60589  0.30684  1.0000
  H   H518      1.0  0.12550  0.69173  0.31126  1.0000
  H   H519      1.0  0.11711  0.68153  0.35084  1.0000
  H   H520      1.0  0.14245  0.68769  0.34635  1.0000
  H   H521      1.0  0.16308  0.65619  0.21297  1.0000
  H   H522      1.0  0.14624  0.64336  0.18669  1.0000
  H   H523      1.0  0.16060  0.58574  0.32669  1.0000
  C   C291      1.0  0.28592  0.98103  0.21559  1.0000
  H   H524      1.0  0.25288  0.85257  0.20986  1.0000
  H   H525      1.0  0.23224  0.99495  0.29117  1.0000
  H   H526      1.0  0.02738  0.74995  0.49420  1.0000
  H   H527      1.0  0.25299  0.87748  0.22536  1.0000
  H   H528      1.0  0.03053  0.83102  0.41893  1.0000
  C   C292      1.0  0.08511  0.53127  0.12606  1.0000
  H   H529      1.0  0.13316  0.58413  0.16892  1.0000
  H   H530      1.0  0.28313  0.96184  0.17171  1.0000
  C   C293      1.0  0.25722  0.86158  0.23158  1.0000
  H   H531      1.0  0.27201  0.95929  0.37168  1.0000
  C   C294      1.0  0.13301  0.57402  0.01820  1.0000
  H   H532      1.0  0.22833  0.96253  0.23690  1.0000
  H   H533      1.0  0.22876  0.85909  0.25590  1.0000
  H   H534      1.0  0.31685  0.99650  0.26747  1.0000
  C   C295      1.0  0.24480  0.85629  0.26221  1.0000
  C   C296      1.0  0.08325  0.76645  0.20514  1.0000
  H   H535      1.0  0.28107  0.88958  0.19689  1.0000
  C   C297      1.0  0.14283  0.81294  0.47953  1.0000
  H   H536      1.0  0.01398  0.70425  0.21412  1.0000
  C   C298      1.0  0.21546  0.91238  0.02060  1.0000
  C   C299      1.0  0.14630  0.58083  0.31725  1.0000
  H   H537      1.0  0.09347  0.75918  0.22455  1.0000
  H   H538      1.0  0.09438  0.57601  0.07454  1.0000
  H   H539      1.0  0.27479  0.88514  0.11654  1.0000
  H   H540      1.0  0.27849  0.80415  0.14549  1.0000
  H   H541      1.0  0.27577  0.84020  0.15565  1.0000
  C   C300      1.0  0.09517  0.96728  0.14473  1.0000
  C   C301      1.0  0.28277  0.83031  0.17568  1.0000
  C   C302      1.0  0.08871  0.51395  0.14612  1.0000
  H   H542      1.0  0.07003  0.60400  0.02700  1.0000
  H   H543      1.0  0.03640  0.69372  0.14792  1.0000
  C   C303      1.0  0.29878  0.87979  0.15370  1.0000
  H   H544      1.0  0.13506  0.79908  0.48158  1.0000
  H   H545      1.0  0.00270  0.81471  0.44552  1.0000
  C   C304      1.0  0.12162  0.54816  0.05765  1.0000
  C   C305      1.0  0.27551  0.95730  0.34431  1.0000
  H   H546      1.0  0.07684  0.78104  0.21491  1.0000
  C   C306      1.0  0.13500  0.57900  0.08053  1.0000
  C   C307      1.0  0.28716  0.89297  0.12741  1.0000
  H   H547      1.0  0.01118  0.71807  0.17454  1.0000
  C   C308      1.0  0.22714  0.96799  0.26339  1.0000
  H   H548      1.0  0.27134  0.82624  0.19401  1.0000
  C   C309      1.0  0.28863  0.97650  0.17784  1.0000
  C   C310      1.0  0.01705  0.63889  0.24441  1.0000
  H   H549      1.0  0.12716  0.56011  0.12376  1.0000
  C   C311      1.0  0.01760  0.81275  0.45768  1.0000
  C   C312      1.0  0.29084  0.81106  0.15834  1.0000
  C   C313      1.0  0.10015  0.77490  0.47980  1.0000
  H   H550      1.0  0.28222  0.87016  0.25901  1.0000
  H   H551      1.0  0.13972  0.60220  0.13774  1.0000
  C   C314      1.0  0.28539  0.87518  0.18422  1.0000
  H   H552      1.0  0.13610  0.57927  0.33903  1.0000
  H   H553      1.0  0.23427  0.95633  0.28047  1.0000
  H   H554      1.0  0.24112  0.98181  0.04860  1.0000
  H   H555      1.0  0.08340  0.97799  0.15531  1.0000
  C   C315      1.0  0.26950  0.97194  0.28536  1.0000
  C   C316      1.0  0.00192  0.60303  0.16778  1.0000
  H   H556      1.0  0.15074  0.57292  0.08105  1.0000
  H   H557      1.0  0.32992  0.92477  0.19662  1.0000
  H   H558      1.0  0.20311  0.97559  0.29919  1.0000
  H   H559      1.0  0.21492  0.98233  0.05872  1.0000
  H   H560      1.0  0.25481  0.99109  0.20781  1.0000
  C   C317      1.0  0.15598  0.57361  0.01683  1.0000
  H   H561      1.0  0.00503  0.57863  0.03113  1.0000
  H   H562      1.0  0.32165  0.96124  0.28313  1.0000
  H   H563      1.0  0.30207  0.81421  0.13889  1.0000
  C   C318      1.0  0.22704  0.99960  0.15901  1.0000
  H   H564      1.0  0.31228  0.84084  0.17687  1.0000
  C   C319      1.0  0.31288  0.86790  0.22390  1.0000
  C   C320      1.0  0.03075  0.76562  0.48935  1.0000
  H   H565      1.0  0.30492  0.82916  0.21451  1.0000
  H   H566      1.0  0.12576  0.50725  0.05839  1.0000
  H   H567      1.0  0.12782  0.58924  0.00880  1.0000
  Fe  Fe37      1.0  0.09237  0.77670  0.63633  1.0000
  S   S73       1.0  0.08658  0.80919  0.64831  1.0000
  S   S74       1.0  0.09925  0.76502  0.58243  1.0000
  Fe  Fe38      1.0  0.08850  0.76417  0.71218  1.0000
  S   S75       1.0  0.08294  0.79641  0.72810  1.0000
  S   S76       1.0  0.08608  0.74258  0.75747  1.0000
  Fe  Fe39      1.0  0.06259  0.79912  0.68259  1.0000
  S   S77       1.0  0.03151  0.81512  0.68345  1.0000
  Fe  Fe40      1.0  0.10763  0.80363  0.69273  1.0000
  S   S78       1.0  0.13554  0.82124  0.69976  1.0000
  S   S79       1.0  0.06712  0.76690  0.66807  1.0000
  S   S80       1.0  0.11449  0.77108  0.67945  1.0000
  Fe  Fe41      1.0  0.19630  0.91197  0.79387  1.0000
  S   S81       1.0  0.22516  0.89762  0.81534  1.0000
  S   S82       1.0  0.16839  0.89699  0.77531  1.0000
  Fe  Fe42      1.0  0.20697  0.95438  0.81884  1.0000
  S   S83       1.0  0.23596  0.94227  0.84142  1.0000
  S   S84       1.0  0.19533  0.98633  0.83116  1.0000
  Fe  Fe43      1.0  0.23938  0.92435  0.79295  1.0000
  S   S85       1.0  0.26505  0.92958  0.75647  1.0000
  Fe  Fe44      1.0  0.21945  0.91705  0.86205  1.0000
  S   S86       1.0  0.21237  0.90845  0.91720  1.0000
  S   S87       1.0  0.21055  0.93779  0.76962  1.0000
  S   S88       1.0  0.19031  0.93008  0.84112  1.0000
  Fe  Fe45      1.0  0.09725  0.61559  0.89309  1.0000
  S   S89       1.0  0.10471  0.60604  0.83979  1.0000
  S   S90       1.0  0.12365  0.61983  0.92673  1.0000
  Fe  Fe46      1.0  0.05370  0.61499  0.87945  1.0000
  S   S91       1.0  0.05768  0.60515  0.82523  1.0000
  S   S92       1.0  0.02396  0.62178  0.90379  1.0000
  Fe  Fe47      1.0  0.08204  0.58361  0.84683  1.0000
  S   S93       1.0  0.09284  0.55132  0.83422  1.0000
  Fe  Fe48      1.0  0.07984  0.62844  0.82314  1.0000
  S   S94       1.0  0.08202  0.64842  0.77595  1.0000
  S   S95       1.0  0.07628  0.59200  0.90130  1.0000
  S   S96       1.0  0.07418  0.63958  0.87607  1.0000
  C   C321      1.0  0.32758  0.89867  0.53360  1.0000
  H   H568      1.0  0.13678  0.76999  0.61488  1.0000
  H   H569      1.0  0.26436  0.91578  0.00430  1.0000
  H   H570      1.0  0.11898  0.81435  0.53243  1.0000
  H   H571      1.0  0.02776  0.58654  0.86138  1.0000
  C   C322      1.0  0.28832  0.91860  0.74171  1.0000
  C   C323      1.0  0.29690  0.92723  0.71325  1.0000
  H   H572      1.0  0.22705  0.99205  0.78267  1.0000
  H   H573      1.0  0.26616  0.97486  0.79622  1.0000
  C   C324      1.0  0.29887  0.90242  0.75797  1.0000
  H   H574      1.0  0.11386  0.75376  0.51614  1.0000
  H   H575      1.0  0.14672  0.78659  0.56249  1.0000
  H   H576      1.0  0.29250  0.89557  0.77985  1.0000
  H   H577      1.0  0.19313  0.90915  0.98211  1.0000
  C   C325      1.0  0.02252  0.71983  0.80939  1.0000
  C   C326      1.0  0.01237  0.58976  0.86817  1.0000
  H   H578      1.0  0.02683  0.77258  0.68507  1.0000
  C   C327      1.0  0.02416  0.73213  0.84211  1.0000
  C   C328      1.0  0.08414  0.71644  0.76137  1.0000
  C   C329      1.0  0.08783  0.70334  0.73427  1.0000
  C   C330      1.0  0.08694  0.68262  0.73916  1.0000
  C   C331      1.0  0.08214  0.67473  0.77102  1.0000
  C   C332      1.0  0.07775  0.68790  0.79781  1.0000
  C   C333      1.0  0.07908  0.70857  0.79314  1.0000
  H   H579      1.0  0.09176  0.70911  0.70969  1.0000
  H   H580      1.0  0.09019  0.67261  0.71814  1.0000
  H   H581      1.0  0.07342  0.68211  0.82211  1.0000
  H   H582      1.0  0.07612  0.71857  0.81426  1.0000
  C   C334      1.0  0.15981  0.87542  0.75496  1.0000
  C   C335      1.0  0.13951  0.87202  0.75703  1.0000
  C   C336      1.0  0.13186  0.85549  0.74094  1.0000
  C   C337      1.0  0.14435  0.84206  0.72208  1.0000
  C   C338      1.0  0.16467  0.84541  0.72016  1.0000
  C   C339      1.0  0.17236  0.86184  0.73650  1.0000
  H   H583      1.0  0.12955  0.88238  0.77101  1.0000
  H   H584      1.0  0.11621  0.85332  0.74273  1.0000
  H   H585      1.0  0.17458  0.83522  0.70575  1.0000
  H   H586      1.0  0.18795  0.86417  0.73433  1.0000
  C   C340      1.0  0.05906  0.53004  0.83427  1.0000
  C   C341      1.0  0.07964  0.52968  0.82987  1.0000
  C   C342      1.0  0.04939  0.51236  0.83068  1.0000
  H   H587      1.0  0.05059  0.54395  0.84009  1.0000
  C   C343      1.0  0.13426  0.70838  0.81878  1.0000
  H   H588      1.0  0.16318  0.76659  0.60908  1.0000
  H   H589      1.0  0.00732  0.67140  0.78777  1.0000
  C   C344      1.0  0.03287  0.70576  0.73762  1.0000
  C   C345      1.0  0.31791  0.89529  0.74616  1.0000
  H   H590      1.0  0.15391  0.62722  0.97314  1.0000
  H   H591      1.0  0.30848  0.98131  0.82146  1.0000
  C   C346      1.0  0.22181  0.91131  0.95911  1.0000
  C   C347      1.0  0.11626  0.54283  0.93012  1.0000
  C   C348      1.0  0.10431  0.62813  0.98828  1.0000
  H   H592      1.0  0.25228  0.91326  0.94483  1.0000
  H   H593      1.0  0.15791  0.64847  0.81827  1.0000
  C   C349      1.0  0.09429  0.77585  0.54144  1.0000
  C   C350      1.0  0.08102  0.79274  0.53655  1.0000
  H   H594      1.0  0.16353  0.64488  0.87883  1.0000
  H   H595      1.0  0.07313  0.79935  0.55807  1.0000
  C   C351      1.0  0.24192  0.91320  0.96571  1.0000
  H   H596      1.0  0.10624  0.51102  0.81822  1.0000
  H   H597      1.0  0.04343  0.71673  0.72998  1.0000
  H   H598      1.0  0.07893  0.85163  0.61896  1.0000
  H   H599      1.0  0.03345  0.51285  0.83376  1.0000
  H   H600      1.0  0.29734  0.99261  0.75938  1.0000
  H   H601      1.0  0.05192  0.76371  0.54939  1.0000
  H   H602      1.0  0.00470  0.80793  0.56478  1.0000
  C   C352      1.0  0.31943  0.99021  0.66190  1.0000
  C   C353      1.0  0.27687  0.98223  0.81238  1.0000
  H   H603      1.0  0.04579  0.71054  0.86636  1.0000
  H   H604      1.0  0.15299  0.78430  0.63990  1.0000
  H   H605      1.0  0.03264  0.79240  0.51992  1.0000
  C   C354      1.0  0.02973  0.66196  0.82427  1.0000
  C   C355      1.0  0.19631  0.96838  0.95111  1.0000
  H   H606      1.0  0.14405  0.85298  0.63037  1.0000
  H   H607      1.0  0.02338  0.70170  0.68532  1.0000
  H   H608      1.0  0.15627  0.58740  0.96646  1.0000
  H   H609      1.0  0.11948  0.54627  0.90312  1.0000
  C   C356      1.0  0.32677  0.97348  0.71911  1.0000
  C   C357      1.0  0.02778  0.74648  0.76707  1.0000
  H   H610      1.0  0.30506  0.88186  0.60575  1.0000
  H   H611      1.0  0.09898  0.52330  0.95936  1.0000
  H   H612      1.0  0.09044  0.62627  0.97539  1.0000
  H   H613      1.0  0.03343  0.77651  0.57586  1.0000
  H   H614      1.0  0.17962  0.57481  0.97978  1.0000
  H   H615      1.0  0.29848  0.95857  0.59518  1.0000
  C   C358      1.0  0.01065  0.65851  0.80511  1.0000
  C   C359      1.0  0.12971  0.82587  0.53632  1.0000
  C   C360      1.0  0.14005  0.62866  0.98697  1.0000
  H   H616      1.0  0.30800  0.94333  0.63027  1.0000
  H   H617      1.0  0.02768  0.67533  0.84062  1.0000
  H   H618      1.0  0.03435  0.64878  0.84044  1.0000
  C   C361      1.0  0.30765  0.88290  0.57789  1.0000
  H   H619      1.0  0.17806  0.85707  0.64856  1.0000
  H   H620      1.0  0.18158  0.97932  0.90347  1.0000
  H   H621      1.0  0.08817  0.53183  0.91948  1.0000
  N   N19       1.0  0.32498  0.97356  0.75736  1.0000
  C   C362      1.0  0.11127  0.67541  0.90612  1.0000
  H   H622      1.0  0.21237  0.99597  0.90338  1.0000
  C   C363      1.0  0.16326  0.57409  0.98011  1.0000
  H   H623      1.0  0.30504  0.86316  0.53446  1.0000
  H   H624      1.0  0.29424  0.96728  0.75169  1.0000
  C   C364      1.0  0.17568  0.66350  0.91601  1.0000
  N   N20       1.0  0.21463  0.97986  0.95140  1.0000
  C   C365      1.0  0.17508  0.85427  0.62131  1.0000
  H   H625      1.0  0.29447  0.89218  0.56803  1.0000
  H   H626      1.0  0.13616  0.91967  0.88003  1.0000
  C   C366      1.0  0.23130  0.96688  0.93541  1.0000
  H   H627      1.0  0.02671  0.57112  0.98281  1.0000
  H   H628      1.0  0.17102  0.67631  0.93263  1.0000
  C   C367      1.0  0.18693  0.96499  0.91578  1.0000
  C   C368      1.0  0.31594  0.92022  0.70172  1.0000
  H   H629      1.0  0.02740  0.74822  0.73891  1.0000
  C   C369      1.0  0.10226  0.52618  0.93226  1.0000
  C   C370      1.0  0.16912  0.95251  0.91902  1.0000
  C   C371      1.0  0.15162  0.67589  0.86910  1.0000
  H   H630      1.0  0.12699  0.64432  0.86581  1.0000
  H   H631      1.0  0.12977  0.90117  0.84983  1.0000
  H   H632      1.0  0.32232  0.92712  0.68002  1.0000
  C   C372      1.0  0.21894  0.98456  0.98805  1.0000
  H   H633      1.0  0.09618  0.58249  0.99684  1.0000
  H   H634      1.0  0.23268  0.95191  0.94761  1.0000
  H   H635      1.0  0.22784  0.96396  0.90840  1.0000
  H   H636      1.0  0.15423  0.71106  0.77574  1.0000
  C   C373      1.0  0.10370  0.76694  0.51279  1.0000
  H   H637      1.0  0.14577  0.67939  0.80156  1.0000
  H   H638      1.0  0.11300  0.65306  0.83072  1.0000
  H   H639      1.0  0.19775  0.95693  0.89862  1.0000
  H   H640      1.0  0.33214  0.95260  0.79851  1.0000
  C   C374      1.0  0.03116  0.71866  0.87198  1.0000
  H   H641      1.0  0.26917  0.94640  0.94216  1.0000
  C   C375      1.0  0.02122  0.82986  0.58905  1.0000
  H   H642      1.0  0.03638  0.79654  0.77976  1.0000
  N   N21       1.0  0.13251  0.82937  0.57393  1.0000
  H   H643      1.0  0.16229  0.95087  0.89362  1.0000
  C   C376      1.0  0.11537  0.84350  0.58601  1.0000
  C   C377      1.0  0.13214  0.81014  0.59384  1.0000
  H   H644      1.0  0.04273  0.78106  0.74369  1.0000
  C   C378      1.0  0.09428  0.83877  0.57443  1.0000
  H   H645      1.0  0.08991  0.67861  0.94714  1.0000
  H   H646      1.0  0.18850  0.66720  0.90025  1.0000
  H   H647      1.0  0.15069  0.85388  0.56618  1.0000
  C   C379      1.0  0.07822  0.85291  0.59082  1.0000
  H   H648      1.0  0.01662  0.84182  0.57040  1.0000
  H   H649      1.0  0.27417  0.86217  0.56843  1.0000
  H   H650      1.0  0.11726  0.85903  0.57732  1.0000
  H   H651      1.0  0.11505  0.84400  0.61429  1.0000
  H   H652      1.0  0.13154  0.81317  0.62161  1.0000
  H   H653      1.0  0.11826  0.80296  0.58856  1.0000
  C   C380      1.0  0.15615  0.84349  0.61809  1.0000
  H   H654      1.0  0.13040  0.53845  0.94368  1.0000
  H   H655      1.0  0.09147  0.82338  0.58145  1.0000
  C   C381      1.0  0.04028  0.78095  0.77156  1.0000
  H   H656      1.0  0.16456  0.83066  0.56998  1.0000
  H   H657      1.0  0.30773  0.98016  0.65569  1.0000
  C   C382      1.0  0.02978  0.69259  0.70695  1.0000
  H   H658      1.0  0.31933  0.85160  0.56944  1.0000
  H   H659      1.0  0.01395  0.64486  0.78993  1.0000
  H   H660      1.0  0.12807  0.56351  0.99880  1.0000
  H   H661      1.0  0.28260  0.96549  0.92274  1.0000
  H   H662      1.0  0.09242  0.84037  0.54651  1.0000
  C   C383      1.0  0.12221  0.62614  0.97010  1.0000
  H   H663      1.0  0.28852  0.85050  0.60323  1.0000
  H   H664      1.0  0.31810  0.96167  0.70838  1.0000
  C   C384      1.0  0.09224  0.68529  0.92172  1.0000
  H   H665      1.0  0.10113  0.68409  0.85562  1.0000
  C   C385      1.0  0.24873  0.91454  0.99953  1.0000
  H   H666      1.0  0.09332  0.70155  0.92480  1.0000
  H   H667      1.0  0.07918  0.68284  0.90554  1.0000
  N   N22       1.0  0.17608  0.85839  0.87149  1.0000
  C   C386      1.0  0.18351  0.84459  0.84334  1.0000
  C   C387      1.0  0.16183  0.84769  0.89303  1.0000
  C   C388      1.0  0.16609  0.87712  0.85577  1.0000
  C   C389      1.0  0.19284  0.86417  0.89364  1.0000
  C   C390      1.0  0.20630  0.84670  0.90943  1.0000
  C   C391      1.0  0.20053  0.85172  0.82120  1.0000
  C   C392      1.0  0.15590  0.89247  0.88083  1.0000
  C   C393      1.0  0.14164  0.84426  0.87605  1.0000
  C   C394      1.0  0.12881  0.83264  0.89966  1.0000
  C   C395      1.0  0.22296  0.85452  0.93056  1.0000
  C   C396      1.0  0.20736  0.83601  0.79493  1.0000
  C   C397      1.0  0.14230  0.90817  0.86195  1.0000
  H   H668      1.0  0.17121  0.84214  0.82539  1.0000
  H   H669      1.0  0.18846  0.82954  0.85364  1.0000
  H   H670      1.0  0.16873  0.83273  0.90072  1.0000
  H   H671      1.0  0.15877  0.85561  0.91743  1.0000
  H   H672      1.0  0.15517  0.87344  0.83601  1.0000
  H   H673      1.0  0.17719  0.88535  0.84195  1.0000
  H   H674      1.0  0.20243  0.87400  0.87942  1.0000
  H   H675      1.0  0.18690  0.87344  0.91524  1.0000
  H   H676      1.0  0.21332  0.83690  0.88955  1.0000
  H   H677      1.0  0.19760  0.83757  0.92648  1.0000
  H   H678      1.0  0.19547  0.86556  0.80720  1.0000
  H   H679      1.0  0.21369  0.85459  0.83668  1.0000
  H   H680      1.0  0.16734  0.90028  0.89454  1.0000
  H   H681      1.0  0.14667  0.88544  0.89993  1.0000
  H   H682      1.0  0.13307  0.85861  0.86983  1.0000
  H   H683      1.0  0.14387  0.83562  0.85228  1.0000
  H   H684      1.0  0.12565  0.84098  0.92357  1.0000
  H   H685      1.0  0.11445  0.83047  0.88696  1.0000
  H   H686      1.0  0.13635  0.81774  0.90578  1.0000
  H   H687      1.0  0.21673  0.86407  0.95154  1.0000
  H   H688      1.0  0.23239  0.84183  0.94178  1.0000
  H   H689      1.0  0.23246  0.86342  0.91443  1.0000
  H   H690      1.0  0.21883  0.84188  0.77832  1.0000
  H   H691      1.0  0.21391  0.82221  0.80768  1.0000
  H   H692      1.0  0.19472  0.83232  0.77872  1.0000
  C   C398      1.0  0.03567  0.76700  0.55303  1.0000
  H   H693      1.0  0.10953  0.65927  0.90506  1.0000
  H   H694      1.0  0.11718  0.70018  0.87530  1.0000
  H   H695      1.0  0.29423  0.92333  0.58429  1.0000
  H   H696      1.0  0.18800  0.84502  0.61081  1.0000
  C   C399      1.0  0.30329  0.97733  0.76657  1.0000
  C   C400      1.0  0.11506  0.68425  0.87056  1.0000
  H   H697      1.0  0.11973  0.71594  0.82652  1.0000
  H   H698      1.0  0.03997  0.69594  0.75769  1.0000
  H   H699      1.0  0.12362  0.67814  0.92364  1.0000
  C   C401      1.0  0.15841  0.65835  0.89351  1.0000
  H   H700      1.0  0.01978  0.68086  0.71350  1.0000
  C   C402      1.0  0.21018  0.99892  0.93105  1.0000
  H   H701      1.0  0.19964  0.95326  0.96243  1.0000
  H   H702      1.0  0.04180  0.66405  0.80585  1.0000
  H   H703      1.0  0.14582  0.71213  0.83716  1.0000
  C   C403      1.0  0.09036  0.51144  0.82207  1.0000
  H   H704      1.0  0.11951  0.68314  0.80132  1.0000
  C   C404      1.0  0.13921  0.71702  0.78411  1.0000
  H   H705      1.0  0.32486  0.95327  0.60003  1.0000
  C   C405      1.0  0.13289  0.68551  0.81688  1.0000
  H   H706      1.0  0.13893  0.73352  0.78572  1.0000
  C   C406      1.0  0.15058  0.77778  0.61450  1.0000
  N   N23       1.0  0.13220  0.67450  0.85043  1.0000
  C   C407      1.0  0.12804  0.65334  0.84238  1.0000
  H   H707      1.0  0.14638  0.65418  0.91036  1.0000
  C   C408      1.0  0.14360  0.64155  0.81936  1.0000
  H   H708      1.0  0.14709  0.62641  0.83051  1.0000
  C   C409      1.0  0.13609  0.63872  0.78314  1.0000
  H   H709      1.0  0.02295  0.83655  0.61451  1.0000
  H   H710      1.0  0.10914  0.55658  0.94186  1.0000
  H   H711      1.0  0.12809  0.71337  0.76479  1.0000
  H   H712      1.0  0.12715  0.50482  0.92068  1.0000
  H   H713      1.0  0.13146  0.65317  0.77061  1.0000
  N   N24       1.0  0.01412  0.73099  0.77856  1.0000
  H   H714      1.0  0.03281  0.72786  0.89497  1.0000
  H   H715      1.0  0.15108  0.68999  0.88387  1.0000
  H   H716      1.0  0.28881  0.93959  0.70024  1.0000
  H   H717      1.0  0.02167  0.76841  0.80853  1.0000
  C   C410      1.0  0.30928  0.92848  0.58115  1.0000
  C   C411      1.0  0.28785  0.85262  0.57522  1.0000
  C   C412      1.0  0.32056  0.99330  0.70024  1.0000
  H   H718      1.0  0.12326  0.62944  0.78338  1.0000
  C   C413      1.0  0.11113  0.50695  0.91440  1.0000
  H   H719      1.0  0.06334  0.84904  0.58238  1.0000
  H   H720      1.0  0.16408  0.67705  0.85089  1.0000
  H   H721      1.0  0.17339  0.86886  0.60780  1.0000
  H   H722      1.0  0.15845  0.80811  0.52665  1.0000
  C   C414      1.0  0.31029  0.94699  0.60312  1.0000
  H   H723      1.0  0.14805  0.63086  0.76777  1.0000
  H   H724      1.0  0.11071  0.51029  0.88660  1.0000
  H   H725      1.0  0.26454  0.95348  0.89821  1.0000
  H   H726      1.0  0.18046  0.65049  0.93248  1.0000
  C   C415      1.0  0.02350  0.76804  0.78064  1.0000
  H   H727      1.0  0.04353  0.74143  0.77315  1.0000
  H   H728      1.0  0.01189  0.80230  0.60807  1.0000
  H   H729      1.0  0.05430  0.77525  0.78441  1.0000
  H   H730      1.0  0.15855  0.82930  0.63265  1.0000
  H   H731      1.0  0.02886  0.75279  0.55777  1.0000
  H   H732      1.0  0.03586  0.82258  0.58127  1.0000
  C   C416      1.0  0.14934  0.79398  0.58705  1.0000
  H   H733      1.0  0.08003  0.86858  0.58324  1.0000
  C   C417      1.0  0.15134  0.83942  0.58028  1.0000
  H   H734      1.0  0.16399  0.80017  0.58652  1.0000
  H   H735      1.0  0.30578  0.99990  0.70830  1.0000
  H   H736      1.0  0.00965  0.77513  0.76891  1.0000
  C   C418      1.0  0.01086  0.80127  0.69150  1.0000
  H   H737      1.0  0.03535  0.74311  0.83862  1.0000
  H   H738      1.0  0.32601  0.88289  0.75908  1.0000
  C   C419      1.0  0.29817  0.97406  0.80448  1.0000
  H   H739      1.0  0.33401  0.86800  0.51317  1.0000
  C   C420      1.0  0.32671  0.90438  0.71834  1.0000
  H   H740      1.0  0.00970  0.73998  0.84921  1.0000
  C   C421      1.0  0.33209  0.95294  0.77025  1.0000
  H   H741      1.0  0.15772  0.95987  0.93609  1.0000
  H   H742      1.0  0.29924  0.95784  0.81050  1.0000
  H   H743      1.0  0.15965  0.56045  0.96648  1.0000
  H   H744      1.0  0.15059  0.91563  0.84191  1.0000
  C   C422      1.0  0.26800  0.95908  0.92383  1.0000
  H   H745      1.0  0.12293  0.83971  0.52375  1.0000
  C   C423      1.0  0.14850  0.82005  0.51479  1.0000
  H   H746      1.0  0.17392  0.93739  0.92906  1.0000
  C   C424      1.0  0.01662  0.58502  0.98217  1.0000
  H   H747      1.0  0.32164  0.94188  0.76252  1.0000
  C   C425      1.0  0.25200  0.97506  0.93515  1.0000
  H   H748      1.0  0.02017  0.70770  0.87757  1.0000
  C   C426      1.0  0.32556  0.91182  0.59156  1.0000
  H   H749      1.0  0.31101  0.93327  0.55438  1.0000
  H   H750      1.0  0.18444  0.97603  0.96715  1.0000
  H   H751      1.0  0.04433  0.68517  0.69892  1.0000
  H   H752      1.0  0.03784  0.71329  0.80423  1.0000
  C   C427      1.0  0.20868  0.91080  0.98680  1.0000
  H   H753      1.0  0.28699  0.83779  0.56331  1.0000
  C   C428      1.0  0.01268  0.78045  0.69059  1.0000
  C   C429      1.0  0.02621  0.77781  0.52193  1.0000
  H   H754      1.0  0.27342  0.97916  0.83938  1.0000
  H   H755      1.0  0.01005  0.78015  0.52669  1.0000
  C   C430      1.0  0.30633  0.86198  0.56249  1.0000
  H   H756      1.0  0.25635  0.98010  0.96060  1.0000
  H   H757      1.0  0.32301  0.90854  0.61890  1.0000
  H   H758      1.0  0.00375  0.70385  0.75797  1.0000
  C   C431      1.0  0.01280  0.71613  0.75019  1.0000
  H   H759      1.0  0.25205  0.98759  0.91669  1.0000
  H   H760      1.0  0.02508  0.59766  0.99017  1.0000
  H   H761      1.0  0.01394  0.70684  0.81511  1.0000
  H   H762      1.0  0.01146  0.58764  0.95561  1.0000
  H   H763      1.0  0.00501  0.72349  0.72787  1.0000
  C   C432      1.0  0.00673  0.60560  0.88983  1.0000
  H   H764      1.0  0.27490  0.99860  0.80799  1.0000
  N   N25       1.0  0.32638  0.89293  0.57078  1.0000
  H   H765      1.0  0.20613  0.99394  0.99891  1.0000
  H   H766      1.0  0.31246  0.90292  0.52319  1.0000
  H   H767      1.0  0.15712  0.83327  0.51129  1.0000
  H   H768      1.0  0.33390  0.98371  0.65203  1.0000
  C   C433      1.0  0.00598  0.81435  0.59041  1.0000
  H   H769      1.0  0.00232  0.56608  0.83760  1.0000
  H   H770      1.0  0.33264  0.86740  0.62810  1.0000
  H   H771      1.0  0.06020  0.58528  0.00096  1.0000
  H   H772      1.0  0.23176  0.99370  0.99035  1.0000
  H   H773      1.0  0.07250  0.50415  0.93410  1.0000
  H   H774      1.0  0.23674  0.95699  0.00332  1.0000
  Fe  Fe49      1.0  0.39173  0.09457  0.32950  1.0000
  S   S97       1.0  0.38987  0.09319  0.38655  1.0000
  Fe  Fe50      1.0  0.43700  0.10105  0.33303  1.0000
  S   S98       1.0  0.43763  0.10083  0.38976  1.0000
  S   S99       1.0  0.46614  0.10037  0.30411  1.0000
  Fe  Fe51      1.0  0.41914  0.07502  0.38520  1.0000
  S   S100      1.0  0.42742  0.04652  0.41335  1.0000
  Fe  Fe52      1.0  0.40836  0.11915  0.38581  1.0000
  S   S101      1.0  0.39944  0.14642  0.41683  1.0000
  S   S102      1.0  0.41985  0.07394  0.32860  1.0000
  S   S103      1.0  0.40901  0.12183  0.32861  1.0000
  Fe  Fe53      1.0  0.61009  0.08238  0.33053  1.0000
  S   S104      1.0  0.59577  0.11028  0.30648  1.0000
  S   S105      1.0  0.62081  0.05468  0.30273  1.0000
  Fe  Fe54      1.0  0.61605  0.10203  0.39871  1.0000
  S   S106      1.0  0.60321  0.13181  0.37952  1.0000
  S   S107      1.0  0.62926  0.09382  0.45026  1.0000
  Fe  Fe55      1.0  0.57939  0.11423  0.35636  1.0000
  S   S108      1.0  0.54721  0.12472  0.36925  1.0000
  Fe  Fe56      1.0  0.62080  0.12486  0.33160  1.0000
  S   S109      1.0  0.63995  0.14486  0.30095  1.0000
  S   S110      1.0  0.59185  0.08476  0.37809  1.0000
  S   S111      1.0  0.63549  0.09672  0.35310  1.0000
  C   C434      1.0  0.39881  0.16463  0.47803  1.0000
  H   H775      1.0  0.34483  0.04875  0.30997  1.0000
  H   H776      1.0  0.33584  0.13580  0.43949  1.0000
  H   H777      1.0  0.35966  0.03023  0.39011  1.0000
  H   H778      1.0  0.60049  0.12815  0.46056  1.0000
  C   C435      1.0  0.45747  0.12731  0.49397  1.0000
  H   H779      1.0  0.60332  0.10579  0.22503  1.0000
  C   C436      1.0  0.58777  0.01857  0.44167  1.0000
  H   H780      1.0  0.44946  0.13570  0.42683  1.0000
  H   H781      1.0  0.41160  0.05420  0.48074  1.0000
  N   N26       1.0  0.34453  0.02562  0.27184  1.0000
  H   H782      1.0  0.51478  0.00381  0.31602  1.0000
  C   C437      1.0  0.39927  0.14624  0.46165  1.0000
  H   H783      1.0  0.65593  0.16983  0.43828  1.0000
  H   H784      1.0  0.65165  0.06869  0.26836  1.0000
  C   C438      1.0  0.45260  0.14846  0.44319  1.0000
  H   H785      1.0  0.40025  0.11437  0.46868  1.0000
  C   C439      1.0  0.52506  0.11654  0.35171  1.0000
  C   C440      1.0  0.52508  0.10391  0.32362  1.0000
  C   C441      1.0  0.50695  0.09881  0.30960  1.0000
  C   C442      1.0  0.48866  0.10592  0.32391  1.0000
  C   C443      1.0  0.48867  0.11804  0.35264  1.0000
  C   C444      1.0  0.50677  0.12350  0.36610  1.0000
  H   H786      1.0  0.53904  0.09852  0.31216  1.0000
  H   H787      1.0  0.50710  0.08955  0.28725  1.0000
  H   H788      1.0  0.47473  0.12388  0.36355  1.0000
  H   H789      1.0  0.50666  0.13358  0.38728  1.0000
  H   H790      1.0  0.64108  0.15039  0.42630  1.0000
  C   C445      1.0  0.57252  0.03556  0.42900  1.0000
  C   C446      1.0  0.60863  0.01727  0.30124  1.0000
  C   C447      1.0  0.60280  0.03764  0.30344  1.0000
  C   C448      1.0  0.58273  0.04425  0.30656  1.0000
  C   C449      1.0  0.56840  0.03038  0.30719  1.0000
  C   C450      1.0  0.44576  0.09279  0.50339  1.0000
  H   H791      1.0  0.49403  0.14347  0.44197  1.0000
  H   H792      1.0  0.57824  0.06003  0.30817  1.0000
  H   H793      1.0  0.55284  0.03543  0.30961  1.0000
  C   C451      1.0  0.38947  0.03744  0.40105  1.0000
  C   C452      1.0  0.40961  0.03063  0.40108  1.0000
  C   C453      1.0  0.66702  0.06035  0.20500  1.0000
  H   H794      1.0  0.38482  0.05218  0.41023  1.0000
  H   H795      1.0  0.66249  0.00588  0.36638  1.0000
  H   H796      1.0  0.52697  0.12458  0.44846  1.0000
  H   H797      1.0  0.51519  0.10230  0.43786  1.0000
  H   H798      1.0  0.62414  0.01219  0.29877  1.0000
  C   C454      1.0  0.38151  0.03132  0.28434  1.0000
  H   H799      1.0  0.57076  0.02463  0.37732  1.0000
  H   H800      1.0  0.48178  0.12189  0.43356  1.0000
  C   C455      1.0  0.51913  0.11206  0.45908  1.0000
  C   C456      1.0  0.38118  0.00599  0.37748  1.0000
  H   H801      1.0  0.66683  0.17368  0.32353  1.0000
  H   H802      1.0  0.34583  0.08489  0.37085  1.0000
  C   C457      1.0  0.34170  0.12665  0.37005  1.0000
  H   H803      1.0  0.46713  0.07414  0.23154  1.0000
  H   H804      1.0  0.37549  0.15464  0.29133  1.0000
  C   C458      1.0  0.41557  0.01156  0.38926  1.0000
  C   C459      1.0  0.39944  0.04046  0.26902  1.0000
  H   H805      1.0  0.34418  0.03105  0.19863  1.0000
  C   C460      1.0  0.37674  0.16610  0.31118  1.0000
  N   N27       1.0  0.46709  0.14166  0.47092  1.0000
  H   H806      1.0  0.65565  0.01922  0.32776  1.0000
  H   H807      1.0  0.62465  0.01824  0.40113  1.0000
  C   C461      1.0  0.50051  0.11992  0.47845  1.0000
  H   H808      1.0  0.43116  0.00649  0.38844  1.0000
  C   C462      1.0  0.33868  0.15893  0.40082  1.0000
  H   H809      1.0  0.34843  0.09336  0.41417  1.0000
  H   H810      1.0  0.34252  0.15052  0.31542  1.0000
  H   H811      1.0  0.39276  0.16773  0.31570  1.0000
  C   C463      1.0  0.49095  0.01713  0.28322  1.0000
  H   H812      1.0  0.65629  0.11767  0.41005  1.0000
  C   C464      1.0  0.65527  0.15338  0.43917  1.0000
  C   C465      1.0  0.65324  0.14784  0.47733  1.0000
  H   H813      1.0  0.62341  0.16273  0.48192  1.0000
  C   C466      1.0  0.61421  0.11678  0.21894  1.0000
  H   H814      1.0  0.50390  0.05822  0.38809  1.0000
  C   C467      1.0  0.61795  0.03801  0.44571  1.0000
  H   H815      1.0  0.35086  0.16359  0.46775  1.0000
  H   H816      1.0  0.48099  0.06299  0.41119  1.0000
  H   H817      1.0  0.37446  0.14532  0.35257  1.0000
  C   C468      1.0  0.56063  0.02887  0.39870  1.0000
  H   H818      1.0  0.45923  0.05783  0.30357  1.0000
  C   C469      1.0  0.60582  0.12262  0.48505  1.0000
  H   H819      1.0  0.46508  0.01785  0.44851  1.0000
  H   H820      1.0  0.35913  0.12614  0.27002  1.0000
  H   H821      1.0  0.66419  0.10576  0.16387  1.0000
  H   H822      1.0  0.39595  0.05666  0.26415  1.0000
  H   H823      1.0  0.64017  0.04372  0.36656  1.0000
  N   N28       1.0  0.60419  0.02498  0.46408  1.0000
  C   C470      1.0  0.48561  0.13195  0.45452  1.0000
  H   H824      1.0  0.42943  0.17670  0.40399  1.0000
  C   C471      1.0  0.37524  0.02504  0.38957  1.0000
  H   H825      1.0  0.35548  0.12485  0.38577  1.0000
  H   H826      1.0  0.66753  0.14812  0.49111  1.0000
  C   C472      1.0  0.62146  0.03419  0.40720  1.0000
  H   H827      1.0  0.48667  0.00671  0.47077  1.0000
  C   C473      1.0  0.45149  0.10798  0.47698  1.0000
  H   H828      1.0  0.63270  0.03706  0.45860  1.0000
  H   H829      1.0  0.58648  0.05064  0.48375  1.0000
  H   H830      1.0  0.60954  0.13093  0.23216  1.0000
  C   C474      1.0  0.36334  0.03415  0.25991  1.0000
  H   H831      1.0  0.44881  0.00846  0.26804  1.0000
  C   C475      1.0  0.61939  0.10574  0.48700  1.0000
  H   H832      1.0  0.50233  0.04233  0.32810  1.0000
  C   C476      1.0  0.44341  0.17039  0.39192  1.0000
  H   H833      1.0  0.46729  0.03694  0.23516  1.0000
  H   H834      1.0  0.44868  0.18176  0.37431  1.0000
  C   C477      1.0  0.66485  0.13710  0.28940  1.0000
  C   C478      1.0  0.45925  0.16487  0.41890  1.0000
  H   H835      1.0  0.38592  0.01532  0.28924  1.0000
  H   H836      1.0  0.44028  0.15709  0.37687  1.0000
  H   H837      1.0  0.46284  0.04505  0.36846  1.0000
  H   H838      1.0  0.47309  0.15963  0.40540  1.0000
  C   C479      1.0  0.59460  0.03663  0.49331  1.0000
  H   H839      1.0  0.36838  0.02742  0.23538  1.0000
  C   C480      1.0  0.36710  0.15986  0.34422  1.0000
  H   H840      1.0  0.65935  0.06961  0.15190  1.0000
  C   C481      1.0  0.48940  0.05234  0.39401  1.0000
  H   H841      1.0  0.44678  0.02911  0.32469  1.0000
  C   C482      1.0  0.57429  0.00996  0.30611  1.0000
  H   H842      1.0  0.44410  0.03996  0.25834  1.0000
  H   H843      1.0  0.49200  0.03776  0.40733  1.0000
  H   H844      1.0  0.63420  0.10736  0.25894  1.0000
  C   C483      1.0  0.63801  0.16230  0.49506  1.0000
  C   C484      1.0  0.34818  0.00319  0.27212  1.0000
  H   H845      1.0  0.36047  0.05050  0.25504  1.0000
  S   S112      1.0  0.36357  0.08619  0.30185  1.0000
  H   H846      1.0  0.46354  0.10070  0.46126  1.0000
  H   H847      1.0  0.46181  0.17866  0.43290  1.0000
  H   H848      1.0  0.43835  0.11159  0.46048  1.0000
  C   C485      1.0  0.34545  0.11916  0.26658  1.0000
  H   H849      1.0  0.43987  0.08001  0.49018  1.0000
  H   H850      1.0  0.66173  0.04828  0.22139  1.0000
  H   H851      1.0  0.64804  0.13275  0.48008  1.0000
  H   H852      1.0  0.64508  0.12077  0.22482  1.0000
  C   C486      1.0  0.34379  0.10000  0.27964  1.0000
  H   H853      1.0  0.42132  0.00663  0.31156  1.0000
  C   C487      1.0  0.33999  0.03342  0.30719  1.0000
  H   H854      1.0  0.39813  0.17828  0.46322  1.0000
  C   C488      1.0  0.34446  0.15848  0.33972  1.0000
  H   H855      1.0  0.44351  0.07636  0.25330  1.0000
  H   H856      1.0  0.49386  0.10684  0.48956  1.0000
  H   H857      1.0  0.64312  0.17755  0.49548  1.0000
  H   H858      1.0  0.64084  0.05663  0.17326  1.0000
  H   H859      1.0  0.57987  0.04902  0.42147  1.0000
  C   C489      1.0  0.45340  0.06664  0.23671  1.0000
  H   H860      1.0  0.50234  0.02649  0.27251  1.0000
  H   H861      1.0  0.44558  0.06474  0.21226  1.0000
  H   H862      1.0  0.43798  0.15370  0.45405  1.0000
  H   H863      1.0  0.59382  0.01030  0.41920  1.0000
  H   H864      1.0  0.47507  0.06526  0.34990  1.0000
  N   N29       1.0  0.66281  0.08042  0.22183  1.0000
  H   H865      1.0  0.61237  0.05405  0.44749  1.0000
  H   H866      1.0  0.60813  0.03964  0.39224  1.0000
  H   H867      1.0  0.63963  0.09131  0.18621  1.0000
  C   C490      1.0  0.66411  0.07721  0.25979  1.0000
  H   H868      1.0  0.48242  0.05759  0.28229  1.0000
  C   C491      1.0  0.40009  0.12865  0.48116  1.0000
  N   N30       1.0  0.47690  0.02949  0.30595  1.0000
  H   H869      1.0  0.36963  0.18062  0.30192  1.0000
  C   C492      1.0  0.46967  0.04847  0.28743  1.0000
  C   C493      1.0  0.48866  0.03544  0.33645  1.0000
  H   H870      1.0  0.61409  0.11974  0.19116  1.0000
  H   H871      1.0  0.34889  0.02427  0.32627  1.0000
  H   H872      1.0  0.56182  0.03988  0.44959  1.0000
  C   C494      1.0  0.47746  0.05016  0.36144  1.0000
  C   C495      1.0  0.45842  0.04630  0.25356  1.0000
  C   C496      1.0  0.63879  0.04534  0.39444  1.0000
  H   H873      1.0  0.66580  0.15870  0.24884  1.0000
  H   H874      1.0  0.48013  0.03314  0.47378  1.0000
  C   C497      1.0  0.45964  0.01837  0.31811  1.0000
  H   H875      1.0  0.65790  0.14469  0.37177  1.0000
  H   H876      1.0  0.37836  0.03869  0.30911  1.0000
  C   C498      1.0  0.59438  0.00339  0.30306  1.0000
  C   C499      1.0  0.64188  0.08898  0.21387  1.0000
  H   H877      1.0  0.65483  0.17934  0.38164  1.0000
  H   H878      1.0  0.35494  0.15754  0.40588  1.0000
  H   H879      1.0  0.63113  0.07806  0.22156  1.0000
  C   C500      1.0  0.66523  0.03781  0.15367  1.0000
  H   H880      1.0  0.54987  0.04126  0.39002  1.0000
  H   H881      1.0  0.39370  0.03846  0.49807  1.0000
  H   H882      1.0  0.43513  0.02978  0.48146  1.0000
  H   H883      1.0  0.48198  0.16875  0.47671  1.0000
  C   C501      1.0  0.47404  0.01835  0.47218  1.0000
  H   H884      1.0  0.63622  0.06146  0.40014  1.0000
  H   H885      1.0  0.41206  0.03864  0.28713  1.0000
  H   H886      1.0  0.40401  0.03294  0.24492  1.0000
  H   H887      1.0  0.44453  0.17832  0.48778  1.0000
  H   H888      1.0  0.36998  0.17127  0.36346  1.0000
  C   C502      1.0  0.61551  0.00662  0.47894  1.0000
  C   C503      1.0  0.63499  0.10910  0.23096  1.0000
  H   H889      1.0  0.48311  0.01174  0.26077  1.0000
  H   H890      1.0  0.65764  0.03593  0.12898  1.0000
  H   H891      1.0  0.65292  0.03931  0.40653  1.0000
  C   C504      1.0  0.47275  0.15902  0.49186  1.0000
  H   H892      1.0  0.49391  0.02204  0.35171  1.0000
  C   C505      1.0  0.65711  0.05735  0.16996  1.0000
  H   H893      1.0  0.66245  0.02494  0.17030  1.0000
  C   C506      1.0  0.33778  0.09163  0.39308  1.0000
  H   H894      1.0  0.37886  0.07225  0.48359  1.0000
  H   H895      1.0  0.34650  0.12106  0.34456  1.0000
  H   H896      1.0  0.52949  0.10321  0.47641  1.0000
  H   H897      1.0  0.66228  0.09162  0.27332  1.0000
  H   H898      1.0  0.46348  0.01025  0.34230  1.0000
  H   H899      1.0  0.55238  0.01585  0.40571  1.0000
  H   H900      1.0  0.57912  0.00770  0.45547  1.0000
  H   H901      1.0  0.62727  0.01082  0.49661  1.0000
  H   H902      1.0  0.50522  0.12934  0.49942  1.0000
  H   H903      1.0  0.33763  0.17398  0.33553  1.0000
  C   C507      1.0  0.40241  0.05136  0.50322  1.0000
  C   C508      1.0  0.46133  0.01468  0.50334  1.0000
  C   C509      1.0  0.33450  0.16394  0.46419  1.0000
  H   H904      1.0  0.35026  0.13198  0.00593  1.0000
  Fe  Fe57      1.0  0.40280  0.12429  0.61367  1.0000
  S   S113      1.0  0.41957  0.12501  0.66327  1.0000
  S   S114      1.0  0.40212  0.15064  0.57772  1.0000
  Fe  Fe58      1.0  0.39245  0.08190  0.62541  1.0000
  S   S115      1.0  0.40945  0.07920  0.67427  1.0000
  S   S116      1.0  0.37597  0.05682  0.60460  1.0000
  Fe  Fe59      1.0  0.39372  0.10943  0.68524  1.0000
  Fe  Fe60      1.0  0.43323  0.09471  0.64761  1.0000
  S   S117      1.0  0.46519  0.08091  0.64097  1.0000
  S   S118      1.0  0.37618  0.11147  0.63671  1.0000
  S   S119      1.0  0.41721  0.09493  0.59742  1.0000
  Fe  Fe61      1.0  0.57753  0.10407  0.68344  1.0000
  S   S120      1.0  0.58554  0.09567  0.63010  1.0000
  S   S121      1.0  0.54570  0.10892  0.70300  1.0000
  Fe  Fe62      1.0  0.62159  0.10967  0.70281  1.0000
  S   S122      1.0  0.63242  0.10261  0.64977  1.0000
  S   S123      1.0  0.64090  0.10943  0.75081  1.0000
  Fe  Fe63      1.0  0.60490  0.12094  0.63157  1.0000
  S   S124      1.0  0.60019  0.13954  0.58379  1.0000
  Fe  Fe64      1.0  0.61210  0.07814  0.65234  1.0000
  S   S125      1.0  0.62290  0.04795  0.63332  1.0000
  S   S126      1.0  0.59575  0.13061  0.68445  1.0000
  S   S127      1.0  0.60242  0.08385  0.70592  1.0000
  H   H905      1.0  0.63601  0.15730  0.52171  1.0000
  H   H906      1.0  0.65759  0.06488  0.67940  1.0000
  C   C510      1.0  0.55003  0.02574  0.74290  1.0000
  C   C511      1.0  0.52865  0.14714  0.63043  1.0000
  H   H907      1.0  0.54556  0.15788  0.69174  1.0000
  C   C512      1.0  0.66316  0.12039  0.76107  1.0000
  H   H908      1.0  0.51850  0.16066  0.63492  1.0000
  C   C513      1.0  0.56965  0.02885  0.65542  1.0000
  C   C514      1.0  0.58510  0.04106  0.65036  1.0000
  C   C515      1.0  0.60286  0.03332  0.63559  1.0000
  H   H909      1.0  0.61845  0.00775  0.61223  1.0000
  H   H910      1.0  0.43760  0.03808  0.65502  1.0000
  H   H911      1.0  0.55614  0.03474  0.66775  1.0000
  H   H912      1.0  0.58342  0.05628  0.65898  1.0000
  C   C516      1.0  0.61057  0.04556  0.76970  1.0000
  H   H913      1.0  0.56665  0.16884  0.67377  1.0000
  C   C517      1.0  0.37438  0.03723  0.63393  1.0000
  C   C518      1.0  0.37860  0.03981  0.66829  1.0000
  C   C519      1.0  0.36988  0.01848  0.62256  1.0000
  H   H914      1.0  0.38086  0.05434  0.67779  1.0000
  H   H915      1.0  0.51716  0.20381  0.54770  1.0000
  C   C520      1.0  0.48740  0.08878  0.65875  1.0000
  C   C521      1.0  0.50582  0.07967  0.64791  1.0000
  C   C522      1.0  0.52383  0.08562  0.66107  1.0000
  C   C523      1.0  0.52359  0.10063  0.68552  1.0000
  C   C524      1.0  0.50517  0.10960  0.69650  1.0000
  C   C525      1.0  0.48718  0.10382  0.68307  1.0000
  H   H916      1.0  0.50617  0.06794  0.62924  1.0000
  H   H917      1.0  0.53788  0.07845  0.65261  1.0000
  H   H918      1.0  0.50481  0.12116  0.71550  1.0000
  H   H919      1.0  0.47315  0.11089  0.69178  1.0000
  C   C526      1.0  0.61984  0.10868  0.54866  1.0000
  C   C527      1.0  0.60691  0.12600  0.54674  1.0000
  C   C528      1.0  0.37997  0.02350  0.69063  1.0000
  H   H920      1.0  0.62538  0.10322  0.57306  1.0000
  H   H921      1.0  0.61553  0.07522  0.78727  1.0000
  H   H922      1.0  0.50125  0.03750  0.70778  1.0000
  C   C529      1.0  0.40053  0.14817  0.53321  1.0000
  C   C530      1.0  0.53830  0.10823  0.55890  1.0000
  H   H923      1.0  0.62562  0.01970  0.79487  1.0000
  H   H924      1.0  0.58734  0.02708  0.72369  1.0000
  H   H925      1.0  0.33824  0.03966  0.78710  1.0000
  H   H926      1.0  0.45890  0.08726  0.51882  1.0000
  C   C531      1.0  0.58657  0.01348  0.73973  1.0000
  H   H927      1.0  0.36768  0.14485  0.98126  1.0000
  H   H928      1.0  0.60467  0.05988  0.81866  1.0000
  C   C532      1.0  0.48541  0.03660  0.70079  1.0000
  C   C533      1.0  0.52760  0.15313  0.56724  1.0000
  H   H929      1.0  0.34854  0.14071  0.92904  1.0000
  H   H930      1.0  0.36529  0.11877  0.97386  1.0000
  C   C534      1.0  0.62236  0.00773  0.73096  1.0000
  H   H931      1.0  0.57029  0.02631  0.78439  1.0000
  H   H932      1.0  0.50433  0.11862  0.61509  1.0000
  H   H933      1.0  0.40094  0.11621  0.53224  1.0000
  C   C535      1.0  0.59855  0.05845  0.54506  1.0000
  C   C536      1.0  0.60483  0.01363  0.62424  1.0000
  H   H934      1.0  0.55287  0.04081  0.73331  1.0000
  H   H935      1.0  0.34929  0.07773  0.65162  1.0000
  N   N31       1.0  0.52530  0.13842  0.59589  1.0000
  H   H936      1.0  0.55859  0.08298  0.57469  1.0000
  H   H937      1.0  0.36549  0.01658  0.59646  1.0000
  H   H938      1.0  0.52540  0.09912  0.56134  1.0000
  H   H939      1.0  0.55580  0.12602  0.59034  1.0000
  H   H940      1.0  0.53628  0.11788  0.53603  1.0000
  H   H941      1.0  0.44707  0.16388  0.52641  1.0000
  H   H942      1.0  0.59564  0.05083  0.75978  1.0000
  C   C537      1.0  0.48685  0.14574  0.60013  1.0000
  C   C538      1.0  0.34496  0.02419  0.78390  1.0000
  H   H943      1.0  0.60914  0.06266  0.56483  1.0000
  H   H944      1.0  0.51921  0.14877  0.54454  1.0000
  H   H945      1.0  0.54663  0.01621  0.72114  1.0000
  C   C539      1.0  0.41556  0.04778  0.53543  1.0000
  H   H946      1.0  0.45977  0.03559  0.62956  1.0000
  H   H947      1.0  0.54341  0.15260  0.55881  1.0000
  H   H948      1.0  0.39568  0.08312  0.51223  1.0000
  H   H949      1.0  0.55661  0.15997  0.61585  1.0000
  H   H950      1.0  0.35389  0.10513  0.79581  1.0000
  H   H951      1.0  0.48284  0.01016  0.73017  1.0000
  H   H952      1.0  0.66645  0.10430  0.80853  1.0000
  C   C540      1.0  0.35217  0.11835  0.74578  1.0000
  H   H953      1.0  0.64883  0.18260  0.90553  1.0000
  C   C541      1.0  0.52148  0.17547  0.57446  1.0000
  N   N32       1.0  0.60617  0.00828  0.75749  1.0000
  H   H954      1.0  0.46768  0.12614  0.62637  1.0000
  H   H955      1.0  0.41103  0.00300  0.58385  1.0000
  C   C542      1.0  0.46761  0.13536  0.60289  1.0000
  H   H956      1.0  0.60021  0.02432  0.80475  1.0000
  C   C543      1.0  0.55017  0.15236  0.63778  1.0000
  H   H957      1.0  0.64795  0.06955  0.72170  1.0000
  H   H958      1.0  0.50233  0.12324  0.57063  1.0000
  H   H959      1.0  0.54055  0.11060  0.61368  1.0000
  H   H960      1.0  0.53624  0.18668  0.52990  1.0000
  H   H961      1.0  0.48520  0.15577  0.57772  1.0000
  H   H962      1.0  0.37732  0.06749  0.52859  1.0000
  H   H963      1.0  0.48809  0.15466  0.62346  1.0000
  H   H964      1.0  0.44529  0.01435  0.63624  1.0000
  H   H965      1.0  0.53226  0.18158  0.59206  1.0000
  H   H966      1.0  0.41715  0.03167  0.60485  1.0000
  H   H967      1.0  0.35443  0.07712  0.69670  1.0000
  H   H968      1.0  0.46561  0.12568  0.58064  1.0000
  H   H969      1.0  0.41219  0.01018  0.50652  1.0000
  C   C544      1.0  0.34309  0.08154  0.67699  1.0000
  H   H970      1.0  0.53684  0.02725  0.75974  1.0000
  H   H971      1.0  0.46710  0.12328  0.51635  1.0000
  C   C545      1.0  0.37721  0.00449  0.67853  1.0000
  C   C546      1.0  0.47975  0.01511  0.70368  1.0000
  H   H972      1.0  0.63080  0.05556  0.80810  1.0000
  H   H973      1.0  0.48301  0.04243  0.67453  1.0000
  C   C547      1.0  0.54056  0.12086  0.59133  1.0000
  C   C548      1.0  0.50503  0.13046  0.59528  1.0000
  H   H974      1.0  0.52482  0.13654  0.65073  1.0000
  H   H975      1.0  0.35332  0.01961  0.80741  1.0000
  C   C549      1.0  0.65652  0.05856  0.70540  1.0000
  C   C550      1.0  0.61076  0.02382  0.78322  1.0000
  C   C551      1.0  0.62624  0.09875  0.51889  1.0000
  H   H976      1.0  0.38390  0.02553  0.71696  1.0000
  N   N33       1.0  0.42985  0.02925  0.53575  1.0000
  H   H977      1.0  0.35550  0.02412  0.76224  1.0000
  C   C552      1.0  0.44229  0.02842  0.56787  1.0000
  H   H978      1.0  0.54197  0.17997  0.66499  1.0000
  H   H979      1.0  0.65517  0.16779  0.94288  1.0000
  C   C553      1.0  0.55657  0.09372  0.55316  1.0000
  C   C554      1.0  0.46264  0.19027  0.52574  1.0000
  H   H980      1.0  0.61408  0.02985  0.53763  1.0000
  C   C555      1.0  0.43212  0.03670  0.60089  1.0000
  C   C556      1.0  0.44455  0.03073  0.63229  1.0000
  H   H981      1.0  0.45466  0.14667  0.60412  1.0000
  H   H982      1.0  0.58325  0.02796  0.50583  1.0000
  C   C557      1.0  0.55104  0.16561  0.66900  1.0000
  H   H983      1.0  0.44980  0.19940  0.53678  1.0000
  H   H984      1.0  0.40528  0.04793  0.55716  1.0000
  H   H985      1.0  0.44858  0.01285  0.57301  1.0000
  H   H986      1.0  0.45534  0.03738  0.56464  1.0000
  H   H987      1.0  0.39271  0.01961  0.56168  1.0000
  H   H988      1.0  0.42389  0.06121  0.53902  1.0000
  H   H989      1.0  0.55467  0.08520  0.52950  1.0000
  C   C558      1.0  0.59973  0.13282  0.51488  1.0000
  H   H990      1.0  0.55974  0.13846  0.64304  1.0000
  H   H991      1.0  0.47608  0.04634  0.71819  1.0000
  C   C559      1.0  0.52128  0.18789  0.54179  1.0000
  H   H992      1.0  0.51028  0.18284  0.52344  1.0000
  C   C560      1.0  0.40055  0.12965  0.51704  1.0000
  H   H993      1.0  0.57012  0.10190  0.55050  1.0000
  H   H994      1.0  0.43051  0.05322  0.59968  1.0000
  C   C561      1.0  0.33966  0.12919  0.72267  1.0000
  H   H995      1.0  0.58571  0.05238  0.55790  1.0000
  H   H996      1.0  0.62129  0.02174  0.71562  1.0000
  C   C562      1.0  0.39962  0.16558  0.51348  1.0000
  H   H997      1.0  0.50666  0.17786  0.58626  1.0000
  C   C563      1.0  0.61571  0.05983  0.79780  1.0000
  S   S128      1.0  0.37782  0.11163  0.73697  1.0000
  H   H998      1.0  0.39950  0.17993  0.52575  1.0000
  H   H999      1.0  0.62162  0.04688  0.74929  1.0000
  H   H1000     1.0  0.63726  0.00663  0.74342  1.0000
  H   H1001     1.0  0.58968  0.14618  0.51322  1.0000
  C   C564      1.0  0.57220  0.00877  0.64651  1.0000
  H   H1002     1.0  0.34548  0.13352  0.69839  1.0000
  C   C565      1.0  0.34431  0.11327  0.77754  1.0000
  H   H1003     1.0  0.64832  0.04499  0.70367  1.0000
  H   H1004     1.0  0.65884  0.19417  0.94223  1.0000
  C   C566      1.0  0.41935  0.01047  0.53189  1.0000
  H   H1005     1.0  0.59348  0.07213  0.53050  1.0000
  H   H1006     1.0  0.46357  0.01535  0.69870  1.0000
  H   H1007     1.0  0.47031  0.19977  0.50767  1.0000
  C   C567      1.0  0.60890  0.04291  0.52155  1.0000
  H   H1008     1.0  0.63672  0.08572  0.52063  1.0000
  H   H1009     1.0  0.66409  0.13877  0.71630  1.0000
  C   C568      1.0  0.56800  0.01640  0.76268  1.0000
  C   C569      1.0  0.34095  0.13888  0.95377  1.0000
  H   H1010     1.0  0.47294  0.18536  0.54671  1.0000
  H   H1011     1.0  0.47107  0.01483  0.52605  1.0000
  C   C570      1.0  0.65959  0.18033  0.92688  1.0000
  C   C571      1.0  0.44351  0.03076  0.50566  1.0000
  H   H1012     1.0  0.62204  0.04942  0.51058  1.0000
  H   H1013     1.0  0.48238  0.15359  0.51348  1.0000
  H   H1014     1.0  0.64033  0.00584  0.66814  1.0000
  H   H1015     1.0  0.48527  0.00654  0.65227  1.0000
  H   H1016     1.0  0.33518  0.10952  0.93960  1.0000
  H   H1017     1.0  0.50701  0.00543  0.67714  1.0000
  C   C572      1.0  0.35699  0.13319  0.98035  1.0000
  C   C573      1.0  0.38769  0.06969  0.50728  1.0000
  H   H1018     1.0  0.33962  0.09793  0.67777  1.0000
  H   H1019     1.0  0.43405  0.09949  0.52053  1.0000
  C   C574      1.0  0.40368  0.00658  0.55907  1.0000
  C   C575      1.0  0.45522  0.17235  0.50748  1.0000
  H   H1020     1.0  0.44349  0.13452  0.50483  1.0000
  H   H1021     1.0  0.44968  0.04561  0.50532  1.0000
  Fe  Fe65      1.0  0.37396  0.92622  0.30149  1.0000
  S   S129      1.0  0.35928  0.93354  0.35155  1.0000
  S   S130      1.0  0.35677  0.91956  0.25342  1.0000
  Fe  Fe66      1.0  0.41546  0.93635  0.32696  1.0000
  S   S131      1.0  0.40323  0.94502  0.37788  1.0000
  S   S132      1.0  0.44711  0.94347  0.31455  1.0000
  Fe  Fe67      1.0  0.38674  0.91771  0.37478  1.0000
  S   S133      1.0  0.38859  0.89889  0.42261  1.0000
  Fe  Fe68      1.0  0.37720  0.96006  0.35037  1.0000
  S   S134      1.0  0.36329  0.99041  0.36377  1.0000
  S   S135      1.0  0.40034  0.90780  0.32468  1.0000
  S   S136      1.0  0.39043  0.95391  0.29927  1.0000
  Fe  Fe69      1.0  0.58078  0.95247  0.41013  1.0000
  S   S137      1.0  0.58652  0.92059  0.39451  1.0000
  S   S138      1.0  0.57945  0.96556  0.46293  1.0000
  Fe  Fe70      1.0  0.57003  0.96565  0.33778  1.0000
  S   S139      1.0  0.57493  0.93479  0.31635  1.0000
  H   H1022     1.0  0.39857  0.89176  0.49307  1.0000
  Fe  Fe71      1.0  0.55841  0.92590  0.36327  1.0000
  S   S140      1.0  0.53175  0.90753  0.36998  1.0000
  Fe  Fe72      1.0  0.60270  0.93268  0.34918  1.0000
  S   S141      1.0  0.63526  0.92117  0.33906  1.0000
  S   S142      1.0  0.55204  0.95693  0.38187  1.0000
  S   S143      1.0  0.59840  0.96443  0.36760  1.0000
  H   H1023     1.0  0.40272  0.94688  0.45174  1.0000
  H   H1024     1.0  0.52004  0.97153  0.28730  1.0000
  H   H1025     1.0  0.47104  0.93828  0.48431  1.0000
  H   H1026     1.0  0.60456  0.92846  0.47057  1.0000
  C   C576      1.0  0.58000  0.88799  0.47521  1.0000
  C   C577      1.0  0.36234  0.93940  0.48760  1.0000
  C   C578      1.0  0.38133  0.91201  0.45968  1.0000
  H   H1027     1.0  0.59889  0.98761  0.30176  1.0000
  C   C579      1.0  0.36827  0.92923  0.45783  1.0000
  H   H1028     1.0  0.34916  0.85585  0.28619  1.0000
  H   H1029     1.0  0.36255  0.93459  0.43345  1.0000
  H   H1030     1.0  0.46995  0.97240  0.36530  1.0000
  C   C580      1.0  0.52322  0.88616  0.48610  1.0000
  C   C581      1.0  0.54115  0.91545  0.46880  1.0000
  H   H1031     1.0  0.64719  0.97760  0.49042  1.0000
  H   H1032     1.0  0.40607  0.98503  0.36653  1.0000
  C   C582      1.0  0.47028  0.93296  0.33067  1.0000
  C   C583      1.0  0.47194  0.91659  0.35292  1.0000
  C   C584      1.0  0.49082  0.90888  0.36473  1.0000
  C   C585      1.0  0.50815  0.91765  0.35497  1.0000
  C   C586      1.0  0.50640  0.93419  0.33318  1.0000
  C   C587      1.0  0.48762  0.94162  0.32084  1.0000
  H   H1033     1.0  0.45874  0.90963  0.36039  1.0000
  H   H1034     1.0  0.49204  0.89588  0.38104  1.0000
  H   H1035     1.0  0.51960  0.94100  0.32525  1.0000
  H   H1036     1.0  0.48649  0.95415  0.30347  1.0000
  H   H1037     1.0  0.55522  0.92281  0.47124  1.0000
  C   C588      1.0  0.65122  0.92128  0.30283  1.0000
  H   H1038     1.0  0.48593  0.98826  0.38712  1.0000
  C   C589      1.0  0.62638  0.99204  0.45355  1.0000
  C   C590      1.0  0.63866  0.97169  0.23139  1.0000
  H   H1039     1.0  0.64403  0.96042  0.21235  1.0000
  C   C591      1.0  0.49684  0.87137  0.45070  1.0000
  H   H1040     1.0  0.43485  0.89061  0.41904  1.0000
  H   H1041     1.0  0.52161  0.99150  0.25711  1.0000
  H   H1042     1.0  0.50989  0.92494  0.48234  1.0000
  H   H1043     1.0  0.33758  0.90458  0.46708  1.0000
  H   H1044     1.0  0.39847  0.99170  0.46511  1.0000
  H   H1045     1.0  0.62583  0.96612  0.24504  1.0000
  H   H1046     1.0  0.65141  0.92439  0.21622  1.0000
  C   C592      1.0  0.40833  0.95974  0.46485  1.0000
  H   H1047     1.0  0.64314  0.96308  0.45304  1.0000
  H   H1048     1.0  0.51793  0.94388  0.43028  1.0000
  H   H1049     1.0  0.50770  0.90002  0.44146  1.0000
  H   H1050     1.0  0.49953  0.97795  0.25886  1.0000
  H   H1051     1.0  0.55566  0.88035  0.44453  1.0000
  C   C593      1.0  0.33462  0.96923  0.27533  1.0000
  C   C594      1.0  0.58618  0.95036  0.49832  1.0000
  H   H1052     1.0  0.38829  0.97768  0.43141  1.0000
  H   H1053     1.0  0.43331  0.97789  0.46338  1.0000
  H   H1054     1.0  0.35198  0.95254  0.48601  1.0000
  H   H1055     1.0  0.62810  0.92514  0.26517  1.0000
  H   H1056     1.0  0.58138  0.90251  0.46258  1.0000
  H   H1057     1.0  0.59125  0.87176  0.43052  1.0000
  H   H1058     1.0  0.60999  0.87768  0.46050  1.0000
  H   H1059     1.0  0.45344  0.87677  0.44432  1.0000
  C   C595      1.0  0.43315  0.99444  0.30755  1.0000
  C   C596      1.0  0.55850  0.88190  0.47220  1.0000
  H   H1060     1.0  0.61613  0.98687  0.43411  1.0000
  H   H1061     1.0  0.46316  0.96385  0.48746  1.0000
  S   S144      1.0  0.55660  0.99272  0.31032  1.0000
  H   H1062     1.0  0.53952  0.91291  0.44107  1.0000
  H   H1063     1.0  0.49221  0.96174  0.38666  1.0000
  C   C597      1.0  0.63585  0.97349  0.47186  1.0000
  C   C598      1.0  0.64396  0.92340  0.26956  1.0000
  N   N34       1.0  0.44575  0.94771  0.45267  1.0000
  C   C599      1.0  0.43777  0.92754  0.44877  1.0000
  C   C600      1.0  0.42897  0.96418  0.45067  1.0000
  C   C601      1.0  0.45955  0.95063  0.42313  1.0000
  H   H1064     1.0  0.48943  0.87169  0.42549  1.0000
  H   H1065     1.0  0.64890  0.98772  0.27319  1.0000
  C   C602      1.0  0.45308  0.90906  0.44953  1.0000
  C   C603      1.0  0.46782  0.97149  0.42045  1.0000
  H   H1066     1.0  0.65817  0.96175  0.27252  1.0000
  C   C604      1.0  0.52219  0.94886  0.45595  1.0000
  H   H1067     1.0  0.63861  0.99923  0.44100  1.0000
  C   C605      1.0  0.44258  0.89004  0.44404  1.0000
  C   C606      1.0  0.47969  0.97352  0.38786  1.0000
  H   H1068     1.0  0.42954  0.92704  0.42440  1.0000
  H   H1069     1.0  0.42677  0.92483  0.46880  1.0000
  H   H1070     1.0  0.66688  0.98299  0.31931  1.0000
  H   H1071     1.0  0.42599  0.96864  0.42367  1.0000
  H   H1072     1.0  0.45186  0.94785  0.39866  1.0000
  H   H1073     1.0  0.47280  0.93967  0.42413  1.0000
  H   H1074     1.0  0.49279  0.99081  0.31770  1.0000
  C   C607      1.0  0.52449  0.93119  0.48055  1.0000
  H   H1075     1.0  0.51050  0.96006  0.46522  1.0000
  C   C608      1.0  0.59475  0.87282  0.45802  1.0000
  H   H1076     1.0  0.46424  0.90967  0.42909  1.0000
  H   H1077     1.0  0.46081  0.90770  0.47444  1.0000
  H   H1078     1.0  0.47798  0.97380  0.44192  1.0000
  H   H1079     1.0  0.45582  0.98376  0.42038  1.0000
  C   C609      1.0  0.38860  0.90517  0.49147  1.0000
  H   H1080     1.0  0.52535  0.87057  0.49584  1.0000
  H   H1081     1.0  0.52470  0.87905  0.43113  1.0000
  H   H1082     1.0  0.33749  0.96641  0.24794  1.0000
  C   C610      1.0  0.34085  0.86575  0.26743  1.0000
  H   H1083     1.0  0.43151  0.88818  0.46438  1.0000
  H   H1084     1.0  0.37931  0.97531  0.47372  1.0000
  H   H1085     1.0  0.33517  0.87956  0.28068  1.0000
  C   C611      1.0  0.39280  0.97725  0.45850  1.0000
  H   H1086     1.0  0.62439  0.96563  0.48542  1.0000
  C   C612      1.0  0.45751  0.94891  0.48506  1.0000
  C   C613      1.0  0.51379  0.88502  0.45024  1.0000
  H   H1087     1.0  0.50265  0.85575  0.45623  1.0000
  C   C614      1.0  0.51138  0.98410  0.27419  1.0000
  H   H1088     1.0  0.59442  0.85790  0.47012  1.0000
  H   H1089     1.0  0.48574  0.87628  0.47031  1.0000
  C   C615      1.0  0.65726  0.92296  0.24179  1.0000
  H   H1090     1.0  0.53634  0.95611  0.45418  1.0000
  H   H1091     1.0  0.43636  0.98645  0.33196  1.0000
  H   H1092     1.0  0.63348  0.98574  0.21797  1.0000
  H   H1093     1.0  0.36014  0.99826  0.29048  1.0000
  H   H1094     1.0  0.34763  0.96307  0.29038  1.0000
  H   H1095     1.0  0.35130  0.86968  0.24718  1.0000
  C   C616      1.0  0.50242  0.99881  0.30050  1.0000
  N   N35       1.0  0.54252  0.89589  0.48798  1.0000
  C   C617      1.0  0.40137  0.99940  0.37689  1.0000
  H   H1096     1.0  0.58454  0.88898  0.50210  1.0000
  C   C618      1.0  0.59863  0.93281  0.49519  1.0000
  H   H1097     1.0  0.40884  0.95631  0.49232  1.0000
  H   H1098     1.0  0.42760  0.98372  0.28922  1.0000
  C   C619      1.0  0.65505  0.97537  0.25686  1.0000
  H   H1099     1.0  0.46317  0.98955  0.29126  1.0000
  H   H1100     1.0  0.45613  0.99959  0.50081  1.0000
  H   H1101     1.0  0.35397  0.99776  0.24710  1.0000
  H   H1102     1.0  0.55829  0.86661  0.48312  1.0000
  H   H1103     1.0  0.34396  0.87907  0.45535  1.0000
  H   H1104     1.0  0.60528  0.99800  0.49438  1.0000
  C   C620      1.0  0.45202  0.00251  0.29384  1.0000
  H   H1105     1.0  0.51185  0.89367  0.50317  1.0000
  C   C621      1.0  0.33432  0.88895  0.47208  1.0000
  Fe  Fe73      1.0  0.37557  0.93748  0.60687  1.0000
  S   S145      1.0  0.38741  0.90712  0.62485  1.0000
  S   S146      1.0  0.36186  0.94600  0.55588  1.0000
  Fe  Fe74      1.0  0.38435  0.95618  0.67462  1.0000
  S   S147      1.0  0.39758  0.92753  0.69745  1.0000
  S   S148      1.0  0.38115  0.98391  0.70567  1.0000
  Fe  Fe75      1.0  0.41278  0.92299  0.64676  1.0000
  S   S149      1.0  0.44481  0.91485  0.63023  1.0000
  Fe  Fe76      1.0  0.37091  0.91482  0.67376  1.0000
  H   H1106     1.0  0.56989  0.97009  0.53317  1.0000
  S   S150      1.0  0.40134  0.95297  0.62603  1.0000
  S   S151      1.0  0.35728  0.94390  0.65361  1.0000
  Fe  Fe77      1.0  0.56940  0.96217  0.66892  1.0000
  S   S152      1.0  0.56710  0.94887  0.72071  1.0000
  H   H1107     1.0  0.51280  0.97607  0.78207  1.0000
  Fe  Fe78      1.0  0.58753  0.92415  0.63941  1.0000
  S   S153      1.0  0.58557  0.90718  0.68868  1.0000
  S   S154      1.0  0.60111  0.91087  0.59157  1.0000
  Fe  Fe79      1.0  0.55498  0.92344  0.69307  1.0000
  S   S155      1.0  0.52581  0.91406  0.71433  1.0000
  Fe  Fe80      1.0  0.59780  0.93422  0.71202  1.0000
  S   S156      1.0  0.61948  0.93161  0.75711  1.0000
  S   S157      1.0  0.55603  0.93759  0.64175  1.0000
  S   S158      1.0  0.60123  0.95021  0.66239  1.0000
  C   C622      1.0  0.34619  0.87409  0.61938  1.0000
  C   C623      1.0  0.64537  0.93426  0.76230  1.0000
  C   C624      1.0  0.55152  0.88701  0.58528  1.0000
  C   C625      1.0  0.46701  0.91535  0.65429  1.0000
  C   C626      1.0  0.46696  0.91672  0.68973  1.0000
  C   C627      1.0  0.48507  0.91622  0.70776  1.0000
  C   C628      1.0  0.50337  0.91477  0.69059  1.0000
  C   C629      1.0  0.50338  0.91374  0.65511  1.0000
  C   C630      1.0  0.48531  0.91396  0.63712  1.0000
  H   H1108     1.0  0.45300  0.91767  0.70329  1.0000
  H   H1109     1.0  0.48490  0.91689  0.73521  1.0000
  H   H1110     1.0  0.51734  0.91245  0.64164  1.0000
  H   H1111     1.0  0.48551  0.91281  0.60974  1.0000
  H   H1112     1.0  0.34675  0.86622  0.56655  1.0000
  H   H1113     1.0  0.60879  0.99223  0.68912  1.0000
  H   H1114     1.0  0.64934  0.94956  0.71507  1.0000
  C   C631      1.0  0.57920  0.95631  0.53047  1.0000
  C   C632      1.0  0.65824  0.89848  0.65080  1.0000
  H   H1115     1.0  0.50664  0.95298  0.66172  1.0000
  C   C633      1.0  0.65012  0.93269  0.62418  1.0000
  H   H1116     1.0  0.48363  0.96508  0.61351  1.0000
  C   C634      1.0  0.59605  0.92657  0.55603  1.0000
  C   C635      1.0  0.58407  0.94443  0.55921  1.0000
  H   H1117     1.0  0.48721  0.97794  0.73691  1.0000
  H   H1118     1.0  0.57856  0.94919  0.58381  1.0000
  H   H1119     1.0  0.61239  0.95639  0.82096  1.0000
  H   H1120     1.0  0.50848  0.96286  0.56799  1.0000
  H   H1121     1.0  0.35826  0.88816  0.57535  1.0000
  H   H1122     1.0  0.38888  0.91042  0.54557  1.0000
  H   H1123     1.0  0.51929  0.97472  0.65783  1.0000
  H   H1124     1.0  0.36511  0.85583  0.65393  1.0000
  C   C636      1.0  0.43435  0.96922  0.69357  1.0000
  H   H1125     1.0  0.51522  0.94478  0.60088  1.0000
  H   H1126     1.0  0.40242  0.97519  0.54583  1.0000
  C   C637      1.0  0.62245  0.99065  0.70472  1.0000
  H   H1127     1.0  0.63745  0.92732  0.60996  1.0000
  H   H1128     1.0  0.59823  0.97768  0.75839  1.0000
  C   C638      1.0  0.64022  0.99105  0.68083  1.0000
  H   H1129     1.0  0.63064  0.88830  0.77345  1.0000
  H   H1130     1.0  0.46852  0.95815  0.55059  1.0000
  H   H1131     1.0  0.58469  0.99494  0.81497  1.0000
  C   C639      1.0  0.66386  0.86396  0.66979  1.0000
  H   H1132     1.0  0.61326  0.90739  0.52155  1.0000
  H   H1133     1.0  0.47151  0.93122  0.54690  1.0000
  H   H1134     1.0  0.33582  0.91226  0.53063  1.0000
  H   H1135     1.0  0.36304  0.93093  0.80709  1.0000
  C   C640      1.0  0.49127  0.00159  0.67749  1.0000
  H   H1136     1.0  0.42445  0.96832  0.71591  1.0000
  H   H1137     1.0  0.62332  0.97577  0.71707  1.0000
  C   C641      1.0  0.64388  0.88870  0.70488  1.0000
  C   C642      1.0  0.39221  0.98875  0.54988  1.0000
  H   H1138     1.0  0.52823  0.93707  0.50586  1.0000
  C   C643      1.0  0.65504  0.92666  0.79195  1.0000
  C   C644      1.0  0.34486  0.88018  0.58135  1.0000
  H   H1139     1.0  0.49761  0.95569  0.71832  1.0000
  H   H1140     1.0  0.36913  0.98738  0.63533  1.0000
  H   H1141     1.0  0.53639  0.89275  0.59343  1.0000
  H   H1142     1.0  0.36168  0.84457  0.61312  1.0000
  H   H1143     1.0  0.53430  0.90890  0.53645  1.0000
  H   H1144     1.0  0.64988  0.86047  0.65680  1.0000
  C   C645      1.0  0.45521  0.97301  0.70547  1.0000
  C   C646      1.0  0.65649  0.94357  0.73790  1.0000
  C   C647      1.0  0.65355  0.92110  0.65749  1.0000
  H   H1145     1.0  0.43462  0.95487  0.67973  1.0000
  H   H1146     1.0  0.45422  0.98717  0.71965  1.0000
  H   H1147     1.0  0.38201  0.98554  0.57091  1.0000
  C   C648      1.0  0.38308  0.91568  0.52121  1.0000
  H   H1148     1.0  0.65433  0.98779  0.69509  1.0000
  H   H1149     1.0  0.52792  0.96738  0.59765  1.0000
  H   H1150     1.0  0.61029  0.88567  0.74435  1.0000
  H   H1151     1.0  0.64571  0.89345  0.63539  1.0000
  H   H1152     1.0  0.46249  0.98249  0.65445  1.0000
  H   H1153     1.0  0.59236  0.96461  0.84898  1.0000
  H   H1154     1.0  0.34237  0.96963  0.71131  1.0000
  H   H1155     1.0  0.37789  0.86450  0.61733  1.0000
  C   C649      1.0  0.55147  0.88124  0.54778  1.0000
  H   H1156     1.0  0.52986  0.97164  0.70992  1.0000
  C   C650      1.0  0.50433  0.96921  0.65611  1.0000
  H   H1157     1.0  0.52417  0.95334  0.76345  1.0000
  H   H1158     1.0  0.56409  0.00169  0.77225  1.0000
  H   H1159     1.0  0.35032  0.91483  0.77927  1.0000
  C   C651      1.0  0.49792  0.97160  0.61823  1.0000
  C   C652      1.0  0.36088  0.92660  0.78026  1.0000
  H   H1160     1.0  0.58698  0.95787  0.80589  1.0000
  C   C653      1.0  0.49752  0.97225  0.71670  1.0000
  C   C654      1.0  0.59767  0.96505  0.82234  1.0000
  H   H1161     1.0  0.62224  0.98071  0.77490  1.0000
  C   C655      1.0  0.51337  0.96098  0.59484  1.0000
  H   H1162     1.0  0.53865  0.97425  0.77032  1.0000
  H   H1163     1.0  0.66360  0.93107  0.60802  1.0000
  H   H1164     1.0  0.55978  0.90932  0.52692  1.0000
  C   C656      1.0  0.54704  0.89990  0.52473  1.0000
  C   C657      1.0  0.35321  0.94471  0.75893  1.0000
  H   H1165     1.0  0.37536  0.92029  0.77006  1.0000
  N   N36       1.0  0.49045  0.97938  0.68193  1.0000
  H   H1166     1.0  0.36407  0.95610  0.76119  1.0000
  C   C658      1.0  0.52373  0.96989  0.76306  1.0000
  H   H1167     1.0  0.45201  0.94292  0.57274  1.0000
  H   H1168     1.0  0.46016  0.96071  0.72337  1.0000
  C   C659      1.0  0.51832  0.97796  0.72755  1.0000
  S   S159      1.0  0.35109  0.89567  0.70500  1.0000
  H   H1169     1.0  0.59116  0.98589  0.62195  1.0000
  H   H1170     1.0  0.51879  0.99437  0.72814  1.0000
  C   C660      1.0  0.36382  0.85881  0.62617  1.0000
  C   C661      1.0  0.46055  0.94442  0.54891  1.0000
  H   H1171     1.0  0.56186  0.89865  0.58984  1.0000
  H   H1172     1.0  0.55634  0.87376  0.60112  1.0000
  C   C662      1.0  0.62392  0.87797  0.75573  1.0000
  C   C663      1.0  0.46979  0.97315  0.67509  1.0000
  H   H1173     1.0  0.65201  0.86373  0.74108  1.0000
  C   C664      1.0  0.36989  0.93281  0.51929  1.0000
  H   H1174     1.0  0.47068  0.95754  0.66556  1.0000
  H   H1175     1.0  0.64661  0.91945  0.81109  1.0000
  H   H1176     1.0  0.58337  0.00161  0.72149  1.0000
  H   H1177     1.0  0.35286  0.93980  0.73209  1.0000
  C   C665      1.0  0.63880  0.87110  0.72818  1.0000
  H   H1178     1.0  0.63012  0.89252  0.68968  1.0000
  H   H1179     1.0  0.61966  0.86491  0.77055  1.0000
  H   H1180     1.0  0.63201  0.85969  0.71268  1.0000
  S   S160      1.0  0.55479  0.99281  0.65995  1.0000
  H   H1181     1.0  0.34015  0.91834  0.59060  1.0000
  H   H1182     1.0  0.54019  0.87036  0.54476  1.0000
  H   H1183     1.0  0.64660  0.94875  0.62959  1.0000
  H   H1184     1.0  0.66564  0.85331  0.69135  1.0000
  H   H1185     1.0  0.42807  0.98153  0.67678  1.0000
  H   H1186     1.0  0.43879  0.93153  0.51836  1.0000
  H   H1187     1.0  0.64546  0.90188  0.72117  1.0000
  C   C666      1.0  0.60364  0.92098  0.52406  1.0000
  C   C667      1.0  0.33796  0.98835  0.77285  1.0000
  H   H1188     1.0  0.43018  0.99713  0.53267  1.0000
  H   H1189     1.0  0.64003  0.92388  0.67325  1.0000
  H   H1190     1.0  0.35186  0.98876  0.75783  1.0000
  H   H1191     1.0  0.43521  0.95829  0.52317  1.0000
  H   H1192     1.0  0.61012  0.99301  0.82863  1.0000
  C   C668      1.0  0.44631  0.94554  0.51858  1.0000
  N   N37       1.0  0.66177  0.88529  0.68187  1.0000
  H   H1193     1.0  0.34311  0.98342  0.79870  1.0000
  H   H1194     1.0  0.66614  0.92742  0.67047  1.0000
  H   H1195     1.0  0.35471  0.88290  0.51349  1.0000
  C   C669      1.0  0.33841  0.88328  0.50925  1.0000
  H   H1196     1.0  0.56621  0.87359  0.54172  1.0000
  C   C670      1.0  0.59934  0.98666  0.81126  1.0000
  C   C671      1.0  0.60671  0.98783  0.77404  1.0000
  H   H1197     1.0  0.63923  0.97958  0.66094  1.0000
  H   H1198     1.0  0.38305  0.99210  0.52681  1.0000
  C   C672      1.0  0.37174  0.00200  0.64465  1.0000
  H   H1199     1.0  0.34832  0.88733  0.63506  1.0000
  H   H1200     1.0  0.49630  0.98752  0.61052  1.0000
  C   C673      1.0  0.58946  0.00128  0.62983  1.0000
  Fe  Fe81      1.0  0.78326  0.09188  0.18295  1.0000
  S   S161      1.0  0.75105  0.09788  0.17141  1.0000
  S   S162      1.0  0.79732  0.06028  0.17473  1.0000
  Fe  Fe82      1.0  0.78878  0.13707  0.19178  1.0000
  S   S163      1.0  0.75622  0.14549  0.17949  1.0000
  S   S164      1.0  0.81267  0.15977  0.19725  1.0000
  Fe  Fe83      1.0  0.75017  0.11977  0.21423  1.0000
  S   S165      1.0  0.72852  0.11493  0.25766  1.0000
  Fe  Fe84      1.0  0.75993  0.12256  0.13730  1.0000
  S   S166      1.0  0.74565  0.12145  0.08423  1.0000
  S   S167      1.0  0.78251  0.11232  0.22808  1.0000
  S   S168      1.0  0.79238  0.11574  0.14743  1.0000
  Fe  Fe85      1.0  0.88593  0.22764  0.31808  1.0000
  S   S169      1.0  0.87510  0.26001  0.32722  1.0000
  S   S170      1.0  0.86368  0.20359  0.30924  1.0000
  Fe  Fe86      1.0  0.92914  0.23552  0.33764  1.0000
  S   S171      1.0  0.92048  0.26767  0.34740  1.0000
  S   S172      1.0  0.96103  0.22784  0.35495  1.0000
  Fe  Fe87      1.0  0.89409  0.25754  0.37488  1.0000
  S   S173      1.0  0.88761  0.27354  0.42548  1.0000
  Fe  Fe88      1.0  0.90274  0.26745  0.29939  1.0000
  S   S174      1.0  0.91012  0.29120  0.26056  1.0000
  S   S175      1.0  0.90348  0.22517  0.36761  1.0000
  S   S176      1.0  0.91282  0.23530  0.28765  1.0000
  Fe  Fe89      1.0  0.90381  0.44489  0.19291  1.0000
  S   S177      1.0  0.91583  0.43838  0.14075  1.0000
  S   S178      1.0  0.90935  0.47438  0.21785  1.0000
  Fe  Fe90      1.0  0.88994  0.40246  0.20175  1.0000
  S   S179      1.0  0.90089  0.39328  0.15012  1.0000
  S   S180      1.0  0.87362  0.38049  0.23348  1.0000
  Fe  Fe91      1.0  0.92760  0.40904  0.16319  1.0000
  S   S181      1.0  0.95743  0.39496  0.14798  1.0000
  Fe  Fe92      1.0  0.88795  0.42329  0.13226  1.0000
  S   S182      1.0  0.86971  0.42689  0.08399  1.0000
  S   S183      1.0  0.91785  0.41631  0.21637  1.0000
  S   S184      1.0  0.87476  0.43178  0.18313  1.0000
  C   C674      1.0  0.88314  0.42345  0.04581  1.0000
  C   C675      1.0  0.90354  0.41788  0.04636  1.0000
  C   C676      1.0  0.90148  0.49793  0.19972  1.0000
  H   H1201     1.0  0.91128  0.41586  0.07038  1.0000
  C   C677      1.0  0.97121  0.46634  0.11034  1.0000
  C   C678      1.0  0.89057  0.26252  0.46672  1.0000
  H   H1202     1.0  0.96912  0.47972  0.09379  1.0000
  H   H1203     1.0  0.88115  0.33921  0.08948  1.0000
  H   H1204     1.0  0.85327  0.33781  0.41714  1.0000
  H   H1205     1.0  0.96678  0.44618  0.06869  1.0000
  C   C679      1.0  0.89974  0.31616  0.25509  1.0000
  C   C680      1.0  0.91160  0.33024  0.24091  1.0000
  C   C681      1.0  0.90378  0.34992  0.23406  1.0000
  C   C682      1.0  0.88402  0.35586  0.24189  1.0000
  C   C683      1.0  0.87220  0.34192  0.25675  1.0000
  C   C684      1.0  0.87997  0.32211  0.26311  1.0000
  H   H1206     1.0  0.92698  0.32597  0.23535  1.0000
  H   H1207     1.0  0.91308  0.36053  0.22288  1.0000
  H   H1208     1.0  0.85684  0.34636  0.26267  1.0000
  H   H1209     1.0  0.87052  0.31131  0.27316  1.0000
  C   C685      1.0  0.75716  0.12162  0.04346  1.0000
  C   C686      1.0  0.77576  0.12883  0.03845  1.0000
  H   H1210     1.0  0.93117  0.19303  0.41198  1.0000
  H   H1211     1.0  0.78394  0.13380  0.06000  1.0000
  H   H1212     1.0  0.70757  0.11290  0.18007  1.0000
  C   C687      1.0  0.82614  0.17229  0.22903  1.0000
  C   C688      1.0  0.82335  0.16956  0.26396  1.0000
  C   C689      1.0  0.83482  0.17934  0.28786  1.0000
  C   C690      1.0  0.84918  0.19220  0.27748  1.0000
  C   C691      1.0  0.85189  0.19499  0.24254  1.0000
  C   C692      1.0  0.84053  0.18507  0.21864  1.0000
  H   H1213     1.0  0.81239  0.15986  0.27262  1.0000
  H   H1214     1.0  0.83252  0.17697  0.31471  1.0000
  H   H1215     1.0  0.86285  0.20469  0.23390  1.0000
  H   H1216     1.0  0.84292  0.18738  0.19180  1.0000
  C   C693      1.0  0.90959  0.36335  0.06916  1.0000
  H   H1217     1.0  0.96684  0.22061  0.22013  1.0000
  C   C694      1.0  0.86753  0.32838  0.41455  1.0000
  C   C695      1.0  0.97599  0.40798  0.16627  1.0000
  H   H1218     1.0  0.94497  0.48306  0.26032  1.0000
  H   H1219     1.0  0.95746  0.23264  0.18132  1.0000
  H   H1220     1.0  0.85276  0.35200  0.05395  1.0000
  C   C696      1.0  0.97361  0.41578  0.19897  1.0000
  H   H1221     1.0  0.93456  0.30833  0.35697  1.0000
  H   H1222     1.0  0.68335  0.05683  0.20227  1.0000
  H   H1223     1.0  0.95917  0.26584  0.48528  1.0000
  H   H1224     1.0  0.96039  0.41355  0.21333  1.0000
  C   C697      1.0  0.98233  0.23034  0.32959  1.0000
  H   H1225     1.0  0.93254  0.25876  0.42326  1.0000
  H   H1226     1.0  0.89277  0.23213  0.44974  1.0000
  H   H1227     1.0  0.69106  0.02140  0.22725  1.0000
  H   H1228     1.0  0.99371  0.28320  0.33825  1.0000
  C   C698      1.0  0.98387  0.22233  0.29694  1.0000
  H   H1229     1.0  0.96872  0.49266  0.26899  1.0000
  H   H1230     1.0  0.86909  0.31085  0.33293  1.0000
  C   C699      1.0  0.71065  0.14831  0.41510  1.0000
  H   H1231     1.0  0.97136  0.21562  0.28598  1.0000
  C   C700      1.0  0.97861  0.23534  0.44914  1.0000
  C   C701      1.0  0.77401  0.02175  0.05577  1.0000
  C   C702      1.0  0.79110  0.02035  0.17564  1.0000
  C   C703      1.0  0.78651  0.03901  0.19088  1.0000
  C   C704      1.0  0.77425  0.04016  0.21947  1.0000
  H   H1232     1.0  0.70951  0.16156  0.39809  1.0000
  H   H1233     1.0  0.68511  0.08732  0.15916  1.0000
  H   H1234     1.0  0.80088  0.01926  0.15393  1.0000
  H   H1235     1.0  0.77076  0.05437  0.23167  1.0000
  H   H1236     1.0  0.90478  0.33408  0.39040  1.0000
  H   H1237     1.0  0.82117  0.35713  0.01754  1.0000
  H   H1238     1.0  0.71774  0.07862  0.12726  1.0000
  H   H1239     1.0  0.72806  0.16292  0.45283  1.0000
  H   H1240     1.0  0.74140  0.16524  0.03071  1.0000
  H   H1241     1.0  0.94726  0.47130  0.14769  1.0000
  C   C705      1.0  0.96825  0.47409  0.22387  1.0000
  C   C706      1.0  0.67583  0.12189  0.30719  1.0000
  H   H1242     1.0  0.69537  0.13758  0.45937  1.0000
  H   H1243     1.0  0.99969  0.48718  0.13836  1.0000
  C   C707      1.0  0.78324  0.00799  0.08453  1.0000
  H   H1244     1.0  0.95660  0.19310  0.47689  1.0000
  H   H1245     1.0  0.78407  0.02006  0.03336  1.0000
  H   H1246     1.0  0.74965  0.07780  0.09872  1.0000
  H   H1247     1.0  0.71604  0.05233  0.12046  1.0000
  H   H1248     1.0  0.69350  0.00465  0.19164  1.0000
  C   C708      1.0  0.82338  0.35611  0.07287  1.0000
  H   H1249     1.0  0.69824  0.01021  0.29253  1.0000
  H   H1250     1.0  0.81228  0.38005  0.03844  1.0000
  H   H1251     1.0  0.91565  0.37365  0.05043  1.0000
  H   H1252     1.0  0.96100  0.46054  0.21662  1.0000
  H   H1253     1.0  0.78385  0.08263  0.05958  1.0000
  H   H1254     1.0  0.94822  0.29275  0.23244  1.0000
  C   C709      1.0  0.67402  0.14664  0.26244  1.0000
  H   H1255     1.0  0.92957  0.30793  0.18126  1.0000
  C   C710      1.0  0.74695  0.17651  0.01314  1.0000
  C   C711      1.0  0.99880  0.28690  0.22437  1.0000
  H   H1256     1.0  0.67731  0.19501  0.34093  1.0000
  H   H1257     1.0  0.77460  0.00998  0.10837  1.0000
  H   H1258     1.0  0.96878  0.45708  0.16208  1.0000
  C   C712      1.0  0.69545  0.11584  0.29760  1.0000
  H   H1259     1.0  0.95751  0.28256  0.17140  1.0000
  H   H1260     1.0  0.95040  0.29620  0.44999  1.0000
  N   N38       1.0  0.85634  0.35890  0.10728  1.0000
  C   C713      1.0  0.84971  0.34116  0.12657  1.0000
  C   C714      1.0  0.91394  0.41462  0.01579  1.0000
  C   C715      1.0  0.87822  0.35462  0.09955  1.0000
  C   C716      1.0  0.85389  0.37766  0.12814  1.0000
  C   C717      1.0  0.83252  0.38481  0.13897  1.0000
  C   C718      1.0  0.86043  0.33599  0.16085  1.0000
  C   C719      1.0  0.88733  0.36888  0.07369  1.0000
  H   H1261     1.0  0.94429  0.45501  0.09028  1.0000
  H   H1262     1.0  0.99739  0.40785  0.28063  1.0000
  C   C720      1.0  0.83245  0.40274  0.16257  1.0000
  H   H1263     1.0  0.96522  0.46680  0.27722  1.0000
  C   C721      1.0  0.89281  0.24185  0.47150  1.0000
  C   C722      1.0  0.87197  0.33721  0.47661  1.0000
  H   H1264     1.0  0.83364  0.34313  0.13252  1.0000
  H   H1265     1.0  0.82305  0.33963  0.07390  1.0000
  H   H1266     1.0  0.86599  0.32299  0.48445  1.0000
  C   C723      1.0  0.96234  0.49122  0.19838  1.0000
  H   H1267     1.0  0.88722  0.35514  0.12318  1.0000
  H   H1268     1.0  0.86327  0.37612  0.15139  1.0000
  H   H1269     1.0  0.85941  0.39034  0.11391  1.0000
  H   H1270     1.0  0.82526  0.37296  0.15264  1.0000
  H   H1271     1.0  0.82361  0.38984  0.11634  1.0000
  H   H1272     1.0  0.94081  0.17163  0.43641  1.0000
  H   H1273     1.0  0.85797  0.34845  0.17908  1.0000
  H   H1274     1.0  0.88547  0.38451  0.08229  1.0000
  H   H1275     1.0  0.91763  0.36471  0.09357  1.0000
  H   H1276     1.0  0.93089  0.22356  0.46646  1.0000
  H   H1277     1.0  0.94588  0.49219  0.19710  1.0000
  H   H1278     1.0  0.79768  0.35885  0.03943  1.0000
  H   H1279     1.0  0.98161  0.34938  0.21710  1.0000
  C   C724      1.0  0.69274  0.11697  0.16858  1.0000
  H   H1280     1.0  0.84117  0.39882  0.18597  1.0000
  H   H1281     1.0  0.83883  0.41540  0.14943  1.0000
  H   H1282     1.0  0.81698  0.40761  0.17005  1.0000
  C   C725      1.0  0.96134  0.47958  0.25977  1.0000
  H   H1283     1.0  0.69243  0.17173  0.33770  1.0000
  H   H1284     1.0  0.98858  0.40896  0.34195  1.0000
  C   C726      1.0  0.89668  0.32316  0.37612  1.0000
  H   H1285     1.0  0.86994  0.29696  0.37132  1.0000
  H   H1286     1.0  0.90072  0.30853  0.38886  1.0000
  C   C727      1.0  0.86799  0.34753  0.36010  1.0000
  C   C728      1.0  0.87897  0.36589  0.37007  1.0000
  C   C729      1.0  0.87260  0.38373  0.34712  1.0000
  H   H1287     1.0  0.86910  0.34576  0.33204  1.0000
  H   H1288     1.0  0.85195  0.35175  0.36472  1.0000
  H   H1289     1.0  0.71293  0.13505  0.39871  1.0000
  H   H1290     1.0  0.90061  0.33511  0.32421  1.0000
  H   H1291     1.0  0.83574  0.32655  0.34474  1.0000
  H   H1292     1.0  0.87647  0.38036  0.32019  1.0000
  H   H1293     1.0  0.85634  0.38768  0.34897  1.0000
  H   H1294     1.0  0.88039  0.39685  0.35494  1.0000
  C   C730      1.0  0.71907  0.02043  0.20141  1.0000
  H   H1295     1.0  0.81695  0.29698  0.34476  1.0000
  C   C731      1.0  0.84163  0.31354  0.36027  1.0000
  H   H1296     1.0  0.70051  0.14773  0.23157  1.0000
  H   H1297     1.0  0.69648  0.07507  0.26939  1.0000
  H   H1298     1.0  0.98728  0.46118  0.11078  1.0000
  C   C732      1.0  0.86471  0.31170  0.36005  1.0000
  H   H1299     1.0  0.75833  0.02366  0.25612  1.0000
  C   C733      1.0  0.99455  0.35344  0.20198  1.0000
  H   H1300     1.0  0.81783  0.07183  0.10976  1.0000
  C   C734      1.0  0.92842  0.32105  0.34106  1.0000
  C   C735      1.0  0.97711  0.27919  0.27310  1.0000
  C   C736      1.0  0.81124  0.07906  0.08643  1.0000
  H   H1301     1.0  0.93432  0.31898  0.31489  1.0000
  H   H1302     1.0  0.78150  0.07836  0.10467  1.0000
  H   H1303     1.0  0.81141  0.09546  0.08891  1.0000
  H   H1304     1.0  0.73181  0.13593  0.45319  1.0000
  H   H1305     1.0  0.82052  0.07438  0.06416  1.0000
  N   N39       1.0  0.85289  0.10495  0.23299  1.0000
  C   C737      1.0  0.84221  0.11089  0.20027  1.0000
  C   C738      1.0  0.83824  0.09723  0.25776  1.0000
  C   C739      1.0  0.86019  0.12363  0.24808  1.0000
  C   C740      1.0  0.87046  0.08979  0.22782  1.0000
  C   C741      1.0  0.86912  0.07487  0.19803  1.0000
  C   C742      1.0  0.85428  0.12279  0.17472  1.0000
  C   C743      1.0  0.86940  0.12150  0.28421  1.0000
  C   C744      1.0  0.82848  0.07821  0.24734  1.0000
  C   C745      1.0  0.81354  0.07237  0.27399  1.0000
  C   C746      1.0  0.88568  0.05799  0.20031  1.0000
  C   C747      1.0  0.84521  0.12333  0.13913  1.0000
  C   C748      1.0  0.88071  0.13951  0.29314  1.0000
  H   H1306     1.0  0.82827  0.12028  0.20581  1.0000
  H   H1307     1.0  0.83703  0.09779  0.18702  1.0000
  H   H1308     1.0  0.84551  0.09344  0.28258  1.0000
  H   H1309     1.0  0.82613  0.10914  0.26302  1.0000
  H   H1310     1.0  0.84784  0.13566  0.24918  1.0000
  H   H1311     1.0  0.87167  0.12955  0.23149  1.0000
  H   H1312     1.0  0.88426  0.09736  0.22312  1.0000
  H   H1313     1.0  0.87355  0.08100  0.25161  1.0000
  H   H1314     1.0  0.87072  0.08256  0.17330  1.0000
  H   H1315     1.0  0.85480  0.06806  0.19724  1.0000
  H   H1316     1.0  0.85444  0.13850  0.18321  1.0000
  H   H1317     1.0  0.86990  0.11640  0.17300  1.0000
  H   H1318     1.0  0.87987  0.10794  0.28642  1.0000
  H   H1319     1.0  0.85749  0.12064  0.30344  1.0000
  H   H1320     1.0  0.82046  0.08043  0.22291  1.0000
  H   H1321     1.0  0.83983  0.06540  0.24544  1.0000
  H   H1322     1.0  0.80628  0.05912  0.26509  1.0000
  H   H1323     1.0  0.82114  0.06853  0.29850  1.0000
  H   H1324     1.0  0.80182  0.08466  0.27817  1.0000
  H   H1325     1.0  0.88470  0.04791  0.17825  1.0000
  H   H1326     1.0  0.90048  0.06405  0.19999  1.0000
  H   H1327     1.0  0.88419  0.04911  0.22392  1.0000
  H   H1328     1.0  0.85489  0.13096  0.12139  1.0000
  H   H1329     1.0  0.84367  0.10802  0.12967  1.0000
  H   H1330     1.0  0.83045  0.13191  0.13933  1.0000
  H   H1331     1.0  0.88644  0.13799  0.31956  1.0000
  H   H1332     1.0  0.89349  0.14068  0.27576  1.0000
  H   H1333     1.0  0.87077  0.15348  0.29137  1.0000
  H   H1334     1.0  0.79417  0.04389  0.10084  1.0000
  C   C749      1.0  0.78987  0.07368  0.08151  1.0000
  H   H1335     1.0  0.68078  0.08056  0.43494  1.0000
  C   C750      1.0  0.67042  0.17290  0.37850  1.0000
  C   C751      1.0  0.81306  0.36350  0.04001  1.0000
  C   C752      1.0  0.94551  0.22186  0.45357  1.0000
  C   C753      1.0  0.72934  0.14938  0.43672  1.0000
  H   H1336     1.0  0.74440  0.03304  0.09078  1.0000
  H   H1337     1.0  0.83808  0.28164  0.36076  1.0000
  H   H1338     1.0  0.96563  0.31078  0.23061  1.0000
  C   C754      1.0  0.87324  0.42590  0.01446  1.0000
  C   C755      1.0  0.76720  0.02271  0.23326  1.0000
  H   H1339     1.0  0.73179  0.06747  0.07190  1.0000
  C   C756      1.0  0.96023  0.44993  0.09392  1.0000
  C   C757      1.0  0.75460  0.04516  0.09284  1.0000
  H   H1340     1.0  0.96494  0.19703  0.43376  1.0000
  H   H1341     1.0  0.98704  0.26647  0.28329  1.0000
  C   C758      1.0  0.77155  0.00407  0.21781  1.0000
  H   H1342     1.0  0.99579  0.30355  0.28637  1.0000
  H   H1343     1.0  0.68390  0.14292  0.36886  1.0000
  H   H1344     1.0  0.76005  0.01529  0.04810  1.0000
  C   C759      1.0  0.68360  0.06620  0.27379  1.0000
  C   C760      1.0  0.96380  0.47066  0.14707  1.0000
  C   C761      1.0  0.69370  0.14047  0.25260  1.0000
  H   H1345     1.0  0.94238  0.22668  0.42686  1.0000
  H   H1346     1.0  0.70144  0.10810  0.42080  1.0000
  H   H1347     1.0  0.88800  0.34934  0.43545  1.0000
  H   H1348     1.0  0.68626  0.13104  0.18016  1.0000
  H   H1349     1.0  0.85458  0.30456  0.16010  1.0000
  N   N40       1.0  0.97884  0.28046  0.23497  1.0000
  H   H1350     1.0  0.86411  0.31315  0.42290  1.0000
  H   H1351     1.0  0.96946  0.31040  0.28738  1.0000
  C   C762      1.0  0.67057  0.12094  0.42217  1.0000
  C   C763      1.0  0.78931  0.05092  0.07618  1.0000
  C   C764      1.0  0.74094  0.06481  0.09516  1.0000
  C   C765      1.0  0.95523  0.23148  0.20917  1.0000
  H   H1352     1.0  0.67395  0.01227  0.27561  1.0000
  C   C766      1.0  0.85253  0.31760  0.17726  1.0000
  C   C767      1.0  0.70439  0.12477  0.26987  1.0000
  H   H1353     1.0  0.83565  0.31528  0.38638  1.0000
  H   H1354     1.0  0.68987  0.16310  0.44958  1.0000
  H   H1355     1.0  0.88313  0.48652  0.16092  1.0000
  H   H1356     1.0  0.94050  0.22580  0.21384  1.0000
  C   C768      1.0  0.67808  0.09449  0.21199  1.0000
  C   C769      1.0  0.95593  0.25185  0.22580  1.0000
  H   H1357     1.0  0.83653  0.32052  0.18352  1.0000
  C   C770      1.0  0.72647  0.06396  0.12485  1.0000
  H   H1358     1.0  0.76203  0.04273  0.11805  1.0000
  H   H1359     1.0  0.69329  0.08799  0.21859  1.0000
  H   H1360     1.0  0.92513  0.28999  0.45683  1.0000
  N   N41       1.0  0.76987  0.04355  0.06468  1.0000
  C   C771      1.0  0.67722  0.17856  0.34300  1.0000
  H   H1361     1.0  0.79881  0.01125  0.08960  1.0000
  H   H1362     1.0  0.98674  0.43222  0.23870  1.0000
  N   N42       1.0  0.87448  0.32812  0.37791  1.0000
  C   C772      1.0  0.78338  0.13059  0.00526  1.0000
  H   H1363     1.0  0.95279  0.24988  0.25320  1.0000
  H   H1364     1.0  0.97472  0.30159  0.17078  1.0000
  H   H1365     1.0  0.68990  0.11085  0.37931  1.0000
  H   H1366     1.0  0.94377  0.26191  0.21457  1.0000
  C   C773      1.0  0.95230  0.19941  0.45162  1.0000
  H   H1367     1.0  0.99889  0.47150  0.17416  1.0000
  C   C774      1.0  0.96291  0.29560  0.22169  1.0000
  H   H1368     1.0  0.87664  0.33259  0.15736  1.0000
  C   C775      1.0  0.84526  0.36162  0.07386  1.0000
  H   H1369     1.0  0.96185  0.27578  0.28048  1.0000
  H   H1370     1.0  0.81445  0.36235  0.09436  1.0000
  H   H1371     1.0  0.69473  0.11962  0.14096  1.0000
  H   H1372     1.0  0.74245  0.15010  0.41991  1.0000
  H   H1373     1.0  0.87527  0.37026  0.39653  1.0000
  C   C776      1.0  0.90575  0.32199  0.34000  1.0000
  H   H1374     1.0  0.89529  0.36305  0.36748  1.0000
  H   H1375     1.0  0.92965  0.41007  0.01655  1.0000
  H   H1376     1.0  0.89481  0.32346  0.44487  1.0000
  C   C777      1.0  0.97653  0.26007  0.22057  1.0000
  H   H1377     1.0  0.73009  0.00945  0.18945  1.0000
  C   C778      1.0  0.83343  0.29505  0.34514  1.0000
  H   H1378     1.0  0.70372  0.10394  0.31149  1.0000
  H   H1379     1.0  0.98453  0.47045  0.22493  1.0000
  H   H1380     1.0  0.98756  0.24892  0.23224  1.0000
  H   H1381     1.0  0.90160  0.30832  0.32729  1.0000
  H   H1382     1.0  0.83875  0.29268  0.31867  1.0000
  H   H1383     1.0  0.99577  0.36570  0.26833  1.0000
  H   H1384     1.0  0.93343  0.33512  0.35134  1.0000
  H   H1385     1.0  0.95778  0.26479  0.41819  1.0000
  C   C779      1.0  0.98857  0.42623  0.21340  1.0000
  H   H1386     1.0  0.94325  0.31338  0.14362  1.0000
  C   C780      1.0  0.88209  0.33498  0.44200  1.0000
  C   C781      1.0  0.93815  0.28802  0.43963  1.0000
  C   C782      1.0  0.93561  0.18769  0.43790  1.0000
  H   H1387     1.0  0.80117  0.04624  0.05752  1.0000
  C   C783      1.0  0.68747  0.10709  0.40632  1.0000
  H   H1388     1.0  0.71422  0.03199  0.18224  1.0000
  H   H1389     1.0  0.88870  0.29086  0.49220  1.0000
  N   N43       1.0  0.67280  0.14308  0.42061  1.0000
  C   C784      1.0  0.96087  0.29701  0.18242  1.0000
  C   C785      1.0  0.68283  0.08525  0.40815  1.0000
  H   H1390     1.0  0.99153  0.20465  0.46157  1.0000
  H   H1391     1.0  0.97526  0.23360  0.42169  1.0000
  H   H1392     1.0  0.92246  0.18933  0.45487  1.0000
  H   H1393     1.0  0.94664  0.32739  0.18167  1.0000
  C   C786      1.0  0.94981  0.25597  0.47073  1.0000
  H   H1394     1.0  0.85965  0.34922  0.47573  1.0000
  C   C787      1.0  0.69181  0.14806  0.43775  1.0000
  C   C788      1.0  0.94487  0.26592  0.43563  1.0000
  H   H1395     1.0  0.69529  0.07563  0.39703  1.0000
  N   N44       1.0  0.95976  0.23501  0.46992  1.0000
  C   C789      1.0  0.99350  0.48656  0.16448  1.0000
  H   H1396     1.0  0.73463  0.06060  0.14903  1.0000
  H   H1397     1.0  0.86080  0.31379  0.20113  1.0000
  C   C790      1.0  0.94404  0.31240  0.17177  1.0000
  H   H1398     1.0  0.98010  0.25963  0.19300  1.0000
  C   C791      1.0  0.68206  0.06276  0.31209  1.0000
  H   H1399     1.0  0.91232  0.34789  0.05960  1.0000
  C   C792      1.0  0.74676  0.11534  0.01494  1.0000
  H   H1400     1.0  0.88036  0.36827  0.04823  1.0000
  C   C793      1.0  0.99892  0.23844  0.34392  1.0000
  H   H1401     1.0  0.67965  0.18016  0.39728  1.0000
  H   H1402     1.0  0.69586  0.05441  0.32160  1.0000
  H   H1403     1.0  0.84574  0.37726  0.06447  1.0000
  H   H1404     1.0  0.85159  0.32766  0.11026  1.0000
  H   H1405     1.0  0.96702  0.28845  0.33925  1.0000
  C   C794      1.0  0.70120  0.01014  0.21426  1.0000
  C   C795      1.0  0.98121  0.29427  0.33120  1.0000
  H   H1406     1.0  0.99493  0.40501  0.12239  1.0000
  H   H1407     1.0  0.93534  0.25636  0.48425  1.0000
  C   C796      1.0  0.67897  0.10034  0.17404  1.0000
  H   H1408     1.0  0.98484  0.25012  0.45109  1.0000
  C   C797      1.0  0.98119  0.29825  0.29292  1.0000
  H   H1409     1.0  0.93373  0.29450  0.41450  1.0000
  C   C798      1.0  0.99622  0.21991  0.45852  1.0000
  H   H1410     1.0  0.72620  0.02782  0.22277  1.0000
  H   H1411     1.0  0.98306  0.30831  0.34506  1.0000
  C   C799      1.0  0.99319  0.41080  0.14787  1.0000
  H   H1412     1.0  0.74880  0.19030  0.02772  1.0000
  N   N45       1.0  0.97109  0.48896  0.16324  1.0000
  H   H1413     1.0  0.96146  0.43623  0.10992  1.0000
  H   H1414     1.0  0.67604  0.10831  0.22717  1.0000
  H   H1415     1.0  0.99991  0.50097  0.21295  1.0000
  H   H1416     1.0  0.66921  0.05408  0.31797  1.0000
  H   H1417     1.0  0.85746  0.43021  0.01389  1.0000
  H   H1418     1.0  0.68142  0.03788  0.14888  1.0000
  H   H1419     1.0  0.73235  0.10977  0.01848  1.0000
  H   H1420     1.0  0.99063  0.36792  0.18886  1.0000
  H   H1421     1.0  0.99783  0.34188  0.18234  1.0000
  H   H1422     1.0  0.99793  0.24456  0.36922  1.0000
  H   H1423     1.0  0.68677  0.05143  0.26186  1.0000
  H   H1424     1.0  0.73381  0.04204  0.03138  1.0000
  C   C800      1.0  0.88856  0.49974  0.17186  1.0000
  H   H1425     1.0  0.67934  0.02232  0.34804  1.0000
  H   H1426     1.0  0.99513  0.43276  0.32631  1.0000
  C   C801      1.0  0.74553  0.04612  0.01355  1.0000
  C   C802      1.0  0.89043  0.27486  0.49550  1.0000
  C   C803      1.0  0.76299  0.05465  0.03274  1.0000
  C   C804      1.0  0.67142  0.14992  0.38401  1.0000
  H   H1427     1.0  0.68006  0.07721  0.32560  1.0000
  H   H1428     1.0  0.93943  0.49894  0.11247  1.0000
  H   H1429     1.0  0.66914  0.08292  0.39370  1.0000
  H   H1430     1.0  0.75854  0.07057  0.03806  1.0000
  H   H1431     1.0  0.99268  0.46835  0.00844  1.0000
  H   H1432     1.0  0.99094  0.43262  0.00769  1.0000
  H   H1433     1.0  0.88291  0.34112  0.49602  1.0000
  H   H1434     1.0  0.77552  0.05494  0.01440  1.0000
  H   H1435     1.0  0.66920  0.11472  0.32834  1.0000
  H   H1436     1.0  0.66968  0.11573  0.44891  1.0000
  H   H1437     1.0  0.00060  0.28557  0.19639  1.0000
  H   H1438     1.0  0.99985  0.30299  0.22980  1.0000
  C   C805      1.0  0.66829  0.01155  0.34210  1.0000
  C   C806      1.0  0.78334  0.00302  0.18859  1.0000
  C   C807      1.0  0.89472  0.23367  0.50458  1.0000
  Fe  Fe93      1.0  0.89782  0.24610  0.62916  1.0000
  S   S185      1.0  0.90535  0.22227  0.66935  1.0000
  S   S186      1.0  0.89723  0.23451  0.57439  1.0000
  Fe  Fe94      1.0  0.89468  0.27929  0.68245  1.0000
  S   S187      1.0  0.90163  0.25785  0.72512  1.0000
  S   S188      1.0  0.89115  0.31312  0.68946  1.0000
  Fe  Fe95      1.0  0.92548  0.24402  0.69091  1.0000
  S   S189      1.0  0.95555  0.23639  0.71601  1.0000
  Fe  Fe96      1.0  0.88074  0.23764  0.70052  1.0000
  S   S190      1.0  0.85837  0.22472  0.73775  1.0000
  S   S191      1.0  0.91975  0.26661  0.64923  1.0000
  S   S192      1.0  0.87201  0.26038  0.65930  1.0000
  Fe  Fe97      1.0  0.77468  0.12428  0.87902  1.0000
  S   S193      1.0  0.79753  0.10679  0.84637  1.0000
  S   S194      1.0  0.78207  0.12977  0.93523  1.0000
  Fe  Fe98      1.0  0.74727  0.13407  0.81771  1.0000
  S   S195      1.0  0.76841  0.11759  0.78214  1.0000
  S   S196      1.0  0.71925  0.14985  0.79414  1.0000
  Fe  Fe99      1.0  0.77110  0.09375  0.82261  1.0000
  S   S197      1.0  0.76403  0.06309  0.80368  1.0000
  Fe  Fe100     1.0  0.79292  0.13240  0.80846  1.0000
  S   S198      1.0  0.81794  0.14370  0.77478  1.0000
  S   S199      1.0  0.74861  0.10974  0.85719  1.0000
  S   S200      1.0  0.77151  0.15042  0.84217  1.0000
  Fe  Fe101     1.0  0.87881  0.44046  0.84259  1.0000
  S   S201      1.0  0.90948  0.44285  0.86268  1.0000
  S   S202      1.0  0.85749  0.46810  0.83562  1.0000
  Fe  Fe102     1.0  0.88431  0.39465  0.83555  1.0000
  S   S203      1.0  0.91526  0.39414  0.85568  1.0000
  S   S204      1.0  0.87532  0.36320  0.82507  1.0000
  Fe  Fe103     1.0  0.90368  0.41620  0.89470  1.0000
  S   S205      1.0  0.91784  0.41256  0.94681  1.0000
  Fe  Fe104     1.0  0.91824  0.42066  0.82233  1.0000
  S   S206      1.0  0.94509  0.42357  0.79012  1.0000
  S   S207      1.0  0.87208  0.41501  0.87757  1.0000
  S   S208      1.0  0.88804  0.41999  0.79915  1.0000
  C   C808      1.0  0.88827  0.32678  0.72781  1.0000
  C   C809      1.0  0.88951  0.31751  0.75975  1.0000
  C   C810      1.0  0.88579  0.32886  0.78941  1.0000
  C   C811      1.0  0.88156  0.34968  0.78753  1.0000
  C   C812      1.0  0.88122  0.35903  0.75571  1.0000
  C   C813      1.0  0.88435  0.34761  0.72603  1.0000
  H   H1439     1.0  0.89313  0.30161  0.76154  1.0000
  H   H1440     1.0  0.88614  0.32151  0.81394  1.0000
  H   H1441     1.0  0.87783  0.37500  0.75386  1.0000
  H   H1442     1.0  0.88349  0.35496  0.70147  1.0000
  C   C814      1.0  0.84623  0.20237  0.74591  1.0000
  C   C815      1.0  0.84968  0.18505  0.72652  1.0000
  C   C816      1.0  0.84070  0.16747  0.73551  1.0000
  C   C817      1.0  0.82779  0.16688  0.76358  1.0000
  C   C818      1.0  0.82395  0.18436  0.78244  1.0000
  C   C819      1.0  0.83319  0.20185  0.77380  1.0000
  H   H1443     1.0  0.85934  0.18510  0.70468  1.0000
  H   H1444     1.0  0.84378  0.15415  0.72053  1.0000
  H   H1445     1.0  0.81417  0.18426  0.80413  1.0000
  H   H1446     1.0  0.83032  0.21502  0.78914  1.0000
  N   N46       1.0  0.71060  0.06780  0.73367  1.0000
  C   C820      1.0  0.70120  0.05512  0.82926  1.0000
  H   H1447     1.0  0.69747  0.11904  0.82553  1.0000
  H   H1448     1.0  0.67519  0.04699  0.74619  1.0000
  H   H1449     1.0  0.97798  0.34278  0.76580  1.0000
  C   C821      1.0  0.75862  0.02359  0.81430  1.0000
  C   C822      1.0  0.77006  0.03939  0.82269  1.0000
  C   C823      1.0  0.78692  0.03546  0.84308  1.0000
  C   C824      1.0  0.79293  0.01572  0.85315  1.0000
  C   C825      1.0  0.95140  0.45384  0.93265  1.0000
  H   H1450     1.0  0.74552  0.02638  0.79868  1.0000
  H   H1451     1.0  0.79589  0.04746  0.84963  1.0000
  C   C826      1.0  0.72900  0.16188  0.96378  1.0000
  C   C827      1.0  0.69039  0.12323  0.80159  1.0000
  C   C828      1.0  0.98371  0.40800  0.79278  1.0000
  C   C829      1.0  0.96582  0.41146  0.81037  1.0000
  C   C830      1.0  0.96454  0.40508  0.84409  1.0000
  H   H1452     1.0  0.72896  0.12644  0.73008  1.0000
  H   H1453     1.0  0.94257  0.36173  0.82810  1.0000
  H   H1454     1.0  0.71822  0.18759  0.99501  1.0000
  H   H1455     1.0  0.95118  0.40854  0.85841  1.0000
  C   C831      1.0  0.71947  0.08752  0.73715  1.0000
  H   H1456     1.0  0.71046  0.09741  0.75470  1.0000
  C   C832      1.0  0.75467  0.03824  0.68621  1.0000
  H   H1457     1.0  0.98249  0.45216  0.74057  1.0000
  C   C833      1.0  0.97787  0.23756  0.69273  1.0000
  C   C834      1.0  0.97767  0.24007  0.65746  1.0000
  H   H1458     1.0  0.90190  0.15439  0.68822  1.0000
  H   H1459     1.0  0.71094  0.12586  0.96147  1.0000
  H   H1460     1.0  0.97259  0.21374  0.50741  1.0000
  H   H1461     1.0  0.96366  0.24170  0.64395  1.0000
  C   C835      1.0  0.93817  0.37636  0.75874  1.0000
  H   H1462     1.0  0.79154  0.01532  0.73773  1.0000
  C   C836      1.0  0.90408  0.41701  0.98442  1.0000
  C   C837      1.0  0.88370  0.42275  0.98379  1.0000
  C   C838      1.0  0.72079  0.09982  0.70384  1.0000
  H   H1463     1.0  0.87598  0.42464  0.95973  1.0000
  C   C839      1.0  0.99917  0.39275  0.84327  1.0000
  C   C840      1.0  0.89454  0.24596  0.53340  1.0000
  C   C841      1.0  0.70493  0.12865  0.93555  1.0000
  H   H1464     1.0  0.89235  0.27634  0.55045  1.0000
  H   H1465     1.0  0.69247  0.06293  0.84979  1.0000
  C   C842      1.0  0.85305  0.47540  0.93512  1.0000
  C   C843      1.0  0.77277  0.12480  0.97664  1.0000
  H   H1466     1.0  0.89693  0.18007  0.67508  1.0000
  H   H1467     1.0  0.71860  0.05967  0.68187  1.0000
  H   H1468     1.0  0.74646  0.11180  0.96021  1.0000
  H   H1469     1.0  0.69463  0.15426  0.73414  1.0000
  H   H1470     1.0  0.89112  0.15712  0.81366  1.0000
  C   C844      1.0  0.82185  0.01764  0.75182  1.0000
  H   H1471     1.0  0.70938  0.14516  0.89018  1.0000
  H   H1472     1.0  0.95088  0.31813  0.72347  1.0000
  H   H1473     1.0  0.97335  0.30425  0.63202  1.0000
  H   H1474     1.0  0.98474  0.41272  0.76657  1.0000
  C   C845      1.0  0.71626  0.14422  0.91580  1.0000
  H   H1475     1.0  0.92080  0.35343  0.80972  1.0000
  H   H1476     1.0  0.97995  0.38998  0.88602  1.0000
  H   H1477     1.0  0.75104  0.03251  0.99946  1.0000
  H   H1478     1.0  0.87447  0.17439  0.86228  1.0000
  H   H1479     1.0  0.68451  0.04132  0.70422  1.0000
  C   C846      1.0  0.91801  0.49253  0.76214  1.0000
  H   H1480     1.0  0.72452  0.05417  0.97292  1.0000
  H   H1481     1.0  0.92953  0.38150  0.78141  1.0000
  H   H1482     1.0  0.92539  0.45658  0.96560  1.0000
  C   C847      1.0  0.72648  0.17875  0.90869  1.0000
  H   H1483     1.0  0.91006  0.34989  0.87183  1.0000
  H   H1484     1.0  0.89523  0.16546  0.74814  1.0000
  H   H1485     1.0  0.69750  0.09800  0.93125  1.0000
  H   H1486     1.0  0.89622  0.21764  0.50789  1.0000
  C   C848      1.0  0.73167  0.19375  0.85021  1.0000
  H   H1487     1.0  0.72198  0.10213  0.91638  1.0000
  H   H1488     1.0  0.94791  0.47045  0.74562  1.0000
  C   C849      1.0  0.98128  0.33470  0.81937  1.0000
  H   H1489     1.0  0.95313  0.38191  0.76037  1.0000
  H   H1490     1.0  0.94875  0.32507  0.85320  1.0000
  H   H1491     1.0  0.94763  0.43917  0.92317  1.0000
  C   C850      1.0  0.74491  0.05221  0.71290  1.0000
  C   C851      1.0  0.93212  0.46506  0.94489  1.0000
  H   H1492     1.0  0.99483  0.46530  0.92660  1.0000
  C   C852      1.0  0.98099  0.39502  0.86005  1.0000
  H   H1493     1.0  0.92950  0.48386  0.82689  1.0000
  H   H1494     1.0  0.91245  0.38180  0.72531  1.0000
  H   H1495     1.0  0.68375  0.18831  0.89618  1.0000
  H   H1496     1.0  0.73141  0.16259  0.86114  1.0000
  H   H1497     1.0  0.70039  0.11035  0.89101  1.0000
  H   H1498     1.0  0.92700  0.40275  0.73047  1.0000
  H   H1499     1.0  0.92128  0.46680  0.92364  1.0000
  H   H1500     1.0  0.85563  0.18627  0.83433  1.0000
  N   N47       1.0  0.83177  0.29291  0.76044  1.0000
  C   C853      1.0  0.81511  0.28500  0.78053  1.0000
  C   C854      1.0  0.83465  0.31376  0.77219  1.0000
  C   C855      1.0  0.82638  0.29261  0.72323  1.0000
  C   C856      1.0  0.85101  0.28018  0.76579  1.0000
  C   C857      1.0  0.85758  0.27662  0.80336  1.0000
  C   C858      1.0  0.81191  0.26264  0.77499  1.0000
  C   C859      1.0  0.84046  0.30278  0.69881  1.0000
  C   C860      1.0  0.81731  0.32979  0.76486  1.0000
  C   C861      1.0  0.82280  0.35039  0.77582  1.0000
  C   C862      1.0  0.87690  0.26317  0.80592  1.0000
  C   C863      1.0  0.79516  0.25610  0.79737  1.0000
  C   C864      1.0  0.83297  0.30248  0.66219  1.0000
  H   H1501     1.0  0.80076  0.29355  0.77410  1.0000
  H   H1502     1.0  0.81719  0.28745  0.80820  1.0000
  H   H1503     1.0  0.83712  0.31396  0.80011  1.0000
  H   H1504     1.0  0.84838  0.31906  0.76105  1.0000
  H   H1505     1.0  0.81097  0.29941  0.71893  1.0000
  H   H1506     1.0  0.82626  0.27696  0.71430  1.0000
  H   H1507     1.0  0.85043  0.26547  0.75336  1.0000
  H   H1508     1.0  0.86336  0.28694  0.75272  1.0000
  H   H1509     1.0  0.84624  0.26931  0.81809  1.0000
  H   H1510     1.0  0.86021  0.29089  0.81583  1.0000
  H   H1511     1.0  0.80785  0.25988  0.74822  1.0000
  H   H1512     1.0  0.82543  0.25282  0.78131  1.0000
  H   H1513     1.0  0.85539  0.29470  0.69951  1.0000
  H   H1514     1.0  0.84190  0.31856  0.70546  1.0000
  H   H1515     1.0  0.81358  0.33078  0.73743  1.0000
  H   H1516     1.0  0.80383  0.32641  0.77911  1.0000
  H   H1517     1.0  0.81011  0.36165  0.77104  1.0000
  H   H1518     1.0  0.82650  0.35045  0.80335  1.0000
  H   H1519     1.0  0.83579  0.35481  0.76117  1.0000
  H   H1520     1.0  0.88930  0.27055  0.79420  1.0000
  H   H1521     1.0  0.88063  0.26015  0.83304  1.0000
  H   H1522     1.0  0.87534  0.24871  0.79319  1.0000
  H   H1523     1.0  0.78096  0.26496  0.79131  1.0000
  H   H1524     1.0  0.79319  0.24011  0.79274  1.0000
  H   H1525     1.0  0.79879  0.25788  0.82465  1.0000
  H   H1526     1.0  0.83147  0.28694  0.65383  1.0000
  H   H1527     1.0  0.81839  0.31130  0.65969  1.0000
  H   H1528     1.0  0.84378  0.30914  0.64520  1.0000
  C   C865      1.0  0.68872  0.14305  0.75013  1.0000
  H   H1529     1.0  0.70575  0.10640  0.69641  1.0000
  H   H1530     1.0  0.73181  0.13776  0.91157  1.0000
  C   C866      1.0  0.71162  0.05728  0.76765  1.0000
  H   H1531     1.0  0.92017  0.16656  0.66419  1.0000
  H   H1532     1.0  0.90435  0.47286  0.79876  1.0000
  C   C867      1.0  0.95357  0.28861  0.74378  1.0000
  H   H1533     1.0  0.85885  0.46304  0.91834  1.0000
  C   C868      1.0  0.00047  0.39888  0.80942  1.0000
  C   C869      1.0  0.92782  0.38629  0.72769  1.0000
  H   H1534     1.0  0.72716  0.05566  0.77692  1.0000
  H   H1535     1.0  0.96387  0.48804  0.83818  1.0000
  C   C870      1.0  0.69839  0.13746  0.78086  1.0000
  H   H1536     1.0  0.72698  0.09067  0.68251  1.0000
  C   C871      1.0  0.90865  0.16872  0.68422  1.0000
  H   H1537     1.0  0.97518  0.23899  0.51715  1.0000
  N   N48       1.0  0.94827  0.34156  0.78585  1.0000
  H   H1538     1.0  0.68907  0.07815  0.69543  1.0000
  H   H1539     1.0  0.69543  0.04033  0.82528  1.0000
  H   H1540     1.0  0.99654  0.23333  0.73712  1.0000
  H   H1541     1.0  0.95703  0.46258  0.91130  1.0000
  H   H1542     1.0  0.91860  0.45951  0.76653  1.0000
  H   H1543     1.0  0.95959  0.28002  0.76624  1.0000
  H   H1544     1.0  0.80581  0.04730  0.75138  1.0000
  C   C872      1.0  0.73404  0.11691  0.70839  1.0000
  H   H1545     1.0  0.73439  0.08549  0.74944  1.0000
  C   C873      1.0  0.76420  0.00400  0.82549  1.0000
  C   C874      1.0  0.72338  0.17665  0.86987  1.0000
  N   N49       1.0  0.90924  0.18717  0.77851  1.0000
  C   C875      1.0  0.91627  0.20768  0.77329  1.0000
  H   H1546     1.0  0.92207  0.15702  0.78712  1.0000
  C   C876      1.0  0.73235  0.18110  0.98382  1.0000
  C   C877      1.0  0.92495  0.17253  0.79415  1.0000
  C   C878      1.0  0.94699  0.17553  0.78561  1.0000
  C   C879      1.0  0.92082  0.21890  0.80643  1.0000
  H   H1547     1.0  0.72356  0.20821  0.85693  1.0000
  H   H1548     1.0  0.96117  0.20566  0.56506  1.0000
  H   H1549     1.0  0.97773  0.28569  0.66499  1.0000
  C   C880      1.0  0.89146  0.18935  0.80192  1.0000
  C   C881      1.0  0.93487  0.23519  0.80027  1.0000
  H   H1550     1.0  0.81521  0.03893  0.79252  1.0000
  H   H1551     1.0  0.90480  0.21737  0.75915  1.0000
  H   H1552     1.0  0.92951  0.20722  0.75658  1.0000
  C   C882      1.0  0.88053  0.17026  0.80824  1.0000
  H   H1553     1.0  0.97325  0.41764  0.92214  1.0000
  H   H1554     1.0  0.68025  0.16199  0.89716  1.0000
  H   H1555     1.0  0.89592  0.19453  0.82737  1.0000
  H   H1556     1.0  0.92401  0.17277  0.82240  1.0000
  H   H1557     1.0  0.88023  0.20110  0.79211  1.0000
  C   C883      1.0  0.97264  0.40581  0.97273  1.0000
  H   H1558     1.0  0.93490  0.48012  0.95417  1.0000
  H   H1559     1.0  0.90675  0.22608  0.81692  1.0000
  H   H1560     1.0  0.92757  0.20860  0.82616  1.0000
  H   H1561     1.0  0.87153  0.16697  0.78571  1.0000
  H   H1562     1.0  0.95729  0.38748  0.93744  1.0000
  H   H1563     1.0  0.93921  0.24342  0.53441  1.0000
  C   C884      1.0  0.91811  0.17539  0.71713  1.0000
  H   H1564     1.0  0.75167  0.04442  0.66029  1.0000
  H   H1565     1.0  0.68893  0.13376  0.93761  1.0000
  H   H1566     1.0  0.92994  0.31748  0.77623  1.0000
  H   H1567     1.0  0.83674  0.47477  0.93750  1.0000
  H   H1568     1.0  0.97643  0.16036  0.79150  1.0000
  C   C885      1.0  0.86620  0.17288  0.83816  1.0000
  H   H1569     1.0  0.93712  0.24327  0.82426  1.0000
  H   H1570     1.0  0.94954  0.22857  0.79134  1.0000
  H   H1571     1.0  0.92861  0.24608  0.78101  1.0000
  H   H1572     1.0  0.71704  0.03920  0.70955  1.0000
  H   H1573     1.0  0.74900  0.02326  0.68811  1.0000
  H   H1574     1.0  0.88195  0.45819  0.75988  1.0000
  C   C886      1.0  0.93981  0.35329  0.75551  1.0000
  H   H1575     1.0  0.96088  0.37702  0.97936  1.0000
  H   H1576     1.0  0.70728  0.04176  0.76532  1.0000
  H   H1577     1.0  0.87915  0.48473  0.75355  1.0000
  H   H1578     1.0  0.74394  0.15465  0.95733  1.0000
  C   C887      1.0  0.94691  0.22836  0.53103  1.0000
  H   H1579     1.0  0.96133  0.28243  0.72086  1.0000
  C   C888      1.0  0.69934  0.06763  0.79669  1.0000
  C   C889      1.0  0.70632  0.10860  0.91731  1.0000
  H   H1580     1.0  0.94897  0.34997  0.73252  1.0000
  C   C890      1.0  0.88957  0.47119  0.75079  1.0000
  C   C891      1.0  0.68049  0.17560  0.91278  1.0000
  H   H1581     1.0  0.82677  0.01860  0.72505  1.0000
  H   H1582     1.0  0.68335  0.06993  0.79004  1.0000
  H   H1583     1.0  0.88949  0.49366  0.85417  1.0000
  H   H1584     1.0  0.85747  0.15965  0.84024  1.0000
  C   C892      1.0  0.90219  0.17972  0.74487  1.0000
  H   H1585     1.0  0.93460  0.35394  0.88766  1.0000
  H   H1586     1.0  0.75141  0.06674  0.71020  1.0000
  N   N50       1.0  0.71653  0.16455  0.93188  1.0000
  C   C893      1.0  0.69604  0.17311  0.94175  1.0000
  H   H1587     1.0  0.95726  0.14397  0.78320  1.0000
  H   H1588     1.0  0.71699  0.05295  0.83755  1.0000
  C   C894      1.0  0.93640  0.34838  0.81690  1.0000
  H   H1589     1.0  0.73355  0.12633  0.68509  1.0000
  C   C895      1.0  0.89250  0.26667  0.52862  1.0000
  H   H1590     1.0  0.73854  0.19252  0.96743  1.0000
  H   H1591     1.0  0.92468  0.34881  0.74949  1.0000
  H   H1592     1.0  0.97587  0.34103  0.84396  1.0000
  C   C896      1.0  0.95188  0.47708  0.77036  1.0000
  H   H1593     1.0  0.99491  0.47071  0.86326  1.0000
  H   H1594     1.0  0.92357  0.33115  0.89759  1.0000
  H   H1595     1.0  0.95011  0.46523  0.78974  1.0000
  H   H1596     1.0  0.95181  0.18878  0.79890  1.0000
  C   C897      1.0  0.90849  0.47299  0.77155  1.0000
  H   H1597     1.0  0.83196  0.04696  0.76087  1.0000
  H   H1598     1.0  0.92894  0.16297  0.72527  1.0000
  H   H1599     1.0  0.94945  0.17789  0.75818  1.0000
  H   H1600     1.0  0.97006  0.46720  0.96793  1.0000
  C   C898      1.0  0.95676  0.31075  0.74711  1.0000
  C   C899      1.0  0.68942  0.07167  0.72154  1.0000
  H   H1601     1.0  0.70492  0.08223  0.80264  1.0000
  H   H1602     1.0  0.96460  0.23111  0.57698  1.0000
  C   C900      1.0  0.96079  0.15757  0.79706  1.0000
  H   H1603     1.0  0.99456  0.28619  0.62944  1.0000
  H   H1604     1.0  0.92607  0.18874  0.71130  1.0000
  H   H1605     1.0  0.77100  0.03665  0.69035  1.0000
  H   H1606     1.0  0.93620  0.38222  0.70416  1.0000
  C   C901      1.0  0.96974  0.34574  0.78987  1.0000
  C   C902      1.0  0.99566  0.23985  0.63943  1.0000
  C   C903      1.0  0.72198  0.05454  0.70834  1.0000
  H   H1607     1.0  0.74295  0.17693  0.91215  1.0000
  H   H1608     1.0  0.68118  0.08325  0.73730  1.0000
  H   H1609     1.0  0.95125  0.31020  0.80069  1.0000
  H   H1610     1.0  0.69009  0.16406  0.96258  1.0000
  C   C904      1.0  0.92508  0.34263  0.87760  1.0000
  H   H1611     1.0  0.92439  0.32147  0.83736  1.0000
  C   C905      1.0  0.93431  0.33286  0.84580  1.0000
  C   C906      1.0  0.96698  0.45170  0.96158  1.0000
  H   H1612     1.0  0.79686  0.00848  0.78062  1.0000
  C   C907      1.0  0.67717  0.05318  0.72035  1.0000
  H   H1613     1.0  0.86013  0.47309  0.96051  1.0000
  H   H1614     1.0  0.98261  0.40287  0.99494  1.0000
  H   H1615     1.0  0.95937  0.15499  0.82481  1.0000
  H   H1616     1.0  0.74967  0.11097  0.71292  1.0000
  H   H1617     1.0  0.74909  0.04583  0.73821  1.0000
  H   H1618     1.0  0.97774  0.44165  0.88280  1.0000
  H   H1619     1.0  0.93751  0.28652  0.74100  1.0000
  C   C908      1.0  0.81842  0.03898  0.76491  1.0000
  C   C909      1.0  0.95396  0.22109  0.56626  1.0000
  H   H1620     1.0  0.74776  0.19431  0.85565  1.0000
  H   H1621     1.0  0.95850  0.41364  0.98136  1.0000
  C   C910      1.0  0.86344  0.49222  0.82285  1.0000
  C   C911      1.0  0.94600  0.31979  0.77897  1.0000
  C   C912      1.0  0.96467  0.22882  0.50617  1.0000
  C   C913      1.0  0.75465  0.11658  0.98183  1.0000
  H   H1622     1.0  0.69664  0.18824  0.95266  1.0000
  H   H1623     1.0  0.89322  0.46904  0.72351  1.0000
  H   H1624     1.0  0.72986  0.19134  0.82251  1.0000
  H   H1625     1.0  0.94104  0.22108  0.58367  1.0000
  H   H1626     1.0  0.97090  0.36188  0.79475  1.0000
  H   H1627     1.0  0.97299  0.31205  0.74868  1.0000
  H   H1628     1.0  0.72191  0.19449  0.91557  1.0000
  H   H1629     1.0  0.89045  0.19060  0.73414  1.0000
  H   H1630     1.0  0.80655  0.01267  0.86748  1.0000
  H   H1631     1.0  0.98167  0.37683  0.95055  1.0000
  H   H1632     1.0  0.70760  0.17621  0.86270  1.0000
  H   H1633     1.0  0.99536  0.24136  0.61206  1.0000
  C   C914      1.0  0.80256  0.00668  0.75425  1.0000
  C   C915      1.0  0.99624  0.23539  0.70986  1.0000
  H   H1634     1.0  0.95979  0.44599  0.98466  1.0000
  C   C916      1.0  0.99370  0.44198  0.88892  1.0000
  C   C917      1.0  0.73618  0.06109  0.98756  1.0000
  N   N51       1.0  0.98612  0.43933  0.95406  1.0000
  C   C918      1.0  0.98505  0.29559  0.64711  1.0000
  C   C919      1.0  0.98263  0.41811  0.94514  1.0000
  H   H1635     1.0  0.97969  0.31847  0.81918  1.0000
  H   H1636     1.0  0.98719  0.31942  0.68247  1.0000
  H   H1637     1.0  0.93604  0.21812  0.52191  1.0000
  H   H1638     1.0  0.85104  0.49644  0.89404  1.0000
  H   H1639     1.0  0.72242  0.15179  0.98224  1.0000
  C   C920      1.0  0.99888  0.43868  0.98572  1.0000
  H   H1640     1.0  0.91917  0.49317  0.73390  1.0000
  N   N52       1.0  0.93797  0.49533  0.77807  1.0000
  C   C921      1.0  0.67137  0.13433  0.73997  1.0000
  H   H1641     1.0  0.74757  0.06572  0.96948  1.0000
  C   C922      1.0  0.96789  0.38554  0.95906  1.0000
  C   C923      1.0  0.97441  0.47992  0.76737  1.0000
  H   H1642     1.0  0.72919  0.07449  0.00055  1.0000
  H   H1643     1.0  0.93973  0.49534  0.88542  1.0000
  C   C924      1.0  0.99744  0.44875  0.92584  1.0000
  H   H1644     1.0  0.99703  0.40969  0.93850  1.0000
  H   H1645     1.0  0.76172  0.17077  0.00329  1.0000
  H   H1646     1.0  0.98010  0.48769  0.78956  1.0000
  C   C925      1.0  0.99748  0.30980  0.66639  1.0000
  C   C926      1.0  0.93499  0.49761  0.81581  1.0000
  H   H1647     1.0  0.83778  0.49595  0.79030  1.0000
  C   C927      1.0  0.67278  0.11492  0.79188  1.0000
  H   H1648     1.0  0.83410  0.00998  0.76703  1.0000
  C   C928      1.0  0.98661  0.45988  0.76408  1.0000
  H   H1649     1.0  0.98402  0.45020  0.78624  1.0000
  H   H1650     1.0  0.97726  0.48881  0.74426  1.0000
  H   H1651     1.0  0.79742  0.13693  0.00168  1.0000
  C   C929      1.0  0.95351  0.50171  0.83695  1.0000
  H   H1652     1.0  0.87423  0.49472  0.91694  1.0000
  C   C930      1.0  0.85787  0.49531  0.91965  1.0000
  C   C931      1.0  0.87950  0.50165  0.83635  1.0000
  Fe  Fe105     1.0  0.90595  0.62428  0.12282  1.0000
  S   S209      1.0  0.87887  0.61845  0.15318  1.0000
  S   S210      1.0  0.90657  0.63964  0.07172  1.0000
  Fe  Fe106     1.0  0.93382  0.60621  0.17672  1.0000
  S   S211      1.0  0.90929  0.59861  0.21106  1.0000
  S   S212      1.0  0.96514  0.59752  0.19248  1.0000
  Fe  Fe107     1.0  0.89516  0.58827  0.16352  1.0000
  S   S213      1.0  0.88031  0.55960  0.15558  1.0000
  Fe  Fe108     1.0  0.89563  0.62950  0.19822  1.0000
  S   S214      1.0  0.88364  0.64847  0.24288  1.0000
  S   S215      1.0  0.92096  0.59361  0.13000  1.0000
  S   S216      1.0  0.92133  0.63759  0.16690  1.0000
  Fe  Fe109     1.0  0.77179  0.90670  0.21062  1.0000
  S   S217      1.0  0.74763  0.90260  0.17167  1.0000
  S   S218      1.0  0.78967  0.87696  0.22654  1.0000
  Fe  Fe110     1.0  0.76042  0.95224  0.21186  1.0000
  S   S219      1.0  0.73623  0.95047  0.17333  1.0000
  S   S220      1.0  0.76245  0.98260  0.23673  1.0000
  Fe  Fe111     1.0  0.72769  0.92387  0.20340  1.0000
  S   S221      1.0  0.69401  0.92207  0.21076  1.0000
  Fe  Fe112     1.0  0.75786  0.92951  0.14478  1.0000
  S   S222      1.0  0.76460  0.93567  0.08838  1.0000
  S   S223      1.0  0.75098  0.92647  0.24365  1.0000
  S   S224      1.0  0.78293  0.93288  0.18214  1.0000
  Fe  Fe113     1.0  0.88792  0.77838  0.38345  1.0000
  S   S225      1.0  0.89996  0.80771  0.37249  1.0000
  S   S226      1.0  0.87252  0.77326  0.43447  1.0000
  Fe  Fe114     1.0  0.89929  0.76237  0.31208  1.0000
  S   S227      1.0  0.91214  0.79131  0.29744  1.0000
  S   S228      1.0  0.90289  0.73881  0.26984  1.0000
  Fe  Fe115     1.0  0.92610  0.78966  0.34946  1.0000
  S   S229      1.0  0.95728  0.79460  0.36893  1.0000
  Fe  Fe116     1.0  0.88464  0.80696  0.32135  1.0000
  S   S230      1.0  0.86825  0.83686  0.30265  1.0000
  S   S231      1.0  0.91473  0.76012  0.36301  1.0000
  S   S232      1.0  0.87115  0.77821  0.33334  1.0000
  C   C932      1.0  0.88183  0.77790  0.47592  1.0000
  C   C933      1.0  0.90085  0.78411  0.48118  1.0000
  H   H1653     1.0  0.82095  0.88923  0.33230  1.0000
  H   H1654     1.0  0.91037  0.78619  0.45959  1.0000
  H   H1655     1.0  0.96312  0.69161  0.12840  1.0000
  C   C934      1.0  0.76036  0.92596  0.04699  1.0000
  C   C935      1.0  0.75005  0.90905  0.04163  1.0000
  C   C936      1.0  0.93684  0.53079  0.11717  1.0000
  H   H1656     1.0  0.74386  0.90161  0.06303  1.0000
  C   C937      1.0  0.95512  0.62254  0.02206  1.0000
  H   H1657     1.0  0.99395  0.75104  0.49515  1.0000
  C   C938      1.0  0.68522  0.91835  0.27997  1.0000
  C   C939      1.0  0.74738  0.90194  0.00831  1.0000
  H   H1658     1.0  0.96625  0.73782  0.25929  1.0000
  H   H1659     1.0  0.95677  0.68444  0.27653  1.0000
  H   H1660     1.0  0.99491  0.61306  0.02182  1.0000
  H   H1661     1.0  0.70104  0.91603  0.28420  1.0000
  H   H1662     1.0  0.80111  0.78979  0.33290  1.0000
  H   H1663     1.0  0.97036  0.65953  0.17828  1.0000
  C   C940      1.0  0.81181  0.86616  0.24736  1.0000
  C   C941      1.0  0.81466  0.84524  0.25141  1.0000
  C   C942      1.0  0.83181  0.83596  0.26770  1.0000
  C   C943      1.0  0.84652  0.84746  0.28032  1.0000
  C   C944      1.0  0.84373  0.86834  0.27601  1.0000
  C   C945      1.0  0.82660  0.87761  0.25971  1.0000
  H   H1664     1.0  0.80346  0.83612  0.24193  1.0000
  H   H1665     1.0  0.83360  0.81992  0.27053  1.0000
  H   H1666     1.0  0.85491  0.87749  0.28555  1.0000
  H   H1667     1.0  0.82482  0.89366  0.25686  1.0000
  C   C946      1.0  0.89954  0.62616  0.03600  1.0000
  C   C947      1.0  0.89224  0.60745  0.03965  1.0000
  H   H1668     1.0  0.94451  0.61465  0.25663  1.0000
  H   H1669     1.0  0.89035  0.60124  0.06474  1.0000
  H   H1670     1.0  0.93670  0.65835  0.22836  1.0000
  C   C948      1.0  0.88931  0.53604  0.17234  1.0000
  C   C949      1.0  0.90253  0.53423  0.19978  1.0000
  C   C950      1.0  0.90838  0.51527  0.21366  1.0000
  C   C951      1.0  0.96909  0.70646  0.24539  1.0000
  C   C952      1.0  0.84478  0.84082  0.17439  1.0000
  C   C953      1.0  0.88233  0.51873  0.15854  1.0000
  H   H1671     1.0  0.90797  0.54744  0.21069  1.0000
  H   H1672     1.0  0.93918  0.62195  0.02833  1.0000
  C   C954      1.0  0.95226  0.65305  0.23511  1.0000
  H   H1673     1.0  0.87204  0.51999  0.13739  1.0000
  C   C955      1.0  0.88943  0.67346  0.25045  1.0000
  C   C956      1.0  0.88515  0.68224  0.28227  1.0000
  C   C957      1.0  0.88919  0.70215  0.28886  1.0000
  C   C958      1.0  0.89744  0.71359  0.26355  1.0000
  C   C959      1.0  0.90170  0.70477  0.23177  1.0000
  C   C960      1.0  0.89777  0.68487  0.22527  1.0000
  H   H1674     1.0  0.87859  0.67363  0.30192  1.0000
  H   H1675     1.0  0.88577  0.70868  0.31340  1.0000
  H   H1676     1.0  0.90787  0.71350  0.21186  1.0000
  H   H1677     1.0  0.90067  0.67854  0.20045  1.0000
  C   C961      1.0  0.94976  0.68441  0.13686  1.0000
  C   C962      1.0  0.97903  0.79635  0.34425  1.0000
  C   C963      1.0  0.97902  0.79502  0.30880  1.0000
  H   H1678     1.0  0.79460  0.88869  0.32591  1.0000
  H   H1679     1.0  0.96532  0.79295  0.29550  1.0000
  C   C964      1.0  0.98161  0.60889  0.16599  1.0000
  C   C965      1.0  0.97463  0.62405  0.14347  1.0000
  C   C966      1.0  0.94823  0.68449  0.17560  1.0000
  H   H1680     1.0  0.95897  0.62832  0.14132  1.0000
  H   H1681     1.0  0.94166  0.69162  0.24137  1.0000
  H   H1682     1.0  0.81752  0.76907  0.34803  1.0000
  H   H1683     1.0  0.93474  0.67721  0.18253  1.0000
  H   H1684     1.0  0.74777  0.86183  0.14670  1.0000
  H   H1685     1.0  0.94616  0.70025  0.18390  1.0000
  H   H1686     1.0  0.94502  0.65591  0.28953  1.0000
  H   H1687     1.0  0.95474  0.56807  0.06855  1.0000
  H   H1688     1.0  0.81836  0.85902  0.44484  1.0000
  H   H1689     1.0  0.72020  0.99668  0.25382  1.0000
  C   C967      1.0  0.96706  0.67371  0.19222  1.0000
  C   C968      1.0  0.87816  0.68899  0.49550  1.0000
  C   C969      1.0  0.67195  0.91851  0.30772  1.0000
  H   H1690     1.0  0.80418  0.89231  0.36805  1.0000
  C   C970      1.0  0.93832  0.62700  0.27306  1.0000
  C   C971      1.0  0.80530  0.85240  0.43420  1.0000
  H   H1691     1.0  0.88103  0.58257  0.01379  1.0000
  H   H1692     1.0  0.98324  0.70428  0.25987  1.0000
  H   H1693     1.0  0.93638  0.69274  0.12572  1.0000
  H   H1694     1.0  0.84651  0.82501  0.18295  1.0000
  H   H1695     1.0  0.73202  0.96604  0.27857  1.0000
  H   H1696     1.0  0.70253  0.95430  0.25740  1.0000
  H   H1697     1.0  0.82646  0.78647  0.31790  1.0000
  H   H1698     1.0  0.73757  0.86148  0.10444  1.0000
  H   H1699     1.0  0.98911  0.74624  0.45095  1.0000
  N   N53       1.0  0.84262  0.58869  0.23599  1.0000
  C   C972      1.0  0.83639  0.57955  0.20312  1.0000
  C   C973      1.0  0.84567  0.61054  0.23059  1.0000
  C   C974      1.0  0.86230  0.57797  0.24645  1.0000
  C   C975      1.0  0.82799  0.58595  0.26422  1.0000
  C   C976      1.0  0.80622  0.59415  0.25785  1.0000
  C   C977      1.0  0.83416  0.55679  0.20397  1.0000
  C   C978      1.0  0.87339  0.58728  0.27631  1.0000
  C   C979      1.0  0.83167  0.62241  0.20481  1.0000
  C   C980      1.0  0.83419  0.64474  0.20596  1.0000
  C   C981      1.0  0.79266  0.58761  0.28613  1.0000
  H   H1700     1.0  0.79935  0.83713  0.48168  1.0000
  C   C982      1.0  0.89153  0.57362  0.28739  1.0000
  H   H1701     1.0  0.84733  0.58238  0.18289  1.0000
  H   H1702     1.0  0.82213  0.58684  0.19358  1.0000
  H   H1703     1.0  0.84497  0.61858  0.25527  1.0000
  H   H1704     1.0  0.86090  0.61221  0.22075  1.0000
  H   H1705     1.0  0.87269  0.57693  0.22444  1.0000
  H   H1706     1.0  0.86036  0.56229  0.25402  1.0000
  H   H1707     1.0  0.82811  0.56991  0.27137  1.0000
  H   H1708     1.0  0.83257  0.59344  0.28767  1.0000
  H   H1709     1.0  0.80032  0.58883  0.23360  1.0000
  H   H1710     1.0  0.80511  0.61068  0.25797  1.0000
  C   C983      1.0  0.96805  0.59648  0.06216  1.0000
  H   H1711     1.0  0.97379  0.50871  0.11981  1.0000
  H   H1712     1.0  0.86380  0.58971  0.29890  1.0000
  H   H1713     1.0  0.87862  0.60187  0.26873  1.0000
  H   H1714     1.0  0.83522  0.61737  0.17853  1.0000
  H   H1715     1.0  0.81585  0.62036  0.20932  1.0000
  H   H1716     1.0  0.83148  0.65066  0.23196  1.0000
  H   H1717     1.0  0.84941  0.64772  0.19792  1.0000
  H   H1718     1.0  0.82348  0.65284  0.18826  1.0000
  H   H1719     1.0  0.77721  0.59408  0.28144  1.0000
  H   H1720     1.0  0.79264  0.57110  0.28681  1.0000
  H   H1721     1.0  0.79759  0.59289  0.31120  1.0000
  H   H1722     1.0  0.71997  0.98122  0.31068  1.0000
  H   H1723     1.0  0.89317  0.68087  0.49551  1.0000
  N   N54       1.0  0.69140  0.98527  0.26088  1.0000
  H   H1724     1.0  0.88686  0.55944  0.29808  1.0000
  H   H1725     1.0  0.90163  0.57013  0.26564  1.0000
  H   H1726     1.0  0.89988  0.58111  0.30723  1.0000
  H   H1727     1.0  0.84870  0.54825  0.20862  1.0000
  H   H1728     1.0  0.71091  0.94988  0.34095  1.0000
  H   H1729     1.0  0.69035  0.98712  0.33708  1.0000
  H   H1730     1.0  0.97977  0.68261  0.18626  1.0000
  H   H1731     1.0  0.98282  0.64682  0.10866  1.0000
  H   H1732     1.0  0.76836  0.98159  0.07061  1.0000
  H   H1733     1.0  0.83660  0.55307  0.14909  1.0000
  N   N55       1.0  0.96583  0.66953  0.22984  1.0000
  H   H1734     1.0  0.78698  0.98875  0.17664  1.0000
  C   C984      1.0  0.67799  0.92090  0.24677  1.0000
  H   H1735     1.0  0.72449  0.93534  0.30871  1.0000
  H   H1736     1.0  0.85490  0.77071  0.50070  1.0000
  H   H1737     1.0  0.93833  0.58782  0.02056  1.0000
  N   N56       1.0  0.96578  0.60193  0.02487  1.0000
  H   H1738     1.0  0.98994  0.78369  0.19713  1.0000
  H   H1739     1.0  0.87447  0.69388  0.46905  1.0000
  C   C985      1.0  0.81048  0.86299  0.01931  1.0000
  H   H1740     1.0  0.84442  0.85044  0.19724  1.0000
  H   H1741     1.0  0.82359  0.55290  0.22396  1.0000
  H   H1742     1.0  0.99402  0.73833  0.20938  1.0000
  H   H1743     1.0  0.71387  0.97989  0.22189  1.0000
  H   H1744     1.0  0.95053  0.66889  0.12718  1.0000
  C   C986      1.0  0.88703  0.59687  0.01076  1.0000
  C   C987      1.0  0.86968  0.77536  0.50442  1.0000
  H   H1745     1.0  0.68858  0.95980  0.29421  1.0000
  H   H1746     1.0  0.73730  0.95132  0.33599  1.0000
  H   H1747     1.0  0.99156  0.78189  0.43621  1.0000
  C   C988      1.0  0.69962  0.96595  0.27716  1.0000
  H   H1748     1.0  0.75400  0.84076  0.11950  1.0000
  H   H1749     1.0  0.87941  0.84329  0.46529  1.0000
  H   H1750     1.0  0.79721  0.86397  0.41802  1.0000
  C   C989      1.0  0.72317  0.94981  0.32218  1.0000
  H   H1751     1.0  0.95938  0.67078  0.05271  1.0000
  H   H1752     1.0  0.81753  0.87510  0.16867  1.0000
  H   H1753     1.0  0.96589  0.50557  0.20987  1.0000
  C   C990      1.0  0.96550  0.76302  0.47650  1.0000
  H   H1754     1.0  0.98113  0.60323  0.07316  1.0000
  H   H1755     1.0  0.80243  0.84926  0.01979  1.0000
  H   H1756     1.0  0.79251  0.98303  0.05134  1.0000
  H   H1757     1.0  0.95259  0.72217  0.28630  1.0000
  C   C991      1.0  0.67789  0.99416  0.32165  1.0000
  N   N57       1.0  0.80587  0.87221  0.11766  1.0000
  C   C992      1.0  0.80207  0.89462  0.11675  1.0000
  C   C993      1.0  0.78719  0.86320  0.12883  1.0000
  C   C994      1.0  0.82155  0.86710  0.14458  1.0000
  C   C995      1.0  0.81310  0.86367  0.08397  1.0000
  C   C996      1.0  0.80587  0.87530  0.05122  1.0000
  C   C997      1.0  0.82089  0.90618  0.11224  1.0000
  H   H1758     1.0  0.79050  0.97654  0.09563  1.0000
  C   C998      1.0  0.76866  0.86739  0.10597  1.0000
  C   C999      1.0  0.96956  0.57391  0.07152  1.0000
  H   H1759     1.0  0.97917  0.63862  0.04522  1.0000
  C   C1000     1.0  0.81588  0.92738  0.09897  1.0000
  H   H1760     1.0  0.79481  0.89989  0.14074  1.0000
  H   H1761     1.0  0.79116  0.89961  0.09676  1.0000
  H   H1762     1.0  0.78970  0.84668  0.13040  1.0000
  H   H1763     1.0  0.78307  0.86830  0.15497  1.0000
  C   C1001     1.0  0.95141  0.64442  0.27170  1.0000
  H   H1764     1.0  0.83602  0.87239  0.13670  1.0000
  H   H1765     1.0  0.82963  0.86254  0.08276  1.0000
  H   H1766     1.0  0.80913  0.84800  0.08161  1.0000
  H   H1767     1.0  0.81346  0.88922  0.04863  1.0000
  H   H1768     1.0  0.78973  0.87972  0.05125  1.0000
  H   H1769     1.0  0.82847  0.90722  0.13719  1.0000
  H   H1770     1.0  0.83162  0.89846  0.09447  1.0000
  H   H1771     1.0  0.98013  0.56494  0.05527  1.0000
  C   C1002     1.0  0.67398  0.98117  0.23857  1.0000
  H   H1772     1.0  0.76427  0.88360  0.10419  1.0000
  H   H1773     1.0  0.77146  0.86120  0.08029  1.0000
  C   C1003     1.0  0.70751  0.99231  0.23823  1.0000
  H   H1774     1.0  0.99655  0.79605  0.26308  1.0000
  H   H1775     1.0  0.95494  0.60296  0.07675  1.0000
  H   H1776     1.0  0.96746  0.52108  0.15806  1.0000
  C   C1004     1.0  0.97606  0.57029  0.10834  1.0000
  H   H1777     1.0  0.91836  0.51402  0.23523  1.0000
  H   H1778     1.0  0.80573  0.93594  0.11671  1.0000
  H   H1779     1.0  0.82968  0.93515  0.09666  1.0000
  H   H1780     1.0  0.80875  0.92716  0.07353  1.0000
  N   N58       1.0  0.82716  0.83438  0.38694  1.0000
  C   C1005     1.0  0.82736  0.85481  0.37087  1.0000
  C   C1006     1.0  0.84745  0.82851  0.40190  1.0000
  C   C1007     1.0  0.82380  0.81977  0.35891  1.0000
  C   C1008     1.0  0.81104  0.83327  0.41329  1.0000
  C   C1009     1.0  0.80877  0.86186  0.34929  1.0000
  C   C1010     1.0  0.82333  0.79757  0.36978  1.0000
  C   C1011     1.0  0.85392  0.84095  0.43228  1.0000
  C   C1012     1.0  0.87561  0.83534  0.44185  1.0000
  C   C1013     1.0  0.80708  0.88442  0.34366  1.0000
  C   C1014     1.0  0.81668  0.78502  0.34028  1.0000
  H   H1781     1.0  0.84048  0.85531  0.35383  1.0000
  H   H1782     1.0  0.82947  0.86633  0.39018  1.0000
  H   H1783     1.0  0.84846  0.81293  0.41160  1.0000
  H   H1784     1.0  0.85897  0.82885  0.38168  1.0000
  H   H1785     1.0  0.83542  0.82046  0.33897  1.0000
  H   H1786     1.0  0.80938  0.82381  0.34595  1.0000
  H   H1787     1.0  0.79696  0.82937  0.40116  1.0000
  H   H1788     1.0  0.81519  0.82084  0.43148  1.0000
  H   H1789     1.0  0.80986  0.85479  0.32391  1.0000
  H   H1790     1.0  0.79485  0.85765  0.36119  1.0000
  H   H1791     1.0  0.81293  0.79585  0.39114  1.0000
  H   H1792     1.0  0.83825  0.79110  0.37772  1.0000
  H   H1793     1.0  0.85249  0.85714  0.42664  1.0000
  H   H1794     1.0  0.84487  0.83785  0.45491  1.0000
  H   H1795     1.0  0.97012  0.76742  0.19883  1.0000
  C   C1015     1.0  0.95718  0.72482  0.25967  1.0000
  H   H1796     1.0  0.99696  0.80079  0.38826  1.0000
  C   C1016     1.0  0.95427  0.65964  0.03471  1.0000
  H   H1797     1.0  0.96632  0.63871  0.28103  1.0000
  H   H1798     1.0  0.82685  0.83533  0.13072  1.0000
  H   H1799     1.0  0.94368  0.72860  0.24398  1.0000
  C   C1017     1.0  0.95740  0.68767  0.24885  1.0000
  H   H1800     1.0  0.81331  0.83983  0.16984  1.0000
  C   C1018     1.0  0.82559  0.84468  0.15383  1.0000
  H   H1801     1.0  0.93246  0.50801  0.15376  1.0000
  H   H1802     1.0  0.96259  0.81135  0.48908  1.0000
  H   H1803     1.0  0.92093  0.53203  0.10954  1.0000
  H   H1804     1.0  0.94597  0.53346  0.09446  1.0000
  H   H1805     1.0  0.92300  0.63186  0.26455  1.0000
  H   H1806     1.0  0.98803  0.76480  0.16493  1.0000
  H   H1807     1.0  0.98768  0.63103  0.23370  1.0000
  H   H1808     1.0  0.78735  0.86198  0.47769  1.0000
  H   H1809     1.0  0.81135  0.55697  0.16455  1.0000
  H   H1810     1.0  0.93762  0.62129  0.29951  1.0000
  H   H1811     1.0  0.82670  0.85884  0.01728  1.0000
  H   H1812     1.0  0.96507  0.57791  0.12578  1.0000
  H   H1813     1.0  0.97261  0.70975  0.21859  1.0000
  C   C1019     1.0  0.99693  0.79921  0.36107  1.0000
  H   H1814     1.0  0.77790  0.84191  0.45417  1.0000
  H   H1815     1.0  0.67858  0.96922  0.21995  1.0000
  H   H1816     1.0  0.87823  0.81905  0.44671  1.0000
  C   C1020     1.0  0.98648  0.66356  0.24292  1.0000
  C   C1021     1.0  0.79164  0.84800  0.46371  1.0000
  H   H1817     1.0  0.85785  0.84382  0.15871  1.0000
  H   H1818     1.0  0.95622  0.64042  0.21758  1.0000
  C   C1022     1.0  0.75097  0.85723  0.12012  1.0000
  C   C1023     1.0  0.98806  0.63427  0.12446  1.0000
  H   H1819     1.0  0.93886  0.54248  0.13639  1.0000
  C   C1024     1.0  0.71948  0.96700  0.29682  1.0000
  H   H1820     1.0  0.82550  0.53329  0.17101  1.0000
  H   H1821     1.0  0.77581  0.94873  0.02214  1.0000
  H   H1822     1.0  0.67779  0.91644  0.33321  1.0000
  C   C1025     1.0  0.96466  0.50760  0.14312  1.0000
  C   C1026     1.0  0.96277  0.63877  0.04539  1.0000
  H   H1823     1.0  0.95787  0.63633  0.07186  1.0000
  C   C1027     1.0  0.98602  0.76824  0.19232  1.0000
  H   H1824     1.0  0.88558  0.83967  0.42118  1.0000
  H   H1825     1.0  0.98659  0.66262  0.27115  1.0000
  H   H1826     1.0  0.95858  0.76998  0.45314  1.0000
  C   C1028     1.0  0.78366  0.98600  0.07477  1.0000
  H   H1827     1.0  0.97709  0.55408  0.11421  1.0000
  C   C1029     1.0  0.76782  0.93564  0.01847  1.0000
  C   C1030     1.0  0.94248  0.51005  0.13210  1.0000
  H   H1828     1.0  0.86706  0.67874  0.50396  1.0000
  C   C1031     1.0  0.82639  0.54969  0.17004  1.0000
  H   H1829     1.0  0.99086  0.57585  0.11282  1.0000
  H   H1830     1.0  0.99389  0.78802  0.47953  1.0000
  C   C1032     1.0  0.98774  0.75767  0.47115  1.0000
  H   H1831     1.0  0.93778  0.66067  0.03509  1.0000
  C   C1033     1.0  0.68551  0.00129  0.28664  1.0000
  H   H1832     1.0  0.96293  0.77345  0.49805  1.0000
  C   C1034     1.0  0.99835  0.77634  0.46069  1.0000
  C   C1035     1.0  0.99674  0.79677  0.29050  1.0000
  H   H1833     1.0  0.82875  0.56097  0.01688  1.0000
  C   C1036     1.0  0.99894  0.58286  0.00564  1.0000
  H   H1834     1.0  0.96026  0.83811  0.48508  1.0000
  H   H1835     1.0  0.95806  0.74930  0.48227  1.0000
  H   H1836     1.0  0.99658  0.67528  0.23665  1.0000
  H   H1837     1.0  0.99865  0.64507  0.20067  1.0000
  H   H1838     1.0  0.99551  0.75704  0.24104  1.0000
  C   C1037     1.0  0.99657  0.64383  0.22853  1.0000
  C   C1038     1.0  0.95688  0.82540  0.50163  1.0000
  H   H1839     1.0  0.95939  0.66331  0.00880  1.0000
  H   H1840     1.0  0.95953  0.57214  0.00911  1.0000
  H   H1841     1.0  0.99882  0.51761  0.17683  1.0000
  H   H1842     1.0  0.66882  0.99455  0.22334  1.0000
  C   C1039     1.0  0.98577  0.60271  0.00805  1.0000
  C   C1040     1.0  0.95296  0.58774  0.00734  1.0000
  H   H1843     1.0  0.94048  0.82560  0.50416  1.0000
  H   H1844     1.0  0.99795  0.74141  0.30390  1.0000
  C   C1041     1.0  0.99885  0.75333  0.21414  1.0000
  Fe  Fe117     1.0  0.89735  0.78336  0.64002  1.0000
  S   S233      1.0  0.91102  0.80301  0.67843  1.0000
  S   S234      1.0  0.90488  0.79008  0.58416  1.0000
  Fe  Fe118     1.0  0.88723  0.75348  0.69650  1.0000
  S   S235      1.0  0.90022  0.77122  0.73775  1.0000
  S   S236      1.0  0.87510  0.72292  0.70394  1.0000
  Fe  Fe119     1.0  0.88448  0.79846  0.71203  1.0000
  S   S237      1.0  0.87163  0.82431  0.74649  1.0000
  Fe  Fe120     1.0  0.92526  0.77472  0.70118  1.0000
  S   S238      1.0  0.95760  0.76507  0.71297  1.0000
  S   S239      1.0  0.86987  0.78039  0.67217  1.0000
  S   S240      1.0  0.91311  0.75536  0.66150  1.0000
  Fe  Fe121     1.0  0.75599  0.91578  0.88557  1.0000
  S   S241      1.0  0.78701  0.91834  0.86629  1.0000
  S   S242      1.0  0.75082  0.90206  0.93824  1.0000
  Fe  Fe122     1.0  0.73666  0.93049  0.81729  1.0000
  S   S243      1.0  0.76683  0.93424  0.79483  1.0000
  S   S244      1.0  0.71256  0.94029  0.77765  1.0000
  Fe  Fe123     1.0  0.77724  0.90442  0.81769  1.0000
  S   S245      1.0  0.79168  0.87941  0.78330  1.0000
  Fe  Fe124     1.0  0.77404  0.94786  0.84480  1.0000
  S   S246      1.0  0.79155  0.97502  0.85223  1.0000
  S   S247      1.0  0.74666  0.89995  0.83799  1.0000
  S   S248      1.0  0.74349  0.94599  0.86630  1.0000
  Fe  Fe125     1.0  0.89349  0.59720  0.88988  1.0000
  S   S249      1.0  0.87460  0.60759  0.84487  1.0000
  S   S250      1.0  0.88229  0.59112  0.94270  1.0000
  Fe  Fe126     1.0  0.92944  0.58543  0.84584  1.0000
  S   S251      1.0  0.91351  0.59465  0.79760  1.0000
  S   S252      1.0  0.95979  0.56898  0.84415  1.0000
  Fe  Fe127     1.0  0.90171  0.62213  0.82592  1.0000
  S   S253      1.0  0.90810  0.65363  0.80755  1.0000
  Fe  Fe128     1.0  0.88826  0.57940  0.82036  1.0000
  S   S254      1.0  0.87145  0.55715  0.79148  1.0000
  S   S255      1.0  0.91946  0.61350  0.87349  1.0000
  S   S256      1.0  0.90517  0.56844  0.86610  1.0000
  C   C1042     1.0  0.86905  0.53219  0.80461  1.0000
  C   C1043     1.0  0.85338  0.52251  0.79090  1.0000
  H   H1845     1.0  0.96595  0.67382  0.70188  1.0000
  H   H1846     1.0  0.81576  0.94818  0.64296  1.0000
  H   H1847     1.0  0.81476  0.56510  0.86327  1.0000
  C   C1044     1.0  0.88210  0.52175  0.82761  1.0000
  H   H1848     1.0  0.84319  0.53038  0.77320  1.0000
  H   H1849     1.0  0.93829  0.52157  0.87366  1.0000
  C   C1045     1.0  0.96072  0.61753  0.79224  1.0000
  H   H1850     1.0  0.89415  0.52917  0.83851  1.0000
  C   C1046     1.0  0.88434  0.70391  0.73322  1.0000
  C   C1047     1.0  0.87482  0.68611  0.73559  1.0000
  C   C1048     1.0  0.88182  0.67055  0.75802  1.0000
  C   C1049     1.0  0.89846  0.67260  0.77853  1.0000
  C   C1050     1.0  0.90804  0.69037  0.77604  1.0000
  C   C1051     1.0  0.90109  0.70589  0.75354  1.0000
  H   H1851     1.0  0.86188  0.68435  0.72004  1.0000
  H   H1852     1.0  0.87425  0.65703  0.75957  1.0000
  H   H1853     1.0  0.92083  0.69226  0.79186  1.0000
  H   H1854     1.0  0.90861  0.71943  0.75208  1.0000
  C   C1052     1.0  0.84916  0.83949  0.75612  1.0000
  C   C1053     1.0  0.84928  0.85347  0.78269  1.0000
  C   C1054     1.0  0.83204  0.86590  0.79123  1.0000
  C   C1055     1.0  0.81430  0.86464  0.77319  1.0000
  C   C1056     1.0  0.81418  0.85068  0.74662  1.0000
  C   C1057     1.0  0.83138  0.83819  0.73821  1.0000
  H   H1855     1.0  0.86287  0.85471  0.79678  1.0000
  H   H1856     1.0  0.83254  0.87647  0.81169  1.0000
  H   H1857     1.0  0.80064  0.84948  0.73238  1.0000
  H   H1858     1.0  0.83091  0.82761  0.71774  1.0000
  C   C1058     1.0  0.89037  0.52813  0.95292  1.0000
  H   H1859     1.0  0.93324  0.57945  0.92694  1.0000
  C   C1059     1.0  0.68665  0.93766  0.77280  1.0000
  C   C1060     1.0  0.94860  0.59193  0.96920  1.0000
  H   H1860     1.0  0.89905  0.62944  0.94923  1.0000
  H   H1861     1.0  0.93443  0.67901  0.90457  1.0000
  H   H1862     1.0  0.68535  0.95265  0.72417  1.0000
  C   C1061     1.0  0.90755  0.78775  0.51440  1.0000
  C   C1062     1.0  0.97254  0.59748  0.88627  1.0000
  C   C1063     1.0  0.97797  0.58224  0.86339  1.0000
  H   H1863     1.0  0.96048  0.51638  0.77173  1.0000
  H   H1864     1.0  0.95726  0.60041  0.89356  1.0000
  H   H1865     1.0  0.92227  0.79254  0.51796  1.0000
  C   C1064     1.0  0.83021  0.56424  0.85349  1.0000
  C   C1065     1.0  0.97753  0.77957  0.70393  1.0000
  C   C1066     1.0  0.97550  0.80042  0.70443  1.0000
  H   H1866     1.0  0.81827  0.55932  0.94093  1.0000
  H   H1867     1.0  0.96124  0.80818  0.71017  1.0000
  H   H1868     1.0  0.67711  0.88153  0.75215  1.0000
  C   C1067     1.0  0.89542  0.78521  0.54290  1.0000
  C   C1068     1.0  0.87636  0.77911  0.53764  1.0000
  C   C1069     1.0  0.95435  0.66779  0.86454  1.0000
  H   H1869     1.0  0.86666  0.77755  0.55907  1.0000
  C   C1070     1.0  0.95753  0.77573  0.61199  1.0000
  C   C1071     1.0  0.75462  0.91179  0.97976  1.0000
  H   H1870     1.0  0.93198  0.56460  0.75188  1.0000
  C   C1072     1.0  0.73466  0.85238  0.93622  1.0000
  H   H1871     1.0  0.77063  0.93647  0.96361  1.0000
  C   C1073     1.0  0.78460  0.97675  0.75164  1.0000
  C   C1074     1.0  0.88949  0.60473  0.97808  1.0000
  H   H1872     1.0  0.92094  0.71065  0.55001  1.0000
  C   C1075     1.0  0.83692  0.94254  0.79404  1.0000
  N   N59       1.0  0.88333  0.71772  0.58102  1.0000
  C   C1076     1.0  0.88268  0.70094  0.55587  1.0000
  C   C1077     1.0  0.88819  0.70951  0.61625  1.0000
  C   C1078     1.0  0.86277  0.72852  0.58198  1.0000
  C   C1079     1.0  0.89767  0.73261  0.57035  1.0000
  C   C1080     1.0  0.91955  0.72452  0.56505  1.0000
  C   C1081     1.0  0.85893  0.74424  0.61044  1.0000
  C   C1082     1.0  0.90327  0.69083  0.61915  1.0000
  C   C1083     1.0  0.90909  0.68636  0.65613  1.0000
  C   C1084     1.0  0.98550  0.82340  0.60318  1.0000
  C   C1085     1.0  0.83786  0.75438  0.60796  1.0000
  H   H1873     1.0  0.87157  0.69060  0.56430  1.0000
  H   H1874     1.0  0.89697  0.69160  0.55509  1.0000
  H   H1875     1.0  0.89354  0.72138  0.63264  1.0000
  H   H1876     1.0  0.87449  0.70497  0.62895  1.0000
  H   H1877     1.0  0.85134  0.71760  0.58493  1.0000
  H   H1878     1.0  0.85934  0.73660  0.55764  1.0000
  H   H1879     1.0  0.89234  0.74049  0.54673  1.0000
  H   H1880     1.0  0.89813  0.74461  0.58950  1.0000
  H   H1881     1.0  0.71929  0.88034  0.72268  1.0000
  H   H1882     1.0  0.92683  0.72176  0.59014  1.0000
  H   H1883     1.0  0.86938  0.75602  0.60860  1.0000
  H   H1884     1.0  0.86053  0.73728  0.63602  1.0000
  H   H1885     1.0  0.89645  0.67755  0.60928  1.0000
  H   H1886     1.0  0.91701  0.69251  0.60470  1.0000
  H   H1887     1.0  0.92015  0.67321  0.65751  1.0000
  H   H1888     1.0  0.91568  0.69928  0.66779  1.0000
  H   H1889     1.0  0.89584  0.68293  0.67101  1.0000
  H   H1890     1.0  0.88858  0.53934  0.97350  1.0000
  H   H1891     1.0  0.73484  0.98416  0.72570  1.0000
  H   H1892     1.0  0.98771  0.74848  0.76137  1.0000
  H   H1893     1.0  0.83545  0.76549  0.62859  1.0000
  H   H1894     1.0  0.83555  0.76227  0.58321  1.0000
  H   H1895     1.0  0.82674  0.74324  0.61083  1.0000
  N   N60       1.0  0.78202  0.84463  0.87871  1.0000
  C   C1086     1.0  0.79692  0.85965  0.87181  1.0000
  C   C1087     1.0  0.77263  0.83941  0.84543  1.0000
  C   C1088     1.0  0.84972  0.51309  0.94194  1.0000
  C   C1089     1.0  0.79101  0.82616  0.89693  1.0000
  C   C1090     1.0  0.81311  0.81937  0.88909  1.0000
  C   C1091     1.0  0.80572  0.86910  0.90377  1.0000
  N   N61       1.0  0.80441  0.98485  0.74489  1.0000
  C   C1092     1.0  0.78628  0.82786  0.81945  1.0000
  C   C1093     1.0  0.77557  0.82579  0.78558  1.0000
  C   C1094     1.0  0.81897  0.79864  0.90384  1.0000
  C   C1095     1.0  0.82530  0.87795  0.89577  1.0000
  H   H1896     1.0  0.90681  0.50483  0.76940  1.0000
  H   H1897     1.0  0.78996  0.87224  0.85619  1.0000
  H   H1898     1.0  0.80935  0.85322  0.85590  1.0000
  H   H1899     1.0  0.76036  0.82972  0.84967  1.0000
  H   H1900     1.0  0.76582  0.85324  0.83277  1.0000
  H   H1901     1.0  0.77195  0.85899  0.92549  1.0000
  C   C1096     1.0  0.97427  0.79011  0.61040  1.0000
  H   H1902     1.0  0.80837  0.85811  0.92474  1.0000
  H   H1903     1.0  0.78199  0.81339  0.89177  1.0000
  H   H1904     1.0  0.82308  0.82975  0.90057  1.0000
  H   H1905     1.0  0.81631  0.81889  0.86159  1.0000
  H   H1906     1.0  0.97299  0.60522  0.74485  1.0000
  C   C1097     1.0  0.68030  0.89110  0.69944  1.0000
  H   H1907     1.0  0.74321  0.85450  0.95986  1.0000
  H   H1908     1.0  0.83337  0.51225  0.94332  1.0000
  H   H1909     1.0  0.79988  0.83540  0.81425  1.0000
  H   H1910     1.0  0.79053  0.81254  0.82901  1.0000
  H   H1911     1.0  0.77113  0.84072  0.77443  1.0000
  H   H1912     1.0  0.78571  0.81748  0.76746  1.0000
  H   H1913     1.0  0.76217  0.81751  0.78900  1.0000
  C   C1098     1.0  0.99798  0.57805  0.85497  1.0000
  C   C1099     1.0  0.84849  0.54835  0.95743  1.0000
  H   H1914     1.0  0.94745  0.51136  0.73426  1.0000
  H   H1915     1.0  0.82516  0.98855  0.70411  1.0000
  H   H1916     1.0  0.83058  0.88560  0.91856  1.0000
  H   H1917     1.0  0.83682  0.86602  0.88838  1.0000
  H   H1918     1.0  0.92498  0.74239  0.52011  1.0000
  H   H1919     1.0  0.68884  0.86226  0.72517  1.0000
  H   H1920     1.0  0.95348  0.59200  0.76296  1.0000
  C   C1100     1.0  0.94224  0.55088  0.75054  1.0000
  H   H1921     1.0  0.90766  0.64850  0.00030  1.0000
  H   H1922     1.0  0.99071  0.57065  0.99546  1.0000
  H   H1923     1.0  0.98266  0.83853  0.59202  1.0000
  H   H1924     1.0  0.87938  0.54977  0.91599  1.0000
  H   H1925     1.0  0.99335  0.75224  0.80446  1.0000
  H   H1926     1.0  0.82327  0.88900  0.87470  1.0000
  H   H1927     1.0  0.98405  0.60930  0.98209  1.0000
  H   H1928     1.0  0.91768  0.53307  0.75463  1.0000
  H   H1929     1.0  0.94914  0.68010  0.84696  1.0000
  H   H1930     1.0  0.86267  0.71504  0.51640  1.0000
  H   H1931     1.0  0.84814  0.52781  0.87704  1.0000
  H   H1932     1.0  0.96660  0.69168  0.73556  1.0000
  C   C1101     1.0  0.87620  0.53432  0.92293  1.0000
  H   H1933     1.0  0.94853  0.77673  0.58842  1.0000
  H   H1934     1.0  0.81667  0.79848  0.93177  1.0000
  H   H1935     1.0  0.88072  0.52527  0.90030  1.0000
  C   C1102     1.0  0.96658  0.82734  0.53646  1.0000
  N   N62       1.0  0.96831  0.81088  0.59704  1.0000
  H   H1936     1.0  0.94521  0.67749  0.73049  1.0000
  H   H1937     1.0  0.80574  0.95071  0.79374  1.0000
  H   H1938     1.0  0.94914  0.62749  0.77918  1.0000
  H   H1939     1.0  0.97093  0.79619  0.54797  1.0000
  C   C1103     1.0  0.76489  0.92872  0.98514  1.0000
  C   C1104     1.0  0.74779  0.97616  0.73871  1.0000
  C   C1105     1.0  0.94779  0.50725  0.87339  1.0000
  H   H1940     1.0  0.85463  0.56287  0.95231  1.0000
  C   C1106     1.0  0.93778  0.66503  0.89011  1.0000
  C   C1107     1.0  0.96672  0.59996  0.76902  1.0000
  H   H1941     1.0  0.92399  0.66150  0.87682  1.0000
  H   H1942     1.0  0.72802  0.86712  0.92708  1.0000
  C   C1108     1.0  0.78179  0.99986  0.84394  1.0000
  H   H1943     1.0  0.83479  0.92677  0.80063  1.0000
  H   H1944     1.0  0.92035  0.86361  0.62709  1.0000
  H   H1945     1.0  0.94678  0.80661  0.55748  1.0000
  H   H1946     1.0  0.82834  0.58159  0.98702  1.0000
  H   H1947     1.0  0.68273  0.92229  0.82004  1.0000
  H   H1948     1.0  0.93952  0.60631  0.96555  1.0000
  H   H1949     1.0  0.98724  0.82604  0.63092  1.0000
  H   H1950     1.0  0.94695  0.73409  0.54417  1.0000
  H   H1951     1.0  0.95617  0.55350  0.76424  1.0000
  H   H1952     1.0  0.93010  0.75406  0.55995  1.0000
  C   C1109     1.0  0.97758  0.72636  0.79595  1.0000
  C   C1110     1.0  0.76633  0.98731  0.73303  1.0000
  H   H1953     1.0  0.97787  0.58933  0.78182  1.0000
  C   C1111     1.0  0.91201  0.52692  0.94148  1.0000
  H   H1954     1.0  0.99061  0.82735  0.69916  1.0000
  C   C1112     1.0  0.95771  0.73800  0.80370  1.0000
  H   H1955     1.0  0.73847  0.84112  0.88604  1.0000
  H   H1956     1.0  0.93102  0.84727  0.65999  1.0000
  C   C1113     1.0  0.94551  0.51371  0.76210  1.0000
  C   C1114     1.0  0.81013  0.98335  0.70793  1.0000
  H   H1957     1.0  0.99777  0.75361  0.69604  1.0000
  C   C1115     1.0  0.96276  0.80940  0.55989  1.0000
  C   C1116     1.0  0.93242  0.53357  0.76689  1.0000
  H   H1958     1.0  0.74990  0.96081  0.72836  1.0000
  H   H1959     1.0  0.76292  0.00261  0.74294  1.0000
  H   H1960     1.0  0.96260  0.59230  0.95479  1.0000
  H   H1961     1.0  0.81009  0.78738  0.89190  1.0000
  H   H1962     1.0  0.97472  0.71579  0.77547  1.0000
  H   H1963     1.0  0.75308  0.82718  0.91798  1.0000
  C   C1117     1.0  0.99216  0.81123  0.69829  1.0000
  C   C1118     1.0  0.97137  0.66053  0.75181  1.0000
  H   H1964     1.0  0.79510  0.88133  0.91324  1.0000
  H   H1965     1.0  0.71243  0.87521  0.76588  1.0000
  C   C1119     1.0  0.93108  0.73972  0.54614  1.0000
  H   H1966     1.0  0.95446  0.81852  0.64521  1.0000
  H   H1967     1.0  0.70751  0.89995  0.74869  1.0000
  H   H1968     1.0  0.82064  0.98172  0.79264  1.0000
  H   H1969     1.0  0.95406  0.85149  0.61094  1.0000
  H   H1970     1.0  0.94762  0.77956  0.63389  1.0000
  H   H1971     1.0  0.95195  0.74646  0.78091  1.0000
  H   H1972     1.0  0.94661  0.72751  0.81118  1.0000
  H   H1973     1.0  0.95931  0.74859  0.82486  1.0000
  H   H1974     1.0  0.98638  0.78273  0.59468  1.0000
  H   H1975     1.0  0.94625  0.56109  0.95409  1.0000
  H   H1976     1.0  0.80556  0.87191  0.99650  1.0000
  H   H1977     1.0  0.88758  0.51334  0.96355  1.0000
  H   H1978     1.0  0.86019  0.56044  0.87169  1.0000
  H   H1979     1.0  0.93024  0.53710  0.79419  1.0000
  C   C1120     1.0  0.67695  0.94531  0.74318  1.0000
  H   H1980     1.0  0.83531  0.97555  0.75624  1.0000
  H   H1981     1.0  0.83195  0.55266  0.83353  1.0000
  C   C1121     1.0  0.94245  0.84087  0.60898  1.0000
  H   H1982     1.0  0.94558  0.54784  0.72337  1.0000
  C   C1122     1.0  0.68273  0.83603  0.63719  1.0000
  H   H1983     1.0  0.97501  0.75243  0.64024  1.0000
  H   H1984     1.0  0.94231  0.65280  0.90833  1.0000
  H   H1985     1.0  0.93788  0.81017  0.61431  1.0000
  H   H1986     1.0  0.96589  0.63690  0.86367  1.0000
  H   H1987     1.0  0.96724  0.67227  0.87931  1.0000
  H   H1988     1.0  0.96077  0.84177  0.54731  1.0000
  C   C1123     1.0  0.98691  0.60905  0.89971  1.0000
  C   C1124     1.0  0.96588  0.75408  0.61676  1.0000
  C   C1125     1.0  0.89721  0.62324  0.97434  1.0000
  H   H1989     1.0  0.79027  0.82819  0.92498  1.0000
  H   H1990     1.0  0.85010  0.94277  0.77728  1.0000
  C   C1126     1.0  0.81103  0.96236  0.69193  1.0000
  H   H1991     1.0  0.98256  0.62107  0.91696  1.0000
  H   H1992     1.0  0.92309  0.50955  0.82106  1.0000
  C   C1127     1.0  0.92572  0.84795  0.63323  1.0000
  C   C1128     1.0  0.84508  0.55955  0.88232  1.0000
  H   H1993     1.0  0.98892  0.62870  0.78001  1.0000
  C   C1129     1.0  0.99315  0.65684  0.83003  1.0000
  C   C1130     1.0  0.82032  0.97430  0.76736  1.0000
  H   H1994     1.0  0.68559  0.82698  0.66067  1.0000
  H   H1995     1.0  0.91302  0.83859  0.63056  1.0000
  H   H1996     1.0  0.75533  0.99198  0.81869  1.0000
  C   C1131     1.0  0.76581  0.85472  0.90058  1.0000
  H   H1997     1.0  0.94576  0.64294  0.83581  1.0000
  H   H1998     1.0  0.96140  0.50921  0.88845  1.0000
  H   H1999     1.0  0.95344  0.74439  0.61926  1.0000
  N   N63       1.0  0.97433  0.64955  0.81570  1.0000
  C   C1132     1.0  0.95997  0.64822  0.84487  1.0000
  C   C1133     1.0  0.84306  0.53842  0.89739  1.0000
  C   C1134     1.0  0.81835  0.95198  0.77610  1.0000
  H   H2000     1.0  0.82702  0.53625  0.90066  1.0000
  H   H2001     1.0  0.96661  0.64621  0.74231  1.0000
  H   H2002     1.0  0.96734  0.67948  0.79615  1.0000
  H   H2003     1.0  0.80242  0.97248  0.64079  1.0000
  H   H2004     1.0  0.83961  0.95061  0.81793  1.0000
  H   H2005     1.0  0.81564  0.94296  0.75349  1.0000
  H   H2006     1.0  0.84248  0.57143  0.90151  1.0000
  H   H2007     1.0  0.94846  0.66332  0.78924  1.0000
  H   H2008     1.0  0.78139  0.97739  0.77930  1.0000
  C   C1135     1.0  0.90200  0.63403  0.00327  1.0000
  H   H2009     1.0  0.91563  0.54134  0.93021  1.0000
  C   C1136     1.0  0.95072  0.81928  0.61759  1.0000
  H   H2010     1.0  0.82355  0.95275  0.70306  1.0000
  H   H2011     1.0  0.79699  0.95521  0.69542  1.0000
  H   H2012     1.0  0.83492  0.79440  0.89864  1.0000
  H   H2013     1.0  0.95394  0.61154  0.81542  1.0000
  H   H2014     1.0  0.78498  0.96072  0.74538  1.0000
  H   H2015     1.0  0.92195  0.52343  0.96360  1.0000
  C   C1137     1.0  0.99339  0.74054  0.78480  1.0000
  H   H2016     1.0  0.97506  0.74903  0.59461  1.0000
  H   H2017     1.0  0.98060  0.79082  0.63637  1.0000
  C   C1138     1.0  0.70793  0.88384  0.74257  1.0000
  C   C1139     1.0  0.81478  0.96345  0.65371  1.0000
  H   H2018     1.0  0.93598  0.84151  0.58305  1.0000
  H   H2019     1.0  0.66876  0.83196  0.62513  1.0000
  C   C1140     1.0  0.96491  0.66385  0.78933  1.0000
  H   H2020     1.0  0.81904  0.53866  0.97043  1.0000
  C   C1141     1.0  0.97897  0.62873  0.80231  1.0000
  N   N64       1.0  0.85437  0.53354  0.92990  1.0000
  H   H2021     1.0  0.74433  0.97522  0.76622  1.0000
  H   H2022     1.0  0.85510  0.51020  0.96841  1.0000
  C   C1142     1.0  0.82589  0.55256  0.96373  1.0000
  H   H2023     1.0  0.91472  0.51495  0.92240  1.0000
  H   H2024     1.0  0.83289  0.57882  0.84171  1.0000
  C   C1143     1.0  0.99615  0.76969  0.69693  1.0000
  H   H2025     1.0  0.80003  0.99363  0.69224  1.0000
  H   H2026     1.0  0.82898  0.97010  0.64849  1.0000
  C   C1144     1.0  0.96168  0.67693  0.72866  1.0000
  H   H2027     1.0  0.72238  0.84297  0.94226  1.0000
  H   H2028     1.0  0.75969  0.86897  0.88855  1.0000
  C   C1145     1.0  0.67555  0.92823  0.79712  1.0000
  C   C1146     1.0  0.93710  0.57559  0.95374  1.0000
  H   H2029     1.0  0.98231  0.71786  0.81921  1.0000
  C   C1147     1.0  0.82201  0.56723  0.99292  1.0000
  H   H2030     1.0  0.85530  0.54326  0.98210  1.0000
  H   H2031     1.0  0.69517  0.83239  0.61926  1.0000
  H   H2032     1.0  0.88870  0.71707  0.50839  1.0000
  H   H2033     1.0  0.98275  0.82802  0.53231  1.0000
  H   H2034     1.0  0.76888  0.98810  0.70528  1.0000
  C   C1148     1.0  0.87773  0.70720  0.51855  1.0000
  H   H2035     1.0  0.98764  0.66018  0.74869  1.0000
  H   H2036     1.0  0.67801  0.90660  0.70906  1.0000
  H   H2037     1.0  0.92311  0.57406  0.96790  1.0000
  H   H2038     1.0  0.69277  0.89144  0.68108  1.0000
  H   H2039     1.0  0.67932  0.86641  0.62075  1.0000
  H   H2040     1.0  0.69574  0.86158  0.65666  1.0000
  C   C1149     1.0  0.68751  0.87842  0.73068  1.0000
  H   H2041     1.0  0.96131  0.51419  0.82640  1.0000
  H   H2042     1.0  0.98749  0.61926  0.82161  1.0000
  C   C1150     1.0  0.74797  0.84237  0.90883  1.0000
  C   C1151     1.0  0.85035  0.50292  0.80051  1.0000
  H   H2043     1.0  0.99859  0.64696  0.85162  1.0000
  C   C1152     1.0  0.68136  0.85829  0.64528  1.0000
  H   H2044     1.0  0.95547  0.62821  0.99545  1.0000
  H   H2045     1.0  0.80576  0.57024  0.99679  1.0000
  H   H2046     1.0  0.99024  0.67200  0.84079  1.0000
  H   H2047     1.0  0.67149  0.89738  0.63402  1.0000
  H   H2048     1.0  0.73931  0.88891  0.00459  1.0000
