data_image0
_chemical_formula_structural       HSH2CHCHCH3CHSC2HNC2HSCFeH3C4H4C6H3C2H4SH4NH3C2HCHSC2H4FeH2C2H4C2HSC2FeH2CH3CNC5HC2HCHCH14SH5CHSHCH3CH2CHSH3C3H3CHC3H2CHSH4C2HNH2CH3C2SH3CH2SH2CHCSHSH2FeSFeHSCHS3HC2FeSHCHSCH2C6H4C2FeHCH2C3HC6H4CH2CH4SH3CHCHCSH7SHCH2CFeHCHCSH3C2H2CSHCH22CNHNH2C2HCH2NCHCHFeH2CHCSH2C3SHC2FeCFeHCH2C2HCH4C2H12CHCHCFeHCH2CH3CH2C2FeH3C2H2CHC2HCSH3CH5FeCH3CH2CHFeCHNH2SCH2FeH2S3CSHSH2SHSFeSFeSCHFeSHSFeSFeS2HC4HFeC2H2CHCHNC6H4CHCH3C7H7CHCH2C2H2CFeCH2C2HC2H5C2H3FeCHFeCH6CNH4SCH2CHFeHCH2C3HCHC3H2CH2CH2NH2SCH10SH2CSH3CH4CSH2C4H2CH2C2SH2CH4CSCHC2HCH5C2H4CHCH2CNH3CH7C2H7CH10S2HSHSHC2FeSH2FeHFeHSCHCHSCHC2H3CSC6H3C7H4C4HSH6C7H5FeH3CNH2CH2FeHCH3SC2SHCH3SHCHC5H5CH2CH4CHNH2C2HNCH2CH8FeSC2H3CHSCH2C2HFeH3CHCH2C2H9CHC2H3C2H4FeHCH2C2HCSCH8C2HCH2NH2SHCHCNCSC2HC2H2NCH3SH11SH5SCHCH3CH2SH2SH2CHCHC2H3C2H6CHC6H2CSFeS2FeSCFeSFeS3H4C5H2C6H3SCHCHCHCH5C6H6CH3CH2NC2H2C7H6C2H17NC10NCH19CH4FeH5C5H2CH3SC2H7CH4CH3CSCH8CH2CH3CH4C2HCHCHFeCHSC2H6SH2CHCH2NH3SH3NH4CSH2SHCHCH3FeHC2H3CHCH5C3H2C2H4CHCHFeSCSFeSFeS2C2SC2SCFeS2H3CHFeS2FeNH2SHFeS2FeS2FeSFeS3CHNH2C2H3C2H6C7H6C2H2CH2SH2C6H6CH3CH3C7H4CHC3H4CSH6C2FeHCH5CHC3H2C2H2CSHC2HNH2C2H2CH9C2HC2HCHCH3SC2H3CHCHCFeH6CH6C3H2CH2CSH2CHCH5NC6HCHNCHCH4CH2SCH2CHCH2NH3CH3CH5CH2NH2CH3SCH3CH3CH9CH4C4HC4H4CH3CH2CH3CSH6C2FeHCH2CH7FeH4CH2SC2H7FeSH2SH2SH2SFeSFeSH2FeS2FeHFeSHCSFeS2FeS2FeSFeS4CH3C2HC2H3C6H4C4H2CHSHC6H5C6H4CH2CHC2HCH5CNC12H22CH4CH2CH4CH4NC12H28NCHCH2CH3C2H2C2H8CHC2H6SHC2HNHC8HCHC2HCH9CHC2SHFe2H3SH4C4HFeHCH5C2H2SH2SH2C4H2N2SCHC8H2NCHSH2NC2H2C2H7FeHC2H3CH8CFeCHCH3C3HSHFeSHFeS2FeSFeS3HCH6SH2C2HFeH2C5H7CHC10H4CHCH3CH2CSHSFeH5SHCHCH5CS2C3H2FeHC2FeC2HC2HCHC2SCSH5CNH3C2H2CH4CH3CH4SH4C4HNC5HC4SH5FeH5CH2SH8SH4SH2C3H2CHCHCH2CHCHCH6CNHCHC3SH3C2H7C2HFeCHCH2FeHC3HCHCH2CHCH5CH5CH6CFeCHSHCH8CHC2H3C2SH2SFeS2FeS2H2FeS2C4HFeC2HSFeSH2C6H4CSHSC3HCHCH5C2H2CH3NH7CH3C4FeHC2HC2HCH2FeHCHC3H7CSCH3CHCHSCHC4H4CHSH2CHCH2FeHC4HCSCH3FeH2FeCHSHCH5CH4C3H2CFeHFeCHC2SCSH7SH3CH2NC6HCSC2NH13CH2NH5C3NH5CHCHSHCH4CH4C2H2CHFeH5CH2C2H3CH3NCH3C2H3CH3CHSHC2H2C3H2SFeCSFeHSFeC2HSH3SHSCHSFeHSH2C2S2C6H5C4H3CHCH6C3H2CSH3CHCH5C6H4CH3CH2CHCHCFeHCNC12H19C2H5CH6C2HCH3NC12H16C2H12CN2H3CH2SNH2CH4CHCHCHCHS2CSCH3CSH7CHC7HC3H3CHCH4SCH2CHC2H2FeH2Fe2HSH5NCHCH2C2H2CH7SH2CHCH5CSFeH5CH2SHFe2SH7SHCSH2SCFeSH2CSCH2CHSHFeC6H4C6SH16SC2HC4H4CHC2FeH2FeSCH6FeH2SHC2H3C2HFeH3CH2CHNH2SH2CHSHSCFeCH3C2HC2H4CH5CH2CH2C2HCHNCH6CHSHSC3H2C2H2CH2CH3SC2H2NCH3CH2CH2CFeC2H3CHCSC3H2CHCH7CHFeH2CHC4HC2HS2H2SH2C7H4C5H4FeH3C2NH2CHFeH9C2SHC3H2NHC3H3C2H6CH2CH4CH7CHC2H2CHCH3C2H4FeCH3CH2C2H2CSHSCH5SC3H5CH3C2HCNCH4CHC2H3CFeSH4SH3NH3CFeH5C2H2C3H5CSCH2CH
_chemical_formula_sum              "H1920 S240 C1080 N60 Fe120"
_cell_length_a       57.2635
_cell_length_b       57.5806
_cell_length_c       54.4988
_cell_angle_alpha    78.8598
_cell_angle_beta     82.5605
_cell_angle_gamma    81.3321

_space_group_name_H-M_alt    "P 1"
_space_group_IT_number       1

loop_
  _space_group_symop_operation_xyz
  'x, y, z'

loop_
  _atom_site_type_symbol
  _atom_site_label
  _atom_site_symmetry_multiplicity
  _atom_site_fract_x
  _atom_site_fract_y
  _atom_site_fract_z
  _atom_site_occupancy
  H   H1        1.0  0.00213  0.25890  0.33932  1.0000
  S   S1        1.0  0.07017  0.12726  0.44886  1.0000
  H   H2        1.0  0.30309  0.00788  0.37381  1.0000
  H   H3        1.0  0.08237  0.30117  0.43796  1.0000
  C   C1        1.0  0.19795  0.35562  0.97921  1.0000
  H   H4        1.0  0.00866  0.39844  0.32697  1.0000
  C   C2        1.0  0.03360  0.26607  0.38099  1.0000
  H   H5        1.0  0.06099  0.26441  0.35015  1.0000
  C   C3        1.0  0.15323  0.07933  0.46675  1.0000
  H   H6        1.0  0.31602  0.44607  0.03271  1.0000
  H   H7        1.0  0.07384  0.47660  0.04959  1.0000
  H   H8        1.0  0.18567  0.17239  0.43198  1.0000
  C   C4        1.0  0.06460  0.47416  0.06894  1.0000
  H   H9        1.0  0.19876  0.13882  0.46529  1.0000
  S   S2        1.0  0.22300  0.44403  0.07614  1.0000
  C   C5        1.0  0.31185  0.44960  0.05229  1.0000
  C   C6        1.0  0.13014  0.46989  0.98959  1.0000
  H   H10       1.0  0.31067  0.47957  0.08749  1.0000
  N   N1        1.0  0.14449  0.99115  0.45562  1.0000
  C   C7        1.0  0.27743  0.46523  0.09708  1.0000
  C   C8        1.0  0.11693  0.45655  0.97900  1.0000
  H   H11       1.0  0.16679  0.03093  0.42292  1.0000
  S   S3        1.0  0.05713  0.18620  0.40285  1.0000
  C   C9        1.0  0.27623  0.47698  0.04153  1.0000
  Fe  Fe1       1.0  0.06837  0.16720  0.44040  1.0000
  H   H12       1.0  0.03958  0.28680  0.43825  1.0000
  H   H13       1.0  0.01423  0.21842  0.36191  1.0000
  H   H14       1.0  0.20807  0.02634  0.40377  1.0000
  C   C10       1.0  0.04985  0.21743  0.39670  1.0000
  C   C11       1.0  0.06036  0.23030  0.37468  1.0000
  C   C12       1.0  0.05267  0.25463  0.36720  1.0000
  C   C13       1.0  0.03149  0.22910  0.41128  1.0000
  H   H15       1.0  0.07431  0.22133  0.36314  1.0000
  H   H16       1.0  0.09720  0.46972  0.08561  1.0000
  H   H17       1.0  0.26507  0.46375  0.05276  1.0000
  H   H18       1.0  0.04826  0.11565  0.38308  1.0000
  C   C14       1.0  0.24528  0.40186  0.01210  1.0000
  C   C15       1.0  0.26186  0.40425  0.02788  1.0000
  C   C16       1.0  0.25465  0.41632  0.04821  1.0000
  C   C17       1.0  0.23117  0.42713  0.05203  1.0000
  C   C18       1.0  0.21464  0.42492  0.03614  1.0000
  C   C19       1.0  0.22156  0.41180  0.01663  1.0000
  H   H19       1.0  0.28010  0.39632  0.02479  1.0000
  H   H20       1.0  0.26727  0.41749  0.06084  1.0000
  H   H21       1.0  0.19641  0.43297  0.03916  1.0000
  C   C20       1.0  0.01026  0.16914  0.36988  1.0000
  C   C21       1.0  0.01910  0.14428  0.38493  1.0000
  H   H22       1.0  0.02309  0.14581  0.40389  1.0000
  H   H23       1.0  0.03395  0.45164  0.15247  1.0000
  H   H24       1.0  0.04470  0.37799  0.11122  1.0000
  H   H25       1.0  0.18076  0.35487  0.99120  1.0000
  S   S4        1.0  0.02388  0.29642  0.37037  1.0000
  H   H26       1.0  0.21098  0.36043  0.99023  1.0000
  H   H27       1.0  0.01683  0.44373  0.19651  1.0000
  H   H28       1.0  0.20988  0.99436  0.41112  1.0000
  H   H29       1.0  0.20468  0.04067  0.46454  1.0000
  N   N2        1.0  0.05172  0.27935  0.47558  1.0000
  H   H30       1.0  0.07281  0.33433  0.40235  1.0000
  H   H31       1.0  0.18179  0.07384  0.43771  1.0000
  H   H32       1.0  0.03926  0.13045  0.35281  1.0000
  C   C22       1.0  0.09534  0.04310  0.47178  1.0000
  C   C23       1.0  0.07120  0.25948  0.47048  1.0000
  H   H33       1.0  0.20844  0.40953  0.00504  1.0000
  C   C24       1.0  0.13081  0.01580  0.45575  1.0000
  H   H34       1.0  0.06074  0.30779  0.40006  1.0000
  S   S5        1.0  0.27219  0.99184  0.41769  1.0000
  C   C25       1.0  0.00459  0.12357  0.46778  1.0000
  C   C26       1.0  0.17483  0.06787  0.45696  1.0000
  H   H35       1.0  0.08336  0.21355  0.45954  1.0000
  H   H36       1.0  0.12880  0.02530  0.43612  1.0000
  H   H37       1.0  0.04906  0.46466  0.06913  1.0000
  H   H38       1.0  0.04149  0.33258  0.41074  1.0000
  Fe  Fe2       1.0  0.10591  0.12695  0.46157  1.0000
  H   H39       1.0  0.14100  0.02691  0.46405  1.0000
  H   H40       1.0  0.26365  0.45966  0.13644  1.0000
  C   C27       1.0  0.05951  0.32225  0.41123  1.0000
  C   C28       1.0  0.25270  0.47836  0.00500  1.0000
  H   H41       1.0  0.00829  0.26210  0.41387  1.0000
  H   H42       1.0  0.31180  0.02758  0.41288  1.0000
  H   H43       1.0  0.99447  0.16990  0.41862  1.0000
  H   H44       1.0  0.01213  0.41446  0.35128  1.0000
  C   C29       1.0  0.02298  0.25329  0.40312  1.0000
  C   C30       1.0  0.03590  0.44600  0.19200  1.0000
  H   H45       1.0  0.07858  0.26445  0.42917  1.0000
  S   S6        1.0  0.10541  0.16651  0.44965  1.0000
  C   C31       1.0  0.06448  0.31171  0.43830  1.0000
  C   C32       1.0  0.18086  0.13750  0.47552  1.0000
  Fe  Fe3       1.0  0.19144  0.47179  0.06822  1.0000
  H   H46       1.0  0.17319  0.12487  0.46668  1.0000
  H   H47       1.0  0.00989  0.16734  0.34997  1.0000
  C   C33       1.0  0.31000  0.98972  0.38136  1.0000
  H   H48       1.0  0.05489  0.24730  0.44143  1.0000
  H   H49       1.0  0.15399  0.99383  0.41535  1.0000
  H   H50       1.0  0.00132  0.34442  0.45357  1.0000
  C   C34       1.0  0.17784  0.01351  0.42808  1.0000
  N   N3        1.0  0.08241  0.43814  0.13369  1.0000
  C   C35       1.0  0.06963  0.45673  0.11477  1.0000
  C   C36       1.0  0.07166  0.44131  0.15985  1.0000
  C   C37       1.0  0.10794  0.44295  0.13110  1.0000
  C   C38       1.0  0.08213  0.41291  0.12968  1.0000
  C   C39       1.0  0.06010  0.40782  0.11866  1.0000
  H   H51       1.0  0.21131  0.09653  0.46914  1.0000
  C   C40       1.0  0.12349  0.42826  0.15148  1.0000
  C   C41       1.0  0.04479  0.43944  0.16624  1.0000
  H   H52       1.0  0.03773  0.46492  0.19206  1.0000
  C   C42       1.0  0.06029  0.38106  0.11978  1.0000
  H   H53       1.0  0.29972  0.43649  0.06166  1.0000
  C   C43       1.0  0.14971  0.43125  0.14429  1.0000
  H   H54       1.0  0.02907  0.30892  0.45652  1.0000
  H   H55       1.0  0.05111  0.45344  0.11447  1.0000
  H   H56       1.0  0.08051  0.42769  0.17429  1.0000
  H   H57       1.0  0.07479  0.45898  0.16338  1.0000
  H   H58       1.0  0.10871  0.46214  0.13113  1.0000
  H   H59       1.0  0.11714  0.43946  0.11265  1.0000
  H   H60       1.0  0.09770  0.40741  0.11656  1.0000
  H   H61       1.0  0.08433  0.40013  0.14765  1.0000
  H   H62       1.0  0.06011  0.41650  0.09861  1.0000
  H   H63       1.0  0.04319  0.41460  0.12870  1.0000
  H   H64       1.0  0.99988  0.23660  0.32096  1.0000
  H   H65       1.0  0.08805  0.44227  0.08156  1.0000
  H   H66       1.0  0.12175  0.40897  0.15423  1.0000
  H   H67       1.0  0.11818  0.43458  0.16966  1.0000
  S   S7        1.0  0.32291  0.37111  0.99603  1.0000
  H   H68       1.0  0.04148  0.42079  0.16716  1.0000
  H   H69       1.0  0.06480  0.32679  0.44823  1.0000
  H   H70       1.0  0.30953  0.05132  0.43063  1.0000
  H   H71       1.0  0.10770  0.23065  0.44738  1.0000
  H   H72       1.0  0.05929  0.37154  0.13960  1.0000
  C   C44       1.0  0.29428  0.48065  0.07837  1.0000
  H   H73       1.0  0.07668  0.37356  0.10917  1.0000
  S   S8        1.0  0.13829  0.10358  0.44736  1.0000
  H   H74       1.0  0.00568  0.39565  0.27193  1.0000
  C   C45       1.0  0.31069  0.03168  0.43213  1.0000
  H   H75       1.0  0.16031  0.42135  0.15960  1.0000
  H   H76       1.0  0.15654  0.42409  0.12683  1.0000
  H   H77       1.0  0.15223  0.45041  0.14133  1.0000
  C   C46       1.0  0.00391  0.39954  0.34717  1.0000
  H   H78       1.0  0.05623  0.14491  0.36995  1.0000
  H   H79       1.0  0.18628  0.01414  0.44496  1.0000
  C   C47       1.0  0.07237  0.25084  0.44504  1.0000
  H   H80       1.0  0.28393  0.45394  0.01283  1.0000
  S   S9        1.0  0.15362  0.46554  0.07982  1.0000
  H   H81       1.0  0.00582  0.13168  0.38707  1.0000
  H   H82       1.0  0.02335  0.21922  0.42833  1.0000
  H   H83       1.0  0.01284  0.26448  0.45661  1.0000
  C   C48       1.0  0.16274  0.99248  0.43280  1.0000
  C   C49       1.0  0.27633  0.47045  0.12368  1.0000
  C   C50       1.0  0.04210  0.13320  0.37177  1.0000
  H   H84       1.0  0.09015  0.22220  0.42608  1.0000
  H   H85       1.0  0.02458  0.18036  0.36918  1.0000
  H   H86       1.0  0.10187  0.44903  0.99004  1.0000
  C   C51       1.0  0.08167  0.45979  0.08734  1.0000
  H   H87       1.0  0.29423  0.02575  0.44309  1.0000
  C   C52       1.0  0.99504  0.22475  0.36155  1.0000
  C   C53       1.0  0.04507  0.29630  0.45201  1.0000
  C   C54       1.0  0.08952  0.22792  0.44452  1.0000
  H   H88       1.0  0.25903  0.46941  0.09165  1.0000
  H   H89       1.0  0.04584  0.43429  0.20695  1.0000
  C   C55       1.0  0.16718  0.17061  0.44047  1.0000
  H   H90       1.0  0.02169  0.12655  0.45789  1.0000
  S   S10       1.0  0.25373  0.38623  0.98694  1.0000
  H   H91       1.0  0.09665  0.05533  0.45332  1.0000
  H   H92       1.0  0.02858  0.23757  0.47333  1.0000
  H   H93       1.0  0.09322  0.01147  0.45732  1.0000
  H   H94       1.0  0.23966  0.46887  0.01862  1.0000
  C   C56       1.0  0.16641  0.16252  0.46895  1.0000
  C   C57       1.0  0.19758  0.01112  0.40662  1.0000
  H   H95       1.0  0.15994  0.15760  0.43180  1.0000
  N   N4        1.0  0.29969  0.47476  0.05220  1.0000
  H   H96       1.0  0.15618  0.18823  0.43618  1.0000
  H   H97       1.0  0.29407  0.46570  0.13079  1.0000
  C   C58       1.0  0.27742  0.47288  0.01408  1.0000
  H   H98       1.0  0.28330  0.44589  0.09784  1.0000
  H   H99       1.0  0.00401  0.19724  0.40437  1.0000
  H   H100      1.0  0.18998  0.01123  0.38885  1.0000
  C   C59       1.0  0.10502  0.01742  0.46890  1.0000
  C   C60       1.0  0.18773  0.04900  0.47205  1.0000
  S   S11       1.0  0.99695  0.44536  0.25105  1.0000
  H   H101      1.0  0.06773  0.47443  0.12053  1.0000
  H   H102      1.0  0.01124  0.38245  0.35855  1.0000
  H   H103      1.0  0.31845  0.98696  0.46093  1.0000
  C   C61       1.0  0.01717  0.25462  0.47532  1.0000
  H   H104      1.0  0.25313  0.47220  0.98686  1.0000
  H   H105      1.0  0.08907  0.26473  0.47097  1.0000
  S   S12       1.0  0.12116  0.47427  0.02063  1.0000
  H   H106      1.0  0.14751  0.16233  0.47648  1.0000
  H   H107      1.0  0.17371  0.17609  0.47662  1.0000
  C   C62       1.0  0.05993  0.14635  0.55845  1.0000
  H   H108      1.0  0.99623  0.17422  0.50781  1.0000
  C   C63       1.0  0.10052  0.46856  0.76215  1.0000
  S   S13       1.0  0.09175  0.12946  0.50140  1.0000
  H   H109      1.0  0.14809  0.11541  0.50353  1.0000
  S   S14       1.0  0.19541  0.01871  0.51678  1.0000
  H   H110      1.0  0.28543  0.99857  0.54103  1.0000
  H   H111      1.0  0.04192  0.41386  0.66154  1.0000
  Fe  Fe4       1.0  0.05324  0.45325  0.73244  1.0000
  S   S15       1.0  0.09046  0.45017  0.74425  1.0000
  Fe  Fe5       1.0  0.02082  0.42251  0.71426  1.0000
  H   H112      1.0  0.30558  0.47935  0.89708  1.0000
  S   S16       1.0  0.02207  0.38449  0.70694  1.0000
  C   C64       1.0  0.04414  0.40937  0.62240  1.0000
  H   H113      1.0  0.07981  0.38929  0.91580  1.0000
  S   S17       1.0  0.04972  0.44397  0.69505  1.0000
  S   S18       1.0  0.02676  0.42913  0.75234  1.0000
  S   S19       1.0  0.10293  0.19183  0.51089  1.0000
  H   H114      1.0  0.04270  0.45627  0.80641  1.0000
  C   C65       1.0  0.21489  0.42852  0.94474  1.0000
  C   C66       1.0  0.17901  0.04136  0.49699  1.0000
  Fe  Fe6       1.0  0.99975  0.46158  0.74456  1.0000
  S   S20       1.0  0.01772  0.31077  0.57558  1.0000
  H   H115      1.0  0.06670  0.15919  0.54213  1.0000
  C   C67       1.0  0.30121  0.98885  0.64890  1.0000
  H   H116      1.0  0.18796  0.39159  0.96134  1.0000
  S   S21       1.0  0.03867  0.24164  0.59491  1.0000
  C   C68       1.0  0.00939  0.34682  0.65490  1.0000
  H   H117      1.0  0.04660  0.46040  0.61880  1.0000
  H   H118      1.0  0.01629  0.44418  0.64461  1.0000
  C   C69       1.0  0.08404  0.20551  0.53371  1.0000
  C   C70       1.0  0.09396  0.20981  0.55427  1.0000
  C   C71       1.0  0.07980  0.22082  0.57282  1.0000
  C   C72       1.0  0.05570  0.22851  0.57057  1.0000
  C   C73       1.0  0.04567  0.22462  0.54978  1.0000
  C   C74       1.0  0.05979  0.21281  0.53150  1.0000
  H   H119      1.0  0.11267  0.20431  0.55609  1.0000
  H   H120      1.0  0.08764  0.22361  0.58888  1.0000
  H   H121      1.0  0.02706  0.23046  0.54796  1.0000
  H   H122      1.0  0.05207  0.20973  0.51552  1.0000
  C   C75       1.0  0.00918  0.37561  0.68282  1.0000
  C   C76       1.0  0.01923  0.35456  0.67390  1.0000
  Fe  Fe7       1.0  0.22382  0.99250  0.50019  1.0000
  H   H123      1.0  0.18537  0.08917  0.50641  1.0000
  C   C77       1.0  0.15387  0.42049  0.82397  1.0000
  H   H124      1.0  0.22069  0.35801  0.92987  1.0000
  H   H125      1.0  0.03480  0.34419  0.68169  1.0000
  C   C78       1.0  0.07868  0.45437  0.83627  1.0000
  C   C79       1.0  0.26203  0.37857  0.90011  1.0000
  C   C80       1.0  0.04206  0.47039  0.57906  1.0000
  H   H126      1.0  0.13548  0.44848  0.76226  1.0000
  C   C81       1.0  0.26592  0.44741  0.84033  1.0000
  C   C82       1.0  0.26531  0.44802  0.86601  1.0000
  C   C83       1.0  0.28418  0.43580  0.87963  1.0000
  C   C84       1.0  0.30375  0.42332  0.86734  1.0000
  C   C85       1.0  0.30450  0.42337  0.84161  1.0000
  C   C86       1.0  0.28561  0.43517  0.82823  1.0000
  H   H127      1.0  0.25038  0.45789  0.87528  1.0000
  H   H128      1.0  0.28374  0.43621  0.89945  1.0000
  H   H129      1.0  0.14968  0.39178  0.91515  1.0000
  H   H130      1.0  0.05696  0.13003  0.55185  1.0000
  C   C87       1.0  0.05588  0.41163  0.64579  1.0000
  H   H131      1.0  0.11795  0.42597  0.81510  1.0000
  H   H132      1.0  0.30219  0.02546  0.56284  1.0000
  C   C88       1.0  0.00207  0.11684  0.49394  1.0000
  H   H133      1.0  0.30646  0.02269  0.71184  1.0000
  H   H134      1.0  0.14608  0.14264  0.51478  1.0000
  H   H135      1.0  0.15051  0.04685  0.52610  1.0000
  H   H136      1.0  0.28286  0.47204  0.93928  1.0000
  S   S22       1.0  0.24256  0.46131  0.82244  1.0000
  H   H137      1.0  0.21244  0.41562  0.96234  1.0000
  H   H138      1.0  0.16420  0.09328  0.54473  1.0000
  H   H139      1.0  0.12765  0.08019  0.49927  1.0000
  C   C89       1.0  0.15728  0.05265  0.50675  1.0000
  H   H140      1.0  0.22992  0.46213  0.93404  1.0000
  C   C90       1.0  0.19586  0.40601  0.90677  1.0000
  H   H141      1.0  0.15286  0.41345  0.88665  1.0000
  C   C91       1.0  0.07743  0.29452  0.53305  1.0000
  S   S23       1.0  0.30652  0.41786  0.95303  1.0000
  H   H142      1.0  0.28627  0.43477  0.80838  1.0000
  H   H143      1.0  0.18907  0.36994  0.90309  1.0000
  H   H144      1.0  0.08091  0.43965  0.82530  1.0000
  H   H145      1.0  0.11319  0.44183  0.94656  1.0000
  H   H146      1.0  0.31721  0.99144  0.72087  1.0000
  H   H147      1.0  0.07930  0.28483  0.55256  1.0000
  H   H148      1.0  0.23355  0.42996  0.90774  1.0000
  S   S24       1.0  0.02635  0.11476  0.51124  1.0000
  H   H149      1.0  0.20327  0.09884  0.52566  1.0000
  C   C92       1.0  0.03687  0.15755  0.57138  1.0000
  H   H150      1.0  0.01631  0.28437  0.49464  1.0000
  H   H151      1.0  0.03051  0.14391  0.58712  1.0000
  C   C93       1.0  0.07284  0.38922  0.65438  1.0000
  Fe  Fe8       1.0  0.29253  0.38401  0.97272  1.0000
  H   H152      1.0  0.32260  0.01795  0.64226  1.0000
  C   C94       1.0  0.14252  0.46242  0.93983  1.0000
  H   H153      1.0  0.07737  0.30013  0.48386  1.0000
  C   C95       1.0  0.04659  0.45104  0.60268  1.0000
  S   S25       1.0  0.30792  0.36262  0.94258  1.0000
  H   H154      1.0  0.06717  0.31238  0.53400  1.0000
  H   H155      1.0  0.06615  0.42700  0.64228  1.0000
  H   H156      1.0  0.06533  0.44285  0.59887  1.0000
  C   C96       1.0  0.18478  0.38886  0.89415  1.0000
  C   C97       1.0  0.06984  0.42590  0.89717  1.0000
  H   H157      1.0  0.01738  0.33064  0.64819  1.0000
  H   H158      1.0  0.07672  0.43352  0.91166  1.0000
  C   C98       1.0  0.12721  0.42332  0.83229  1.0000
  S   S26       1.0  0.14993  0.45622  0.90930  1.0000
  H   H159      1.0  0.12323  0.40622  0.84428  1.0000
  C   C99       1.0  0.11967  0.44481  0.84636  1.0000
  H   H160      1.0  0.29277  0.99713  0.63148  1.0000
  H   H161      1.0  0.26235  0.36359  0.91633  1.0000
  H   H162      1.0  0.32136  0.00127  0.67405  1.0000
  H   H163      1.0  0.27142  0.39253  0.90439  1.0000
  H   H164      1.0  0.18278  0.41162  0.92206  1.0000
  H   H165      1.0  0.08460  0.46980  0.82261  1.0000
  H   H166      1.0  0.08347  0.46849  0.64483  1.0000
  H   H167      1.0  0.15868  0.40507  0.81399  1.0000
  H   H168      1.0  0.24719  0.40891  0.93192  1.0000
  H   H169      1.0  0.29617  0.02194  0.66348  1.0000
  H   H170      1.0  0.99980  0.20537  0.57164  1.0000
  H   H171      1.0  0.16426  0.41729  0.84040  1.0000
  H   H172      1.0  0.10529  0.41519  0.88278  1.0000
  H   H173      1.0  0.13174  0.44317  0.86122  1.0000
  H   H174      1.0  0.12378  0.46089  0.83247  1.0000
  H   H175      1.0  0.07975  0.39083  0.67203  1.0000
  H   H176      1.0  0.05321  0.43719  0.89194  1.0000
  H   H177      1.0  0.19737  0.43713  0.93881  1.0000
  H   H178      1.0  0.03370  0.25746  0.50700  1.0000
  H   H179      1.0  0.21767  0.15831  0.48540  1.0000
  H   H180      1.0  0.30782  0.48286  0.94892  1.0000
  H   H181      1.0  0.99973  0.47717  0.61381  1.0000
  C   C100      1.0  0.27637  0.36936  0.87748  1.0000
  N   N5        1.0  0.21959  0.39618  0.91630  1.0000
  H   H182      1.0  0.11757  0.12707  0.55038  1.0000
  N   N6        1.0  0.09409  0.44796  0.85767  1.0000
  H   H183      1.0  0.08396  0.41239  0.86285  1.0000
  H   H184      1.0  0.01227  0.44237  0.57568  1.0000
  C   C101      1.0  0.21813  0.37496  0.93744  1.0000
  C   C102      1.0  0.14438  0.07157  0.49165  1.0000
  H   H185      1.0  0.12118  0.09806  0.54099  1.0000
  C   C103      1.0  0.12839  0.10921  0.55199  1.0000
  H   H186      1.0  0.01925  0.15324  0.54024  1.0000
  H   H187      1.0  0.15887  0.43668  0.81090  1.0000
  N   N7        1.0  0.03014  0.43192  0.60974  1.0000
  C   C104      1.0  0.06030  0.29361  0.49243  1.0000
  H   H188      1.0  0.24255  0.07725  0.51249  1.0000
  C   C105      1.0  0.31143  0.00779  0.56183  1.0000
  H   H189      1.0  0.05586  0.39294  0.89608  1.0000
  Fe  Fe9       1.0  0.32408  0.39577  0.92459  1.0000
  H   H190      1.0  0.03754  0.42078  0.57361  1.0000
  H   H191      1.0  0.10362  0.00618  0.48777  1.0000
  C   C106      1.0  0.12414  0.46370  0.76804  1.0000
  H   H192      1.0  0.04441  0.44318  0.85289  1.0000
  C   C107      1.0  0.99681  0.40364  0.56651  1.0000
  S   S27       1.0  0.00274  0.33250  0.50692  1.0000
  H   H193      1.0  0.19204  0.39058  0.87403  1.0000
  H   H194      1.0  0.04120  0.17265  0.57923  1.0000
  C   C108      1.0  0.06369  0.40108  0.90947  1.0000
  C   C109      1.0  0.01792  0.16677  0.55261  1.0000
  C   C110      1.0  0.00967  0.43921  0.62823  1.0000
  S   S28       1.0  0.17499  0.46973  0.84321  1.0000
  H   H195      1.0  0.02358  0.18305  0.54006  1.0000
  C   C111      1.0  0.23617  0.38861  0.89447  1.0000
  C   C112      1.0  0.15439  0.11159  0.54262  1.0000
  Fe  Fe10      1.0  0.01035  0.27254  0.58528  1.0000
  C   C113      1.0  0.02963  0.26951  0.48922  1.0000
  Fe  Fe11      1.0  0.08831  0.16919  0.48862  1.0000
  H   H196      1.0  0.07511  0.26257  0.51914  1.0000
  C   C114      1.0  0.12331  0.45253  0.95438  1.0000
  H   H197      1.0  0.02332  0.47861  0.57928  1.0000
  H   H198      1.0  0.19737  0.42278  0.89275  1.0000
  C   C115      1.0  0.08895  0.42461  0.87430  1.0000
  C   C116      1.0  0.31525  0.00927  0.72644  1.0000
  H   H199      1.0  0.30375  0.00895  0.74453  1.0000
  C   C117      1.0  0.15779  0.39462  0.89533  1.0000
  H   H200      1.0  0.16106  0.12149  0.55525  1.0000
  H   H201      1.0  0.03261  0.39504  0.62921  1.0000
  H   H202      1.0  0.29512  0.36367  0.88148  1.0000
  H   H203      1.0  0.22939  0.37436  0.88731  1.0000
  C   C118      1.0  0.06445  0.28030  0.51947  1.0000
  C   C119      1.0  0.19668  0.10321  0.50673  1.0000
  H   H204      1.0  0.07005  0.24371  0.48582  1.0000
  H   H205      1.0  0.27617  0.38367  0.86057  1.0000
  H   H206      1.0  0.08808  0.38693  0.63984  1.0000
  H   H207      1.0  0.12692  0.10043  0.57204  1.0000
  H   H208      1.0  0.31275  0.47115  0.85289  1.0000
  H   H209      1.0  0.06350  0.37315  0.65823  1.0000
  H   H210      1.0  0.21693  0.45588  0.96633  1.0000
  H   H211      1.0  0.01455  0.38893  0.59912  1.0000
  H   H212      1.0  0.23317  0.37312  0.94898  1.0000
  H   H213      1.0  0.04719  0.27782  0.53091  1.0000
  H   H214      1.0  0.05050  0.40250  0.92614  1.0000
  H   H215      1.0  0.09544  0.29669  0.52328  1.0000
  C   C120      1.0  0.22989  0.41587  0.92431  1.0000
  H   H216      1.0  0.07661  0.48317  0.57506  1.0000
  C   C121      1.0  0.31102  0.00864  0.65779  1.0000
  H   H217      1.0  0.05830  0.40234  0.60864  1.0000
  C   C122      1.0  0.15566  0.47615  0.95010  1.0000
  Fe  Fe12      1.0  0.21060  0.48231  0.83984  1.0000
  H   H218      1.0  0.23703  0.40387  0.87836  1.0000
  C   C123      1.0  0.19168  0.14434  0.51642  1.0000
  H   H219      1.0  0.07362  0.14133  0.57188  1.0000
  H   H220      1.0  0.26903  0.35385  0.87351  1.0000
  C   C124      1.0  0.22762  0.44791  0.95079  1.0000
  H   H221      1.0  0.15062  0.38291  0.88496  1.0000
  H   H222      1.0  0.09715  0.45707  0.67352  1.0000
  H   H223      1.0  0.04761  0.30996  0.49425  1.0000
  C   C125      1.0  0.13339  0.47863  0.78094  1.0000
  H   H224      1.0  0.24529  0.44019  0.95713  1.0000
  H   H225      1.0  0.18052  0.36953  0.94599  1.0000
  C   C126      1.0  0.30193  0.99260  0.54938  1.0000
  C   C127      1.0  0.05163  0.45980  0.84328  1.0000
  Fe  Fe13      1.0  0.05577  0.13306  0.48780  1.0000
  H   H226      1.0  0.20427  0.33769  0.97438  1.0000
  H   H227      1.0  0.31967  0.41399  0.83198  1.0000
  H   H228      1.0  0.01218  0.39863  0.55304  1.0000
  C   C128      1.0  0.15700  0.12490  0.51490  1.0000
  C   C129      1.0  0.00524  0.40654  0.59110  1.0000
  H   H229      1.0  0.99990  0.42385  0.63635  1.0000
  H   H230      1.0  0.00407  0.18118  0.59701  1.0000
  C   C130      1.0  0.14968  0.47957  0.97519  1.0000
  H   H231      1.0  0.04672  0.46236  0.56180  1.0000
  C   C131      1.0  0.21652  0.15141  0.50590  1.0000
  C   C132      1.0  0.19470  0.37431  0.95543  1.0000
  H   H232      1.0  0.19311  0.13625  0.53649  1.0000
  C   C133      1.0  0.02185  0.42631  0.58657  1.0000
  S   S29       1.0  0.26230  0.99639  0.48799  1.0000
  H   H233      1.0  0.13507  0.99684  0.50945  1.0000
  H   H234      1.0  0.10282  0.46173  0.88901  1.0000
  H   H235      1.0  0.15176  0.47503  0.78486  1.0000
  C   C134      1.0  0.09141  0.46745  0.87323  1.0000
  H   H236      1.0  0.22383  0.06014  0.50078  1.0000
  H   H237      1.0  0.22914  0.11321  0.48209  1.0000
  H   H238      1.0  0.11451  0.47044  0.64570  1.0000
  H   H239      1.0  0.07305  0.47057  0.88232  1.0000
  H   H240      1.0  0.99696  0.23856  0.50951  1.0000
  Fe  Fe14      1.0  0.02107  0.47514  0.69080  1.0000
  C   C135      1.0  0.09675  0.47146  0.65669  1.0000
  H   H241      1.0  0.22214  0.16484  0.53923  1.0000
  H   H242      1.0  0.01924  0.47163  0.82496  1.0000
  H   H243      1.0  0.04731  0.47353  0.85545  1.0000
  C   C136      1.0  0.03875  0.46911  0.81970  1.0000
  H   H244      1.0  0.16951  0.99607  0.48016  1.0000
  H   H245      1.0  0.17896  0.16096  0.51693  1.0000
  C   C137      1.0  0.23411  0.07557  0.49579  1.0000
  H   H246      1.0  0.10538  0.04922  0.48490  1.0000
  Fe  Fe15      1.0  0.16998  0.48141  0.88062  1.0000
  C   C138      1.0  0.22253  0.17094  0.51857  1.0000
  H   H247      1.0  0.23025  0.13578  0.50990  1.0000
  N   N8        1.0  0.18210  0.12766  0.50317  1.0000
  H   H248      1.0  0.20971  0.18740  0.51465  1.0000
  H   H249      1.0  0.24063  0.17534  0.51113  1.0000
  S   S30       1.0  0.05103  0.17314  0.47841  1.0000
  C   C139      1.0  0.21802  0.09854  0.48679  1.0000
  H   H250      1.0  0.24832  0.07191  0.48059  1.0000
  H   H251      1.0  0.07638  0.04409  0.47959  1.0000
  Fe  Fe16      1.0  0.14851  0.50124  0.09194  1.0000
  H   H252      1.0  0.13538  0.62758  0.30922  1.0000
  H   H253      1.0  0.32260  0.51636  0.05914  1.0000
  S   S31       1.0  0.01555  0.52102  0.14247  1.0000
  S   S32       1.0  0.10705  0.82743  0.47233  1.0000
  S   S33       1.0  0.00542  0.51017  0.21837  1.0000
  C   C140      1.0  0.01402  0.79084  0.47557  1.0000
  S   S34       1.0  0.30192  0.56043  0.02181  1.0000
  H   H254      1.0  0.99981  0.75931  0.42901  1.0000
  S   S35       1.0  0.19227  0.55564  0.02072  1.0000
  H   H255      1.0  0.06575  0.58321  0.39904  1.0000
  H   H256      1.0  0.07040  0.52528  0.24749  1.0000
  S   S36       1.0  0.02647  0.64302  0.36893  1.0000
  H   H257      1.0  0.05236  0.64125  0.22009  1.0000
  S   S37       1.0  0.02073  0.68603  0.32122  1.0000
  Fe  Fe17      1.0  0.01165  0.64819  0.33168  1.0000
  S   S38       1.0  0.02539  0.61781  0.30957  1.0000
  Fe  Fe18      1.0  0.03212  0.68163  0.35998  1.0000
  S   S39       1.0  0.06576  0.69094  0.37146  1.0000
  C   C141      1.0  0.20038  0.89955  0.45469  1.0000
  H   H258      1.0  0.19866  0.88726  0.42001  1.0000
  Fe  Fe19      1.0  0.07909  0.83012  0.44633  1.0000
  S   S40       1.0  0.10329  0.83889  0.41113  1.0000
  H   H259      1.0  0.21527  0.79224  0.46167  1.0000
  S   S41       1.0  0.14033  0.79405  0.43493  1.0000
  Fe  Fe20      1.0  0.13208  0.83326  0.43703  1.0000
  S   S42       1.0  0.16132  0.85764  0.42857  1.0000
  Fe  Fe21      1.0  0.10923  0.79924  0.41209  1.0000
  S   S43       1.0  0.10879  0.78431  0.37652  1.0000
  S   S44       1.0  0.08301  0.79083  0.44541  1.0000
  H   H260      1.0  0.05567  0.59874  0.14546  1.0000
  C   C142      1.0  0.05965  0.51039  0.16049  1.0000
  C   C143      1.0  0.09521  0.67218  0.46269  1.0000
  C   C144      1.0  0.01120  0.75937  0.33411  1.0000
  C   C145      1.0  0.03802  0.56294  0.20133  1.0000
  H   H261      1.0  0.02025  0.56334  0.21253  1.0000
  Fe  Fe22      1.0  0.11307  0.78871  0.46850  1.0000
  C   C146      1.0  0.01518  0.64899  0.43785  1.0000
  C   C147      1.0  0.02260  0.83097  0.45828  1.0000
  H   H262      1.0  0.12137  0.66601  0.31203  1.0000
  H   H263      1.0  0.17557  0.97580  0.43402  1.0000
  C   C148      1.0  0.11356  0.65988  0.33158  1.0000
  H   H264      1.0  0.01953  0.65734  0.41863  1.0000
  C   C149      1.0  0.99406  0.63885  0.44486  1.0000
  H   H265      1.0  0.28603  0.49958  0.07721  1.0000
  N   N9        1.0  0.03997  0.58612  0.18302  1.0000
  C   C150      1.0  0.07192  0.72021  0.37093  1.0000
  C   C151      1.0  0.08642  0.73099  0.35058  1.0000
  C   C152      1.0  0.09670  0.75119  0.35232  1.0000
  C   C153      1.0  0.09296  0.76069  0.37454  1.0000
  C   C154      1.0  0.07759  0.75063  0.39458  1.0000
  C   C155      1.0  0.06720  0.73037  0.39279  1.0000
  H   H266      1.0  0.09065  0.72307  0.33384  1.0000
  H   H267      1.0  0.10847  0.75891  0.33670  1.0000
  H   H268      1.0  0.07433  0.75798  0.41169  1.0000
  H   H269      1.0  0.05624  0.72202  0.40867  1.0000
  C   C156      1.0  0.00557  0.57031  0.27168  1.0000
  H   H270      1.0  0.02156  0.74566  0.29942  1.0000
  C   C157      1.0  0.08422  0.51855  0.11225  1.0000
  H   H271      1.0  0.26597  0.49487  0.04275  1.0000
  H   H272      1.0  0.02254  0.59961  0.22811  1.0000
  H   H273      1.0  0.05189  0.62064  0.17964  1.0000
  C   C158      1.0  0.27151  0.55895  0.02141  1.0000
  C   C159      1.0  0.25968  0.57070  0.00069  1.0000
  C   C160      1.0  0.23536  0.56963  0.00067  1.0000
  C   C161      1.0  0.22288  0.55627  0.02102  1.0000
  C   C162      1.0  0.23481  0.54417  0.04156  1.0000
  C   C163      1.0  0.25898  0.54589  0.04194  1.0000
  C   C164      1.0  0.99994  0.75431  0.38996  1.0000
  H   H274      1.0  0.05675  0.61327  0.24204  1.0000
  H   H275      1.0  0.22527  0.53409  0.05748  1.0000
  H   H276      1.0  0.26794  0.53718  0.05816  1.0000
  H   H277      1.0  0.06583  0.59840  0.20187  1.0000
  H   H278      1.0  0.01667  0.62753  0.20741  1.0000
  H   H279      1.0  0.08327  0.65907  0.47270  1.0000
  H   H280      1.0  0.15398  0.94682  0.43629  1.0000
  C   C165      1.0  0.13442  0.57977  0.30685  1.0000
  H   H281      1.0  0.01610  0.61460  0.16358  1.0000
  C   C166      1.0  0.01779  0.58142  0.28622  1.0000
  H   H282      1.0  0.18847  0.78231  0.45531  1.0000
  H   H283      1.0  0.03440  0.57246  0.29282  1.0000
  C   C167      1.0  0.13998  0.94762  0.45229  1.0000
  C   C168      1.0  0.09759  0.57294  0.13779  1.0000
  H   H284      1.0  0.29774  0.94412  0.42892  1.0000
  H   H285      1.0  0.03885  0.54800  0.19084  1.0000
  C   C169      1.0  0.17173  0.87403  0.44851  1.0000
  Fe  Fe23      1.0  0.25822  0.97650  0.45738  1.0000
  C   C170      1.0  0.19089  0.88708  0.43923  1.0000
  H   H286      1.0  0.11908  0.98019  0.43565  1.0000
  H   H287      1.0  0.03935  0.52666  0.24440  1.0000
  C   C171      1.0  0.11414  0.59956  0.31114  1.0000
  C   C172      1.0  0.04847  0.60485  0.19442  1.0000
  H   H288      1.0  0.06144  0.51763  0.21989  1.0000
  C   C173      1.0  0.31444  0.49258  0.03551  1.0000
  C   C174      1.0  0.05686  0.52973  0.23388  1.0000
  H   H289      1.0  0.16458  0.81725  0.47244  1.0000
  H   H290      1.0  0.12551  0.72687  0.40890  1.0000
  H   H291      1.0  0.05318  0.73175  0.45771  1.0000
  H   H292      1.0  0.05207  0.56698  0.23577  1.0000
  H   H293      1.0  0.04579  0.74478  0.31778  1.0000
  C   C175      1.0  0.04348  0.62643  0.23185  1.0000
  C   C176      1.0  0.12172  0.93185  0.44919  1.0000
  H   H294      1.0  0.04738  0.70384  0.45065  1.0000
  H   H295      1.0  0.12817  0.56680  0.29731  1.0000
  H   H296      1.0  0.05025  0.56837  0.15086  1.0000
  Fe  Fe24      1.0  0.17817  0.52330  0.04484  1.0000
  C   C177      1.0  0.05630  0.58197  0.15973  1.0000
  H   H297      1.0  0.05030  0.50683  0.17908  1.0000
  Fe  Fe25      1.0  0.31905  0.57173  0.98266  1.0000
  C   C178      1.0  0.12241  0.61863  0.32363  1.0000
  H   H298      1.0  0.21541  0.90910  0.44741  1.0000
  H   H299      1.0  0.08994  0.59642  0.40659  1.0000
  H   H300      1.0  0.00389  0.79997  0.40318  1.0000
  H   H301      1.0  0.06801  0.60602  0.35629  1.0000
  H   H302      1.0  0.13318  0.60915  0.33907  1.0000
  H   H303      1.0  0.26912  0.58108  0.98490  1.0000
  C   C179      1.0  0.08464  0.50717  0.15731  1.0000
  N   N10       1.0  0.00491  0.77820  0.37460  1.0000
  H   H304      1.0  0.10997  0.62499  0.37237  1.0000
  H   H305      1.0  0.12340  0.75018  0.42727  1.0000
  H   H306      1.0  0.09854  0.59160  0.12790  1.0000
  H   H307      1.0  0.09066  0.58331  0.17386  1.0000
  S   S45       1.0  0.13894  0.52179  0.05451  1.0000
  C   C180      1.0  0.08344  0.60498  0.36700  1.0000
  H   H308      1.0  0.00480  0.56292  0.16903  1.0000
  H   H309      1.0  0.08688  0.67504  0.29077  1.0000
  C   C181      1.0  0.09700  0.51090  0.13317  1.0000
  H   H310      1.0  0.10614  0.56004  0.98549  1.0000
  Fe  Fe26      1.0  0.14692  0.48647  0.04162  1.0000
  H   H311      1.0  0.01484  0.58178  0.14033  1.0000
  C   C182      1.0  0.08211  0.64249  0.31837  1.0000
  H   H312      1.0  0.14798  0.93960  0.46999  1.0000
  H   H313      1.0  0.32213  0.88468  0.33501  1.0000
  C   C183      1.0  0.02099  0.77334  0.35138  1.0000
  C   C184      1.0  0.01722  0.79068  0.39031  1.0000
  C   C185      1.0  0.07477  0.59952  0.39504  1.0000
  H   H314      1.0  0.14694  0.64367  0.34769  1.0000
  C   C186      1.0  0.03090  0.64824  0.45574  1.0000
  H   H315      1.0  0.08415  0.55367  0.17302  1.0000
  C   C187      1.0  0.29797  0.97733  0.40288  1.0000
  C   C188      1.0  0.03432  0.80854  0.37603  1.0000
  C   C189      1.0  0.04111  0.82364  0.39348  1.0000
  H   H316      1.0  0.06191  0.61446  0.40079  1.0000
  H   H317      1.0  0.08997  0.71988  0.44020  1.0000
  C   C190      1.0  0.00019  0.83662  0.44949  1.0000
  H   H318      1.0  0.03818  0.76317  0.35700  1.0000
  H   H319      1.0  0.02578  0.79009  0.33928  1.0000
  C   C191      1.0  0.01568  0.59628  0.17484  1.0000
  H   H320      1.0  0.02864  0.77738  0.40286  1.0000
  H   H321      1.0  0.01671  0.74172  0.39158  1.0000
  N   N11       1.0  0.10330  0.63679  0.33334  1.0000
  H   H322      1.0  0.01270  0.55296  0.26733  1.0000
  H   H323      1.0  0.07208  0.66310  0.25512  1.0000
  S   S46       1.0  0.99652  0.69432  0.37809  1.0000
  C   C192      1.0  0.06821  0.65319  0.27447  1.0000
  H   H324      1.0  0.09403  0.65423  0.40523  1.0000
  H   H325      1.0  0.10463  0.64885  0.28207  1.0000
  H   H326      1.0  0.12525  0.65835  0.36880  1.0000
  H   H327      1.0  0.29691  0.92259  0.33970  1.0000
  H   H328      1.0  0.05096  0.79851  0.36845  1.0000
  H   H329      1.0  0.15587  0.53104  0.98499  1.0000
  H   H330      1.0  0.05508  0.83451  0.38353  1.0000
  H   H331      1.0  0.02545  0.83588  0.39952  1.0000
  H   H332      1.0  0.04816  0.81208  0.41035  1.0000
  H   H333      1.0  0.08199  0.64257  0.36784  1.0000
  S   S47       1.0  0.18523  0.48957  0.02882  1.0000
  H   H334      1.0  0.06766  0.65403  0.32773  1.0000
  H   H335      1.0  0.15876  0.68122  0.35515  1.0000
  C   C193      1.0  0.09494  0.62836  0.36063  1.0000
  S   S48       1.0  0.21897  0.97588  0.46760  1.0000
  H   H336      1.0  0.14046  0.57007  0.32507  1.0000
  H   H337      1.0  0.19665  0.81085  0.43938  1.0000
  H   H338      1.0  0.09445  0.50131  0.17356  1.0000
  C   C194      1.0  0.14517  0.68195  0.34211  1.0000
  H   H339      1.0  0.15149  0.73232  0.42127  1.0000
  H   H340      1.0  0.09926  0.67443  0.33559  1.0000
  H   H341      1.0  0.13192  0.69793  0.34382  1.0000
  H   H342      1.0  0.11629  0.64388  0.42674  1.0000
  C   C195      1.0  0.09232  0.67554  0.43426  1.0000
  S   S49       1.0  0.18731  0.50586  0.08351  1.0000
  H   H343      1.0  0.09356  0.52157  0.09358  1.0000
  H   H344      1.0  0.07401  0.62623  0.31808  1.0000
  C   C196      1.0  0.13202  0.73198  0.42520  1.0000
  C   C197      1.0  0.09745  0.65156  0.42519  1.0000
  C   C198      1.0  0.16172  0.87413  0.47330  1.0000
  C   C199      1.0  0.05924  0.52233  0.11549  1.0000
  H   H345      1.0  0.14961  0.58730  0.29475  1.0000
  H   H346      1.0  0.13068  0.91354  0.44802  1.0000
  C   C200      1.0  0.04687  0.51783  0.13955  1.0000
  H   H347      1.0  0.09673  0.58969  0.36305  1.0000
  H   H348      1.0  0.31754  0.91471  0.36319  1.0000
  C   C201      1.0  0.05650  0.55577  0.22094  1.0000
  C   C202      1.0  0.19660  0.79804  0.45748  1.0000
  S   S50       1.0  0.04312  0.85145  0.45102  1.0000
  H   H349      1.0  0.10483  0.68723  0.42268  1.0000
  H   H350      1.0  0.07415  0.68337  0.43024  1.0000
  C   C203      1.0  0.12097  0.54840  0.99473  1.0000
  H   H351      1.0  0.24663  0.49785  0.00260  1.0000
  H   H352      1.0  0.05031  0.66053  0.28218  1.0000
  H   H353      1.0  0.08993  0.56318  0.12572  1.0000
  H   H354      1.0  0.06816  0.63410  0.27356  1.0000
  C   C204      1.0  0.12815  0.97364  0.45307  1.0000
  S   S51       1.0  0.12833  0.50559  0.12990  1.0000
  C   C205      1.0  0.08265  0.57254  0.16322  1.0000
  H   H355      1.0  0.07476  0.55815  0.21250  1.0000
  C   C206      1.0  0.31600  0.92031  0.34272  1.0000
  C   C207      1.0  0.12652  0.71413  0.44916  1.0000
  H   H356      1.0  0.08578  0.63868  0.43629  1.0000
  C   C208      1.0  0.30695  0.95386  0.41248  1.0000
  H   H357      1.0  0.16970  0.96610  0.47708  1.0000
  H   H358      1.0  0.10806  0.60783  0.29253  1.0000
  H   H359      1.0  0.04946  0.52819  0.09921  1.0000
  H   H360      1.0  0.02666  0.82085  0.36005  1.0000
  H   H361      1.0  0.12572  0.55679  0.00981  1.0000
  C   C209      1.0  0.09943  0.71581  0.45734  1.0000
  C   C210      1.0  0.13314  0.65926  0.34898  1.0000
  H   H362      1.0  0.03019  0.63387  0.24601  1.0000
  H   H363      1.0  0.09919  0.59112  0.32247  1.0000
  H   H364      1.0  0.10789  0.93071  0.46551  1.0000
  H   H365      1.0  0.15408  0.68377  0.32261  1.0000
  C   C211      1.0  0.08703  0.65569  0.29089  1.0000
  H   H366      1.0  0.16004  0.48967  0.98340  1.0000
  C   C212      1.0  0.00860  0.60391  0.29244  1.0000
  H   H367      1.0  0.13408  0.69601  0.44570  1.0000
  H   H368      1.0  0.11592  0.56411  0.14063  1.0000
  C   C213      1.0  0.02921  0.80830  0.47185  1.0000
  N   N12       1.0  0.09130  0.69423  0.47479  1.0000
  H   H369      1.0  0.09447  0.73193  0.46639  1.0000
  H   H370      1.0  0.03324  0.77290  0.30011  1.0000
  H   H371      1.0  0.11318  0.93894  0.43161  1.0000
  C   C214      1.0  0.03103  0.61425  0.21568  1.0000
  H   H372      1.0  0.04712  0.65604  0.45019  1.0000
  H   H373      1.0  0.27005  0.48963  0.12396  1.0000
  H   H374      1.0  0.30276  0.50855  0.02682  1.0000
  H   H375      1.0  0.99509  0.85420  0.43894  1.0000
  H   H376      1.0  0.32704  0.90785  0.30807  1.0000
  H   H377      1.0  0.00254  0.59818  0.19156  1.0000
  H   H378      1.0  0.00761  0.74141  0.34416  1.0000
  C   C215      1.0  0.02914  0.75552  0.31148  1.0000
  C   C216      1.0  0.04810  0.71376  0.46585  1.0000
  H   H379      1.0  0.11487  0.53093  0.00334  1.0000
  H   H380      1.0  0.11361  0.97242  0.46859  1.0000
  H   H381      1.0  0.32274  0.93782  0.33619  1.0000
  H   H382      1.0  0.22629  0.57922  0.98485  1.0000
  H   H383      1.0  0.01145  0.73039  0.46635  1.0000
  H   H384      1.0  0.05838  0.49207  0.07386  1.0000
  H   H385      1.0  0.11343  0.66259  0.46487  1.0000
  C   C217      1.0  0.00479  0.58166  0.15918  1.0000
  H   H386      1.0  0.13570  0.71825  0.46428  1.0000
  H   H387      1.0  0.99676  0.71619  0.42997  1.0000
  H   H388      1.0  0.99439  0.81661  0.33429  1.0000
  H   H389      1.0  0.99461  0.76924  0.32683  1.0000
  H   H390      1.0  0.28925  0.48437  0.00106  1.0000
  H   H391      1.0  0.32406  0.48488  0.01927  1.0000
  H   H392      1.0  0.16292  0.57089  0.98084  1.0000
  H   H393      1.0  0.28330  0.66374  0.89757  1.0000
  H   H394      1.0  0.17159  0.53145  0.93916  1.0000
  H   H395      1.0  0.31453  0.63864  0.88124  1.0000
  S   S52       1.0  0.27492  0.61004  0.90764  1.0000
  S   S53       1.0  0.19741  0.51922  0.82052  1.0000
  H   H396      1.0  0.11727  0.53887  0.71891  1.0000
  S   S54       1.0  0.11995  0.75902  0.50160  1.0000
  H   H397      1.0  0.28720  0.98209  0.66337  1.0000
  S   S55       1.0  0.15410  0.51849  0.86552  1.0000
  H   H398      1.0  0.25812  0.52287  0.80635  1.0000
  C   C218      1.0  0.18335  0.54542  0.93735  1.0000
  C   C219      1.0  0.30895  0.49782  0.89752  1.0000
  Fe  Fe27      1.0  0.19170  0.52711  0.85981  1.0000
  S   S56       1.0  0.19843  0.56360  0.86466  1.0000
  H   H399      1.0  0.09111  0.50928  0.64685  1.0000
  H   H400      1.0  0.14259  0.82756  0.50686  1.0000
  Fe  Fe28      1.0  0.02704  0.64544  0.53890  1.0000
  H   H401      1.0  0.24942  0.94592  0.60962  1.0000
  Fe  Fe29      1.0  0.02095  0.68461  0.56936  1.0000
  H   H402      1.0  0.11590  0.50776  0.72833  1.0000
  S   S57       1.0  0.03102  0.72073  0.57095  1.0000
  C   C220      1.0  0.08610  0.48841  0.76953  1.0000
  H   H403      1.0  0.10729  0.48443  0.69851  1.0000
  C   C221      1.0  0.17132  0.78364  0.54929  1.0000
  H   H404      1.0  0.09166  0.83448  0.55655  1.0000
  S   S58       1.0  0.04714  0.65149  0.56939  1.0000
  C   C222      1.0  0.21299  0.50985  0.95256  1.0000
  H   H405      1.0  0.27871  0.92176  0.71321  1.0000
  C   C223      1.0  0.20889  0.81830  0.52943  1.0000
  C   C224      1.0  0.30915  0.93521  0.68931  1.0000
  H   H406      1.0  0.07979  0.67674  0.52866  1.0000
  H   H407      1.0  0.30205  0.69131  0.94694  1.0000
  H   H408      1.0  0.09751  0.52800  0.86607  1.0000
  C   C225      1.0  0.15972  0.74468  0.57526  1.0000
  S   S59       1.0  0.23196  0.95733  0.52561  1.0000
  C   C226      1.0  0.02394  0.57767  0.63756  1.0000
  C   C227      1.0  0.02138  0.56487  0.66221  1.0000
  C   C228      1.0  0.02032  0.54015  0.66673  1.0000
  C   C229      1.0  0.02193  0.52806  0.64655  1.0000
  C   C230      1.0  0.09074  0.57350  0.63428  1.0000
  C   C231      1.0  0.10564  0.68905  0.49710  1.0000
  H   H409      1.0  0.02031  0.57418  0.67784  1.0000
  H   H410      1.0  0.01829  0.53045  0.68578  1.0000
  H   H411      1.0  0.15053  0.52857  0.68401  1.0000
  C   C232      1.0  0.08992  0.49595  0.66442  1.0000
  C   C233      1.0  0.05579  0.72972  0.55055  1.0000
  C   C234      1.0  0.05243  0.74645  0.52855  1.0000
  C   C235      1.0  0.07194  0.75573  0.51348  1.0000
  C   C236      1.0  0.09493  0.74847  0.52049  1.0000
  C   C237      1.0  0.09828  0.73174  0.54255  1.0000
  C   C238      1.0  0.07880  0.72234  0.55749  1.0000
  H   H412      1.0  0.03468  0.75217  0.52322  1.0000
  H   H413      1.0  0.11769  0.59228  0.88941  1.0000
  H   H414      1.0  0.11600  0.72595  0.54807  1.0000
  H   H415      1.0  0.08148  0.70973  0.57470  1.0000
  C   C239      1.0  0.29510  0.95263  0.62046  1.0000
  C   C240      1.0  0.28409  0.51662  0.83343  1.0000
  C   C241      1.0  0.00401  0.62824  0.48804  1.0000
  C   C242      1.0  0.30013  0.93313  0.66416  1.0000
  H   H416      1.0  0.27752  0.49606  0.87015  1.0000
  S   S60       1.0  0.04583  0.63636  0.50266  1.0000
  H   H417      1.0  0.13217  0.65541  0.53116  1.0000
  H   H418      1.0  0.08440  0.51917  0.78732  1.0000
  H   H419      1.0  0.17067  0.48360  0.93891  1.0000
  H   H420      1.0  0.31871  0.95019  0.47810  1.0000
  H   H421      1.0  0.28271  0.91720  0.62645  1.0000
  H   H422      1.0  0.17866  0.73725  0.57666  1.0000
  C   C243      1.0  0.17736  0.61273  0.94050  1.0000
  C   C244      1.0  0.25474  0.59515  0.89639  1.0000
  C   C245      1.0  0.23868  0.60921  0.88062  1.0000
  C   C246      1.0  0.22206  0.59893  0.87095  1.0000
  C   C247      1.0  0.22129  0.57430  0.87656  1.0000
  C   C248      1.0  0.23728  0.55990  0.89248  1.0000
  C   C249      1.0  0.25390  0.57040  0.90260  1.0000
  H   H423      1.0  0.23900  0.62831  0.87586  1.0000
  H   H424      1.0  0.20965  0.61023  0.85896  1.0000
  H   H425      1.0  0.23637  0.54094  0.89748  1.0000
  H   H426      1.0  0.26573  0.55953  0.91546  1.0000
  H   H427      1.0  0.29225  0.50013  0.82632  1.0000
  Fe  Fe30      1.0  0.30493  0.59280  0.93096  1.0000
  H   H428      1.0  0.15822  0.50877  0.73956  1.0000
  H   H429      1.0  0.21815  0.54617  0.94999  1.0000
  H   H430      1.0  0.07481  0.58217  0.62483  1.0000
  C   C250      1.0  0.02414  0.54093  0.62188  1.0000
  N   N13       1.0  0.31089  0.67776  0.91194  1.0000
  H   H431      1.0  0.16236  0.61467  0.95535  1.0000
  H   H432      1.0  0.31949  0.59355  0.83659  1.0000
  C   C251      1.0  0.25847  0.52186  0.82686  1.0000
  H   H433      1.0  0.26067  0.92561  0.58817  1.0000
  H   H434      1.0  0.17272  0.97509  0.52610  1.0000
  Fe  Fe31      1.0  0.22882  0.94070  0.49217  1.0000
  H   H435      1.0  0.12769  0.96876  0.50430  1.0000
  C   C252      1.0  0.14243  0.54456  0.97549  1.0000
  H   H436      1.0  0.24070  0.66731  0.90932  1.0000
  H   H437      1.0  0.29482  0.56107  0.84318  1.0000
  H   H438      1.0  0.14662  0.54515  0.91135  1.0000
  S   S61       1.0  0.00181  0.62366  0.56502  1.0000
  C   C253      1.0  0.19656  0.62694  0.94468  1.0000
  C   C254      1.0  0.28861  0.66576  0.91591  1.0000
  S   S62       1.0  0.02680  0.48623  0.72668  1.0000
  H   H439      1.0  0.23873  0.83686  0.53154  1.0000
  C   C255      1.0  0.13790  0.56333  0.91323  1.0000
  H   H440      1.0  0.19618  0.53595  0.97491  1.0000
  H   H441      1.0  0.29366  0.53138  0.82295  1.0000
  H   H442      1.0  0.12296  0.56215  0.92835  1.0000
  S   S63       1.0  0.20360  0.91215  0.50087  1.0000
  H   H443      1.0  0.24819  0.50740  0.83700  1.0000
  C   C256      1.0  0.26634  0.67839  0.92976  1.0000
  H   H444      1.0  0.29204  0.64730  0.92663  1.0000
  C   C257      1.0  0.31674  0.68024  0.93750  1.0000
  C   C258      1.0  0.02543  0.63781  0.48080  1.0000
  C   C259      1.0  0.09552  0.50362  0.78201  1.0000
  C   C260      1.0  0.20305  0.53548  0.95502  1.0000
  C   C261      1.0  0.12726  0.57413  0.88858  1.0000
  H   H445      1.0  0.17456  0.82932  0.54761  1.0000
  H   H446      1.0  0.20275  0.62033  0.96360  1.0000
  H   H447      1.0  0.18089  0.51615  0.71425  1.0000
  H   H448      1.0  0.16786  0.58331  0.90148  1.0000
  H   H449      1.0  0.13870  0.58315  0.96368  1.0000
  C   C262      1.0  0.28489  0.51314  0.86229  1.0000
  H   H450      1.0  0.05350  0.49899  0.59384  1.0000
  H   H451      1.0  0.03790  0.78554  0.56901  1.0000
  C   C263      1.0  0.06552  0.69991  0.48471  1.0000
  H   H452      1.0  0.30478  0.92035  0.72909  1.0000
  H   H453      1.0  0.08763  0.49883  0.84273  1.0000
  H   H454      1.0  0.19162  0.82547  0.47968  1.0000
  H   H455      1.0  0.09508  0.65330  0.51272  1.0000
  C   C264      1.0  0.07728  0.52443  0.70673  1.0000
  H   H456      1.0  0.19212  0.54668  0.91780  1.0000
  N   N14       1.0  0.10188  0.52297  0.69279  1.0000
  H   H457      1.0  0.17117  0.62085  0.92189  1.0000
  H   H458      1.0  0.14659  0.86477  0.48044  1.0000
  C   C265      1.0  0.07097  0.54435  0.72294  1.0000
  C   C266      1.0  0.11942  0.52179  0.71166  1.0000
  H   H459      1.0  0.06914  0.76842  0.49647  1.0000
  N   N15       1.0  0.31249  0.94577  0.64015  1.0000
  C   C267      1.0  0.04466  0.54699  0.73277  1.0000
  H   H460      1.0  0.07493  0.50717  0.71954  1.0000
  H   H461      1.0  0.06342  0.52673  0.69372  1.0000
  C   C268      1.0  0.32204  0.73797  0.86695  1.0000
  H   H462      1.0  0.10565  0.70562  0.50467  1.0000
  H   H463      1.0  0.07130  0.49678  0.67320  1.0000
  H   H464      1.0  0.16611  0.79137  0.56672  1.0000
  H   H465      1.0  0.16414  0.94734  0.52176  1.0000
  H   H466      1.0  0.13509  0.83613  0.55050  1.0000
  H   H467      1.0  0.08105  0.53992  0.73968  1.0000
  H   H468      1.0  0.07538  0.56180  0.71211  1.0000
  H   H469      1.0  0.19828  0.78243  0.50683  1.0000
  Fe  Fe32      1.0  0.27012  0.95983  0.51084  1.0000
  S   S64       1.0  0.99474  0.66659  0.59845  1.0000
  C   C269      1.0  0.15551  0.57913  0.91879  1.0000
  C   C270      1.0  0.31354  0.96959  0.54824  1.0000
  H   H470      1.0  0.04078  0.56135  0.74426  1.0000
  H   H471      1.0  0.03341  0.55177  0.71699  1.0000
  H   H472      1.0  0.04000  0.53010  0.74481  1.0000
  C   C271      1.0  0.03863  0.80175  0.55419  1.0000
  H   H473      1.0  0.17726  0.83921  0.51487  1.0000
  S   S65       1.0  0.30824  0.55553  0.95235  1.0000
  C   C272      1.0  0.10703  0.49991  0.68259  1.0000
  H   H474      1.0  0.32194  0.90671  0.49144  1.0000
  H   H475      1.0  0.19019  0.77573  0.55046  1.0000
  C   C273      1.0  0.14609  0.51672  0.70211  1.0000
  C   C274      1.0  0.02516  0.56566  0.61737  1.0000
  H   H476      1.0  0.32569  0.55071  0.83425  1.0000
  Fe  Fe33      1.0  0.01946  0.63271  0.59574  1.0000
  H   H477      1.0  0.03943  0.81746  0.56294  1.0000
  H   H478      1.0  0.21753  0.81226  0.51194  1.0000
  H   H479      1.0  0.12498  0.49837  0.67202  1.0000
  C   C275      1.0  0.32000  0.58000  0.85410  1.0000
  H   H480      1.0  0.30397  0.89927  0.70883  1.0000
  C   C276      1.0  0.15340  0.56807  0.96532  1.0000
  H   H481      1.0  0.16325  0.75266  0.53503  1.0000
  H   H482      1.0  0.30123  0.92464  0.59730  1.0000
  C   C277      1.0  0.02289  0.71745  0.47892  1.0000
  C   C278      1.0  0.01710  0.80580  0.53930  1.0000
  H   H483      1.0  0.22865  0.67571  0.93909  1.0000
  H   H484      1.0  0.29834  0.54560  0.88684  1.0000
  H   H485      1.0  0.24700  0.64747  0.93840  1.0000
  H   H486      1.0  0.09974  0.58769  0.63885  1.0000
  H   H487      1.0  0.19699  0.58050  0.95810  1.0000
  H   H488      1.0  0.18928  0.64608  0.94341  1.0000
  H   H489      1.0  0.14463  0.59637  0.92128  1.0000
  H   H490      1.0  0.26865  0.67708  0.94991  1.0000
  H   H491      1.0  0.01771  0.78985  0.53068  1.0000
  C   C279      1.0  0.29840  0.91806  0.71140  1.0000
  H   H492      1.0  0.10270  0.50498  0.89308  1.0000
  C   C280      1.0  0.29069  0.50676  0.91833  1.0000
  C   C281      1.0  0.26495  0.94033  0.59664  1.0000
  H   H493      1.0  0.05509  0.79890  0.54133  1.0000
  H   H494      1.0  0.07333  0.54349  0.65284  1.0000
  H   H495      1.0  0.02716  0.57538  0.59830  1.0000
  C   C282      1.0  0.31290  0.55676  0.84950  1.0000
  C   C283      1.0  0.05746  0.49035  0.57695  1.0000
  H   H496      1.0  0.14145  0.57519  0.87256  1.0000
  H   H497      1.0  0.05797  0.68336  0.49412  1.0000
  H   H498      1.0  0.07313  0.51319  0.88300  1.0000
  H   H499      1.0  0.29590  0.52285  0.92336  1.0000
  Fe  Fe34      1.0  0.16108  0.50738  0.82765  1.0000
  H   H500      1.0  0.15283  0.75340  0.59171  1.0000
  C   C284      1.0  0.17138  0.88637  0.48886  1.0000
  H   H501      1.0  0.29795  0.71546  0.90697  1.0000
  H   H502      1.0  0.26276  0.69749  0.92108  1.0000
  C   C285      1.0  0.18150  0.82332  0.52952  1.0000
  C   C286      1.0  0.18739  0.58612  0.94101  1.0000
  H   H503      1.0  0.30095  0.91382  0.66344  1.0000
  C   C287      1.0  0.08333  0.55637  0.65820  1.0000
  S   S66       1.0  0.00272  0.67990  0.53699  1.0000
  C   C288      1.0  0.09715  0.66988  0.51929  1.0000
  H   H504      1.0  0.30687  0.74034  0.85549  1.0000
  H   H505      1.0  0.21840  0.50832  0.93255  1.0000
  H   H506      1.0  0.11145  0.55874  0.67947  1.0000
  H   H507      1.0  0.31868  0.66234  0.94987  1.0000
  H   H508      1.0  0.10277  0.56371  0.62093  1.0000
  H   H509      1.0  0.24982  0.53912  0.83204  1.0000
  H   H510      1.0  0.12464  0.68314  0.49137  1.0000
  H   H511      1.0  0.06784  0.49226  0.76525  1.0000
  C   C289      1.0  0.15695  0.76248  0.55076  1.0000
  C   C290      1.0  0.15738  0.96569  0.52517  1.0000
  H   H512      1.0  0.28080  0.93985  0.66599  1.0000
  C   C291      1.0  0.18039  0.79232  0.50354  1.0000
  H   H513      1.0  0.10771  0.65026  0.55509  1.0000
  H   H514      1.0  0.20119  0.58537  0.92467  1.0000
  N   N16       1.0  0.30868  0.51300  0.87159  1.0000
  H   H515      1.0  0.99967  0.62016  0.50741  1.0000
  H   H516      1.0  0.21198  0.62536  0.93016  1.0000
  S   S67       1.0  0.02644  0.60840  0.63283  1.0000
  H   H517      1.0  0.22882  0.50424  0.96299  1.0000
  C   C292      1.0  0.24436  0.66648  0.92903  1.0000
  H   H518      1.0  0.11985  0.53916  0.65769  1.0000
  C   C293      1.0  0.10528  0.54421  0.67207  1.0000
  N   N17       1.0  0.16955  0.56925  0.94097  1.0000
  C   C294      1.0  0.14239  0.97921  0.50437  1.0000
  S   S68       1.0  0.02143  0.49693  0.65140  1.0000
  C   C295      1.0  0.28696  0.93184  0.61075  1.0000
  C   C296      1.0  0.11917  0.49872  0.78789  1.0000
  H   H519      1.0  0.16982  0.77869  0.50023  1.0000
  C   C297      1.0  0.11468  0.66344  0.53918  1.0000
  C   C298      1.0  0.30634  0.70191  0.89532  1.0000
  H   H520      1.0  0.30750  0.58717  0.86902  1.0000
  H   H521      1.0  0.11700  0.67953  0.54655  1.0000
  N   N18       1.0  0.16923  0.80285  0.52626  1.0000
  C   C299      1.0  0.14363  0.81216  0.52265  1.0000
  H   H522      1.0  0.15062  0.49784  0.69951  1.0000
  H   H523      1.0  0.27868  0.96324  0.62776  1.0000
  H   H524      1.0  0.11450  0.56266  0.88512  1.0000
  S   S69       1.0  0.20699  0.49078  0.87880  1.0000
  H   H525      1.0  0.16377  0.88601  0.50813  1.0000
  H   H526      1.0  0.06424  0.71096  0.49961  1.0000
  H   H527      1.0  0.21389  0.80442  0.54572  1.0000
  H   H528      1.0  0.31586  0.66825  0.86379  1.0000
  H   H529      1.0  0.01939  0.77318  0.48576  1.0000
  H   H530      1.0  0.15891  0.53940  0.72395  1.0000
  H   H531      1.0  0.27172  0.52716  0.86951  1.0000
  H   H532      1.0  0.13649  0.53689  0.96062  1.0000
  H   H533      1.0  0.07079  0.56695  0.67041  1.0000
  H   H534      1.0  0.13771  0.76861  0.55005  1.0000
  H   H535      1.0  0.02509  0.53178  0.60616  1.0000
  S   S70       1.0  0.30154  0.94926  0.53430  1.0000
  H   H536      1.0  0.09484  0.81424  0.53453  1.0000
  H   H537      1.0  0.27255  0.51107  0.91224  1.0000
  H   H538      1.0  0.10171  0.84450  0.52402  1.0000
  H   H539      1.0  0.21143  0.84781  0.54851  1.0000
  H   H540      1.0  0.26817  0.95559  0.58122  1.0000
  S   S71       1.0  0.13058  0.51858  0.80291  1.0000
  C   C300      1.0  0.10255  0.82899  0.53973  1.0000
  H   H541      1.0  0.13473  0.79858  0.51674  1.0000
  C   C301      1.0  0.12821  0.82081  0.54556  1.0000
  H   H542      1.0  0.12779  0.80637  0.56227  1.0000
  H   H543      1.0  0.21554  0.85499  0.51455  1.0000
  H   H544      1.0  0.30264  0.96460  0.60371  1.0000
  C   C302      1.0  0.32110  0.96843  0.64336  1.0000
  H   H545      1.0  0.02263  0.72473  0.49641  1.0000
  H   H546      1.0  0.30405  0.95354  0.69343  1.0000
  S   S72       1.0  0.26808  0.93982  0.47946  1.0000
  H   H547      1.0  0.04418  0.48659  0.81004  1.0000
  H   H548      1.0  0.14940  0.72970  0.57573  1.0000
  S   S73       1.0  0.31314  0.60958  0.96237  1.0000
  H   H549      1.0  0.29309  0.70168  0.88211  1.0000
  H   H550      1.0  0.01925  0.82138  0.52399  1.0000
  C   C303      1.0  0.21918  0.84088  0.53115  1.0000
  H   H551      1.0  0.27794  0.49595  0.95718  1.0000
  C   C304      1.0  0.31258  0.53784  0.87387  1.0000
  H   H552      1.0  0.14642  0.96436  0.54362  1.0000
  C   C305      1.0  0.09239  0.51063  0.87651  1.0000
  C   C306      1.0  0.16192  0.52053  0.72116  1.0000
  H   H553      1.0  0.19952  0.49776  0.96065  1.0000
  H   H554      1.0  0.11706  0.49099  0.85284  1.0000
  H   H555      1.0  0.05373  0.50412  0.56013  1.0000
  C   C307      1.0  0.09781  0.49211  0.85921  1.0000
  C   C308      1.0  0.19093  0.89890  0.47975  1.0000
  H   H556      1.0  0.31750  0.74909  0.88187  1.0000
  H   H557      1.0  0.04596  0.80438  0.47978  1.0000
  H   H558      1.0  0.99775  0.64802  0.65699  1.0000
  H   H559      1.0  0.99421  0.79695  0.57406  1.0000
  H   H560      1.0  0.01532  0.70027  0.48351  1.0000
  H   H561      1.0  0.99676  0.62573  0.68535  1.0000
  C   C309      1.0  0.28985  0.48811  0.94236  1.0000
  H   H562      1.0  0.32680  0.49610  0.90410  1.0000
  C   C310      1.0  0.32562  0.65347  0.87625  1.0000
  C   C311      1.0  0.18249  0.81019  0.47835  1.0000
  C   C312      1.0  0.15763  0.98293  0.47869  1.0000
  C   C313      1.0  0.55232  0.24700  0.03990  1.0000
  C   C314      1.0  0.62372  0.46673  0.00331  1.0000
  C   C315      1.0  0.33256  0.01938  0.44508  1.0000
  H   H563      1.0  0.62083  0.04401  0.29748  1.0000
  H   H564      1.0  0.48833  0.13611  0.02165  1.0000
  C   C316      1.0  0.36183  0.47247  0.98181  1.0000
  S   S74       1.0  0.39188  0.01218  0.24803  1.0000
  Fe  Fe35      1.0  0.49048  0.07069  0.15729  1.0000
  S   S75       1.0  0.52769  0.08034  0.15302  1.0000
  S   S76       1.0  0.46097  0.08336  0.18490  1.0000
  Fe  Fe36      1.0  0.49979  0.04285  0.11501  1.0000
  S   S77       1.0  0.53779  0.04894  0.10745  1.0000
  C   C317      1.0  0.42690  0.02245  0.15715  1.0000
  Fe  Fe37      1.0  0.53790  0.04198  0.14918  1.0000
  S   S78       1.0  0.56825  0.01701  0.16512  1.0000
  Fe  Fe38      1.0  0.52461  0.08688  0.11136  1.0000
  S   S79       1.0  0.54215  0.11354  0.08116  1.0000
  S   S80       1.0  0.50104  0.03175  0.15658  1.0000
  S   S81       1.0  0.48639  0.08125  0.11602  1.0000
  H   H565      1.0  0.64558  0.00988  0.26623  1.0000
  H   H566      1.0  0.65147  0.98486  0.17745  1.0000
  H   H567      1.0  0.43619  0.43150  0.04466  1.0000
  H   H568      1.0  0.46177  0.09061  0.00211  1.0000
  C   C318      1.0  0.58855  0.99831  0.23496  1.0000
  C   C319      1.0  0.58403  0.99791  0.21051  1.0000
  C   C320      1.0  0.57279  0.01823  0.19605  1.0000
  C   C321      1.0  0.56599  0.03907  0.20627  1.0000
  C   C322      1.0  0.57064  0.03947  0.23092  1.0000
  H   H569      1.0  0.52234  0.99451  0.25737  1.0000
  H   H570      1.0  0.55744  0.05490  0.19511  1.0000
  C   C323      1.0  0.41183  0.03138  0.23081  1.0000
  C   C324      1.0  0.43622  0.02374  0.22663  1.0000
  C   C325      1.0  0.45137  0.03914  0.21142  1.0000
  C   C326      1.0  0.44231  0.06254  0.20132  1.0000
  C   C327      1.0  0.41806  0.07023  0.20600  1.0000
  C   C328      1.0  0.40282  0.05456  0.22015  1.0000
  H   H571      1.0  0.47008  0.03308  0.20794  1.0000
  H   H572      1.0  0.41097  0.08834  0.19846  1.0000
  H   H573      1.0  0.38402  0.06058  0.22322  1.0000
  S   S82       1.0  0.64319  0.38018  0.00867  1.0000
  C   C329      1.0  0.63993  0.04746  0.24974  1.0000
  H   H574      1.0  0.62070  0.43150  0.99697  1.0000
  C   C330      1.0  0.60734  0.03181  0.34778  1.0000
  H   H575      1.0  0.42473  0.06108  0.14927  1.0000
  C   C331      1.0  0.56154  0.17485  0.09328  1.0000
  H   H576      1.0  0.64731  0.44644  0.08267  1.0000
  C   C332      1.0  0.63205  0.03448  0.33397  1.0000
  H   H577      1.0  0.51844  0.12970  0.98502  1.0000
  H   H578      1.0  0.40279  0.00600  0.39529  1.0000
  H   H579      1.0  0.65465  0.06677  0.28995  1.0000
  H   H580      1.0  0.59552  0.38361  0.98644  1.0000
  H   H581      1.0  0.36147  0.47134  0.00183  1.0000
  C   C333      1.0  0.50082  0.17868  0.03611  1.0000
  C   C334      1.0  0.49027  0.16718  0.05906  1.0000
  C   C335      1.0  0.50246  0.14673  0.07280  1.0000
  C   C336      1.0  0.52541  0.13792  0.06379  1.0000
  C   C337      1.0  0.53583  0.14926  0.04074  1.0000
  C   C338      1.0  0.52351  0.16943  0.02684  1.0000
  H   H582      1.0  0.47268  0.17421  0.06632  1.0000
  H   H583      1.0  0.49435  0.13817  0.09065  1.0000
  H   H584      1.0  0.55358  0.14247  0.03368  1.0000
  H   H585      1.0  0.53172  0.17796  0.00914  1.0000
  H   H586      1.0  0.60652  0.03607  0.36692  1.0000
  H   H587      1.0  0.49054  0.08452  0.98704  1.0000
  C   C339      1.0  0.43484  0.04551  0.14171  1.0000
  H   H588      1.0  0.40755  0.02375  0.15596  1.0000
  H   H589      1.0  0.34953  0.45252  0.05180  1.0000
  H   H590      1.0  0.59352  0.04411  0.33748  1.0000
  C   C340      1.0  0.49810  0.98757  0.06559  1.0000
  H   H591      1.0  0.43170  0.04723  0.12172  1.0000
  H   H592      1.0  0.45393  0.04582  0.14281  1.0000
  N   N19       1.0  0.48966  0.09833  0.02143  1.0000
  C   C341      1.0  0.47726  0.09606  0.04784  1.0000
  C   C342      1.0  0.51624  0.09213  0.02208  1.0000
  H   H593      1.0  0.63116  0.02620  0.22391  1.0000
  H   H594      1.0  0.43473  0.00239  0.12753  1.0000
  C   C343      1.0  0.48117  0.05633  0.01662  1.0000
  C   C344      1.0  0.44985  0.10255  0.05004  1.0000
  C   C345      1.0  0.48477  0.12422  0.00903  1.0000
  C   C346      1.0  0.52521  0.07181  0.04319  1.0000
  C   C347      1.0  0.55206  0.06488  0.03869  1.0000
  C   C348      1.0  0.43919  0.09825  0.07746  1.0000
  C   C349      1.0  0.42469  0.40335  0.99677  1.0000
  H   H595      1.0  0.48457  0.10754  0.05850  1.0000
  H   H596      1.0  0.48093  0.07770  0.05857  1.0000
  H   H597      1.0  0.52477  0.08785  0.00365  1.0000
  H   H598      1.0  0.52417  0.10788  0.02482  1.0000
  H   H599      1.0  0.55244  0.25617  0.05606  1.0000
  H   H600      1.0  0.56542  0.05553  0.23885  1.0000
  C   C350      1.0  0.59782  0.25789  0.05138  1.0000
  C   C351      1.0  0.57510  0.21083  0.06291  1.0000
  H   H601      1.0  0.47335  0.05282  0.03644  1.0000
  H   H602      1.0  0.49978  0.04755  0.01509  1.0000
  H   H603      1.0  0.44473  0.12168  0.04238  1.0000
  H   H604      1.0  0.44156  0.09147  0.03994  1.0000
  H   H605      1.0  0.52554  0.22861  0.02813  1.0000
  H   H606      1.0  0.45943  0.00160  0.14410  1.0000
  H   H607      1.0  0.52139  0.07806  0.06148  1.0000
  H   H608      1.0  0.51660  0.05555  0.04506  1.0000
  H   H609      1.0  0.55805  0.05026  0.05392  1.0000
  H   H610      1.0  0.55687  0.05850  0.02050  1.0000
  H   H611      1.0  0.56149  0.08040  0.03870  1.0000
  H   H612      1.0  0.44599  0.10988  0.08823  1.0000
  H   H613      1.0  0.41956  0.10254  0.07847  1.0000
  H   H614      1.0  0.44360  0.07926  0.08622  1.0000
  H   H615      1.0  0.55337  0.28609  0.98056  1.0000
  H   H616      1.0  0.62602  0.01271  0.30765  1.0000
  H   H617      1.0  0.39938  0.27966  0.98684  1.0000
  N   N20       1.0  0.48246  0.05844  0.27363  1.0000
  C   C352      1.0  0.48786  0.03398  0.26658  1.0000
  C   C353      1.0  0.46452  0.05725  0.29655  1.0000
  C   C354      1.0  0.47293  0.07590  0.25170  1.0000
  C   C355      1.0  0.50448  0.06674  0.27974  1.0000
  C   C356      1.0  0.51946  0.04882  0.29861  1.0000
  C   C357      1.0  0.50766  0.03131  0.24463  1.0000
  C   C358      1.0  0.46309  0.10132  0.25688  1.0000
  C   C359      1.0  0.43970  0.05130  0.29300  1.0000
  C   C360      1.0  0.42225  0.05357  0.31639  1.0000
  C   C361      1.0  0.54076  0.05952  0.30387  1.0000
  N   N21       1.0  0.65777  0.02861  0.29202  1.0000
  C   C362      1.0  0.45392  0.11737  0.23343  1.0000
  H   H618      1.0  0.47175  0.02877  0.26078  1.0000
  H   H619      1.0  0.49241  0.02018  0.28323  1.0000
  H   H620      1.0  0.47126  0.04338  0.31207  1.0000
  H   H621      1.0  0.46210  0.07415  0.30414  1.0000
  H   H622      1.0  0.45876  0.06880  0.24440  1.0000
  H   H623      1.0  0.48698  0.07812  0.23557  1.0000
  H   H624      1.0  0.51643  0.07183  0.26230  1.0000
  H   H625      1.0  0.49966  0.08333  0.28785  1.0000
  H   H626      1.0  0.52656  0.03227  0.29111  1.0000
  H   H627      1.0  0.50871  0.04394  0.31682  1.0000
  H   H628      1.0  0.50201  0.04211  0.22673  1.0000
  H   H629      1.0  0.59348  0.24954  0.07125  1.0000
  H   H630      1.0  0.47714  0.10987  0.26257  1.0000
  H   H631      1.0  0.44803  0.10083  0.27188  1.0000
  H   H632      1.0  0.43180  0.06343  0.27696  1.0000
  H   H633      1.0  0.44097  0.03269  0.28971  1.0000
  H   H634      1.0  0.40473  0.04921  0.31334  1.0000
  H   H635      1.0  0.42869  0.04098  0.33301  1.0000
  H   H636      1.0  0.41985  0.07208  0.32021  1.0000
  C   C363      1.0  0.48034  0.08335  0.00592  1.0000
  H   H637      1.0  0.55239  0.06433  0.28619  1.0000
  H   H638      1.0  0.53480  0.07562  0.31257  1.0000
  H   H639      1.0  0.55313  0.26108  0.02277  1.0000
  H   H640      1.0  0.50996  0.27220  0.02407  1.0000
  Fe  Fe39      1.0  0.64626  0.34524  0.99498  1.0000
  H   H641      1.0  0.46837  0.11897  0.21773  1.0000
  H   H642      1.0  0.43913  0.11000  0.22748  1.0000
  H   H643      1.0  0.44719  0.13548  0.23753  1.0000
  H   H644      1.0  0.40859  0.41643  0.99261  1.0000
  H   H645      1.0  0.39761  0.99940  0.19152  1.0000
  C   C364      1.0  0.59558  0.24091  0.03312  1.0000
  C   C365      1.0  0.49601  0.99592  0.08833  1.0000
  C   C366      1.0  0.34413  0.41621  0.06622  1.0000
  C   C367      1.0  0.43036  0.40494  0.02349  1.0000
  C   C368      1.0  0.58003  0.30357  0.99201  1.0000
  H   H646      1.0  0.37492  0.36078  0.99338  1.0000
  H   H647      1.0  0.52424  0.03717  0.24809  1.0000
  C   C369      1.0  0.37253  0.34058  0.03075  1.0000
  H   H648      1.0  0.52598  0.00418  0.22381  1.0000
  H   H649      1.0  0.43017  0.02158  0.17687  1.0000
  H   H650      1.0  0.60306  0.18849  0.02531  1.0000
  S   S83       1.0  0.48311  0.02536  0.08950  1.0000
  C   C370      1.0  0.56260  0.18812  0.06609  1.0000
  C   C371      1.0  0.51357  0.00534  0.24111  1.0000
  H   H651      1.0  0.57252  0.17562  0.05409  1.0000
  H   H652      1.0  0.54426  0.19217  0.06081  1.0000
  H   H653      1.0  0.62792  0.05785  0.21248  1.0000
  H   H654      1.0  0.59393  0.20410  0.06617  1.0000
  H   H655      1.0  0.36701  0.01871  0.47425  1.0000
  H   H656      1.0  0.52453  0.22697  0.06179  1.0000
  H   H657      1.0  0.60345  0.01319  0.34972  1.0000
  C   C372      1.0  0.58161  0.01890  0.24540  1.0000
  H   H658      1.0  0.56744  0.31353  0.00396  1.0000
  H   H659      1.0  0.58557  0.27472  0.04707  1.0000
  H   H660      1.0  0.65335  0.00244  0.39111  1.0000
  H   H661      1.0  0.45034  0.36054  0.01316  1.0000
  C   C373      1.0  0.44448  0.36305  0.99406  1.0000
  H   H662      1.0  0.36134  0.32837  0.02573  1.0000
  H   H663      1.0  0.38419  0.33011  0.04487  1.0000
  H   H664      1.0  0.41483  0.44212  0.02213  1.0000
  C   C374      1.0  0.63910  0.04281  0.22318  1.0000
  S   S84       1.0  0.61349  0.32588  0.00688  1.0000
  C   C375      1.0  0.47047  0.32524  0.98480  1.0000
  H   H665      1.0  0.64801  0.06412  0.24802  1.0000
  H   H666      1.0  0.39824  0.33669  0.99908  1.0000
  H   H667      1.0  0.36063  0.35478  0.03908  1.0000
  H   H668      1.0  0.38915  0.38445  0.01822  1.0000
  H   H669      1.0  0.38124  0.00251  0.43865  1.0000
  H   H670      1.0  0.55262  0.99585  0.07923  1.0000
  H   H671      1.0  0.33136  0.40571  0.07921  1.0000
  H   H672      1.0  0.59580  0.98610  0.12687  1.0000
  C   C376      1.0  0.46736  0.04424  0.00156  1.0000
  H   H673      1.0  0.57969  0.16945  0.09924  1.0000
  H   H674      1.0  0.62128  0.05065  0.25793  1.0000
  C   C377      1.0  0.38739  0.35145  0.00715  1.0000
  H   H675      1.0  0.62695  0.43291  0.05205  1.0000
  H   H676      1.0  0.55297  0.15847  0.09493  1.0000
  H   H677      1.0  0.37450  0.99066  0.17843  1.0000
  C   C378      1.0  0.44003  0.00033  0.14681  1.0000
  H   H678      1.0  0.34039  0.98857  0.35329  1.0000
  H   H679      1.0  0.55086  0.18620  0.10608  1.0000
  H   H680      1.0  0.44827  0.05168  0.00300  1.0000
  H   H681      1.0  0.65722  0.04114  0.21303  1.0000
  C   C379      1.0  0.62297  0.26465  0.04861  1.0000
  C   C380      1.0  0.57279  0.21626  0.01617  1.0000
  H   H682      1.0  0.59660  0.25165  0.01378  1.0000
  C   C381      1.0  0.63356  0.02965  0.30685  1.0000
  H   H683      1.0  0.57456  0.00944  0.09049  1.0000
  C   C382      1.0  0.57202  0.28805  0.97881  1.0000
  H   H684      1.0  0.56798  0.22015  0.07895  1.0000
  Fe  Fe40      1.0  0.40477  0.98644  0.28162  1.0000
  C   C383      1.0  0.52757  0.23843  0.04315  1.0000
  H   H685      1.0  0.49229  0.99942  0.04894  1.0000
  S   S85       1.0  0.35657  0.42524  0.99302  1.0000
  C   C384      1.0  0.43202  0.43075  0.02550  1.0000
  C   C385      1.0  0.40253  0.36948  0.01308  1.0000
  H   H686      1.0  0.49033  0.25291  0.04367  1.0000
  H   H687      1.0  0.51378  0.00030  0.32410  1.0000
  H   H688      1.0  0.40099  0.21812  0.98989  1.0000
  H   H689      1.0  0.44327  0.00583  0.23455  1.0000
  H   H690      1.0  0.46571  0.12907  0.00588  1.0000
  H   H691      1.0  0.49719  0.99795  0.23931  1.0000
  S   S86       1.0  0.48534  0.20461  0.01961  1.0000
  H   H692      1.0  0.63532  0.05308  0.33356  1.0000
  H   H693      1.0  0.55136  0.04613  0.31701  1.0000
  C   C386      1.0  0.50781  0.25955  0.04213  1.0000
  H   H694      1.0  0.34596  0.41073  0.04754  1.0000
  C   C387      1.0  0.60421  0.30644  0.98971  1.0000
  H   H695      1.0  0.41636  0.39856  0.03822  1.0000
  H   H696      1.0  0.50788  0.26915  0.05795  1.0000
  N   N22       1.0  0.57368  0.22823  0.03831  1.0000
  H   H697      1.0  0.63582  0.24876  0.05479  1.0000
  H   H698      1.0  0.36171  0.41200  0.07371  1.0000
  H   H699      1.0  0.44761  0.39422  0.02776  1.0000
  S   S87       1.0  0.58652  0.01842  0.27662  1.0000
  H   H700      1.0  0.43573  0.32647  0.00465  1.0000
  H   H701      1.0  0.61195  0.22771  0.03355  1.0000
  H   H702      1.0  0.47046  0.99592  0.18719  1.0000
  N   N23       1.0  0.42103  0.37896  0.99263  1.0000
  H   H703      1.0  0.41094  0.36117  0.03055  1.0000
  H   H704      1.0  0.64497  0.02200  0.34508  1.0000
  H   H705      1.0  0.36387  0.99047  0.40330  1.0000
  H   H706      1.0  0.64897  0.40705  0.05116  1.0000
  C   C388      1.0  0.40182  0.98666  0.39668  1.0000
  S   S88       1.0  0.39899  0.99523  0.32067  1.0000
  H   H707      1.0  0.55791  0.20540  0.01937  1.0000
  H   H708      1.0  0.45864  0.37182  0.98128  1.0000
  S   S89       1.0  0.46410  0.99657  0.33621  1.0000
  H   H709      1.0  0.34827  0.02634  0.43362  1.0000
  C   C389      1.0  0.65435  0.02600  0.26564  1.0000
  H   H710      1.0  0.46879  0.02480  0.00922  1.0000
  C   C390      1.0  0.63968  0.41992  0.06306  1.0000
  H   H711      1.0  0.62953  0.40994  0.07944  1.0000
  H   H712      1.0  0.33054  0.02458  0.46389  1.0000
  H   H713      1.0  0.61372  0.46448  0.02164  1.0000
  Fe  Fe41      1.0  0.50095  0.22127  0.98108  1.0000
  H   H714      1.0  0.47978  0.32410  0.00173  1.0000
  C   C391      1.0  0.44502  0.33759  0.98849  1.0000
  C   C392      1.0  0.62759  0.44817  0.98931  1.0000
  H   H715      1.0  0.33414  0.44719  0.08319  1.0000
  H   H716      1.0  0.44627  0.43802  0.01162  1.0000
  H   H717      1.0  0.49454  0.16963  0.98469  1.0000
  C   C393      1.0  0.33431  0.99195  0.44807  1.0000
  H   H718      1.0  0.62845  0.27236  0.02877  1.0000
  C   C394      1.0  0.49913  0.13162  0.98316  1.0000
  H   H719      1.0  0.62356  0.27826  0.06038  1.0000
  H   H720      1.0  0.56888  0.22996  0.99923  1.0000
  H   H721      1.0  0.43954  0.41034  0.98359  1.0000
  H   H722      1.0  0.33143  0.98754  0.42984  1.0000
  H   H723      1.0  0.47018  0.30684  0.98150  1.0000
  C   C395      1.0  0.59584  0.20017  0.00860  1.0000
  C   C396      1.0  0.57054  0.99256  0.08597  1.0000
  C   C397      1.0  0.65746  0.43278  0.07221  1.0000
  H   H724      1.0  0.60960  0.21145  0.99887  1.0000
  H   H725      1.0  0.57800  0.17266  0.99901  1.0000
  C   C398      1.0  0.33566  0.44295  0.06404  1.0000
  C   C399      1.0  0.59159  0.18451  0.99037  1.0000
  H   H726      1.0  0.50198  0.98694  0.12747  1.0000
  H   H727      1.0  0.60838  0.17319  0.98545  1.0000
  H   H728      1.0  0.58374  0.98713  0.07064  1.0000
  H   H729      1.0  0.47470  0.04670  0.98147  1.0000
  C   C400      1.0  0.37854  0.98364  0.43996  1.0000
  H   H730      1.0  0.63330  0.98406  0.13921  1.0000
  C   C401      1.0  0.39196  0.98390  0.18577  1.0000
  H   H731      1.0  0.43302  0.98385  0.20013  1.0000
  Fe  Fe42      1.0  0.49049  0.26251  0.93869  1.0000
  S   S90       1.0  0.52348  0.25135  0.91416  1.0000
  C   C402      1.0  0.48374  0.02816  0.62857  1.0000
  S   S91       1.0  0.53479  0.20723  0.96029  1.0000
  Fe  Fe43      1.0  0.54160  0.24550  0.94948  1.0000
  S   S92       1.0  0.57921  0.25463  0.94729  1.0000
  Fe  Fe44      1.0  0.51400  0.21409  0.92669  1.0000
  S   S93       1.0  0.52128  0.18415  0.90377  1.0000
  S   S94       1.0  0.47944  0.22568  0.94835  1.0000
  C   C403      1.0  0.50841  0.21038  0.79526  1.0000
  C   C404      1.0  0.44748  0.26625  0.88310  1.0000
  S   S95       1.0  0.35756  0.38428  0.94333  1.0000
  C   C405      1.0  0.60167  0.02356  0.53785  1.0000
  C   C406      1.0  0.43055  0.24810  0.88131  1.0000
  S   S96       1.0  0.41091  0.01888  0.60267  1.0000
  C   C407      1.0  0.52506  0.01943  0.55673  1.0000
  Fe  Fe45      1.0  0.40968  0.02411  0.64287  1.0000
  S   S97       1.0  0.42549  0.05576  0.64996  1.0000
  S   S98       1.0  0.64354  0.42917  0.94677  1.0000
  H   H732      1.0  0.59023  0.37458  0.83766  1.0000
  H   H733      1.0  0.56990  0.17800  0.75809  1.0000
  H   H734      1.0  0.43665  0.33774  0.97127  1.0000
  C   C408      1.0  0.50155  0.03224  0.56705  1.0000
  H   H735      1.0  0.55994  0.33539  0.94958  1.0000
  Fe  Fe46      1.0  0.56844  0.02018  0.64455  1.0000
  S   S99       1.0  0.60606  0.01283  0.65410  1.0000
  S   S100      1.0  0.54036  0.05013  0.65316  1.0000
  Fe  Fe47      1.0  0.61571  0.00752  0.61394  1.0000
  N   N24       1.0  0.41001  0.24585  0.90167  1.0000
  H   H736      1.0  0.43993  0.04900  0.54812  1.0000
  H   H737      1.0  0.42958  0.33379  0.91111  1.0000
  S   S101      1.0  0.57833  0.01812  0.60384  1.0000
  H   H738      1.0  0.46853  0.02879  0.66734  1.0000
  Fe  Fe48      1.0  0.47771  0.07617  0.81287  1.0000
  S   S102      1.0  0.44442  0.10223  0.81132  1.0000
  S   S103      1.0  0.48409  0.04176  0.84011  1.0000
  Fe  Fe49      1.0  0.50325  0.10437  0.76754  1.0000
  S   S104      1.0  0.47208  0.13303  0.76165  1.0000
  S   S105      1.0  0.53965  0.10136  0.74606  1.0000
  Fe  Fe50      1.0  0.46899  0.13047  0.80387  1.0000
  S   S106      1.0  0.46140  0.16433  0.82110  1.0000
  Fe  Fe51      1.0  0.45011  0.10248  0.76952  1.0000
  S   S107      1.0  0.41834  0.09848  0.75034  1.0000
  S   S108      1.0  0.50180  0.10412  0.80887  1.0000
  S   S109      1.0  0.48165  0.07442  0.77182  1.0000
  C   C409      1.0  0.40185  0.23245  0.94992  1.0000
  H   H739      1.0  0.51787  0.15014  0.76049  1.0000
  N   N25       1.0  0.53362  0.17593  0.77512  1.0000
  H   H740      1.0  0.48263  0.23770  0.77650  1.0000
  H   H741      1.0  0.52041  0.11134  0.63091  1.0000
  C   C410      1.0  0.47609  0.01968  0.82597  1.0000
  C   C411      1.0  0.48426  0.22591  0.79507  1.0000
  H   H742      1.0  0.48672  0.10068  0.57072  1.0000
  H   H743      1.0  0.57732  0.40159  0.88214  1.0000
  H   H744      1.0  0.56116  0.04746  0.76709  1.0000
  C   C412      1.0  0.46032  0.02634  0.80760  1.0000
  C   C413      1.0  0.42004  0.23769  0.92662  1.0000
  H   H745      1.0  0.57746  0.22830  0.77232  1.0000
  H   H746      1.0  0.35097  0.01167  0.51943  1.0000
  H   H747      1.0  0.45161  0.04448  0.80378  1.0000
  H   H748      1.0  0.61188  0.01846  0.71749  1.0000
  H   H749      1.0  0.46962  0.21463  0.79913  1.0000
  H   H750      1.0  0.49260  0.01904  0.58114  1.0000
  C   C414      1.0  0.60693  0.04926  0.53494  1.0000
  C   C415      1.0  0.54100  0.06463  0.67859  1.0000
  C   C416      1.0  0.51962  0.07600  0.68887  1.0000
  C   C417      1.0  0.51919  0.08733  0.70952  1.0000
  C   C418      1.0  0.54024  0.08784  0.71967  1.0000
  C   C419      1.0  0.56178  0.07702  0.70902  1.0000
  C   C420      1.0  0.56213  0.06511  0.68869  1.0000
  H   H751      1.0  0.50319  0.07548  0.68132  1.0000
  H   H752      1.0  0.50252  0.09571  0.71755  1.0000
  H   H753      1.0  0.57813  0.07743  0.71680  1.0000
  H   H754      1.0  0.57871  0.05651  0.68072  1.0000
  H   H755      1.0  0.48885  0.04925  0.72876  1.0000
  H   H756      1.0  0.56052  0.00143  0.73045  1.0000
  C   C421      1.0  0.42308  0.32206  0.92777  1.0000
  C   C422      1.0  0.45550  0.07715  0.55942  1.0000
  H   H757      1.0  0.47036  0.10119  0.60040  1.0000
  H   H758      1.0  0.59948  0.00663  0.76235  1.0000
  C   C423      1.0  0.55669  0.34360  0.92995  1.0000
  H   H759      1.0  0.59417  0.21360  0.79807  1.0000
  H   H760      1.0  0.48249  0.00019  0.66120  1.0000
  S   S110      1.0  0.34354  0.01965  0.58927  1.0000
  H   H761      1.0  0.56248  0.13720  0.83843  1.0000
  H   H762      1.0  0.59005  0.40604  0.83686  1.0000
  C   C424      1.0  0.42120  0.08446  0.72371  1.0000
  C   C425      1.0  0.40088  0.07788  0.71625  1.0000
  C   C426      1.0  0.40226  0.06771  0.69449  1.0000
  C   C427      1.0  0.42388  0.06480  0.67951  1.0000
  C   C428      1.0  0.44419  0.07143  0.68696  1.0000
  C   C429      1.0  0.44296  0.08080  0.70919  1.0000
  H   H763      1.0  0.38388  0.08120  0.72702  1.0000
  H   H764      1.0  0.38640  0.06328  0.68863  1.0000
  H   H765      1.0  0.46093  0.06967  0.67539  1.0000
  H   H766      1.0  0.45865  0.08606  0.71456  1.0000
  H   H767      1.0  0.52988  0.17019  0.68979  1.0000
  H   H768      1.0  0.44561  0.37764  0.94258  1.0000
  C   C430      1.0  0.36430  0.47461  0.92993  1.0000
  H   H769      1.0  0.47945  0.02074  0.74340  1.0000
  H   H770      1.0  0.62513  0.26731  0.94996  1.0000
  H   H771      1.0  0.55373  0.36942  0.88796  1.0000
  C   C431      1.0  0.50363  0.10838  0.62448  1.0000
  H   H772      1.0  0.37048  0.04197  0.74862  1.0000
  H   H773      1.0  0.54001  0.11842  0.83764  1.0000
  H   H774      1.0  0.62577  0.98869  0.72895  1.0000
  C   C432      1.0  0.58175  0.39002  0.84653  1.0000
  C   C433      1.0  0.50335  0.17848  0.88203  1.0000
  C   C434      1.0  0.50821  0.15664  0.87333  1.0000
  C   C435      1.0  0.49492  0.15176  0.85536  1.0000
  C   C436      1.0  0.47697  0.16889  0.84548  1.0000
  C   C437      1.0  0.47188  0.19064  0.85443  1.0000
  C   C438      1.0  0.48500  0.19540  0.87268  1.0000
  H   H775      1.0  0.52233  0.14340  0.88057  1.0000
  H   H776      1.0  0.49866  0.13479  0.84905  1.0000
  H   H777      1.0  0.45804  0.20399  0.84686  1.0000
  H   H778      1.0  0.48142  0.21227  0.87917  1.0000
  C   C439      1.0  0.36969  0.02690  0.76484  1.0000
  H   H779      1.0  0.50977  0.20027  0.81460  1.0000
  C   C440      1.0  0.49151  0.15771  0.97201  1.0000
  C   C441      1.0  0.37825  0.05670  0.79038  1.0000
  C   C442      1.0  0.46097  0.06333  0.58586  1.0000
  H   H780      1.0  0.38902  0.23438  0.87715  1.0000
  H   H781      1.0  0.39029  0.05985  0.80352  1.0000
  H   H782      1.0  0.38005  0.07028  0.77303  1.0000
  H   H783      1.0  0.35969  0.05901  0.79931  1.0000
  C   C443      1.0  0.48658  0.09201  0.59082  1.0000
  S   S111      1.0  0.42582  0.98643  0.65689  1.0000
  H   H784      1.0  0.49486  0.09572  0.63953  1.0000
  H   H785      1.0  0.41219  0.37815  0.91700  1.0000
  H   H786      1.0  0.42515  0.99809  0.75243  1.0000
  H   H787      1.0  0.49183  0.12564  0.62168  1.0000
  H   H788      1.0  0.37643  0.98958  0.52638  1.0000
  H   H789      1.0  0.51931  0.30232  0.92482  1.0000
  C   C444      1.0  0.53981  0.03824  0.80248  1.0000
  C   C445      1.0  0.43816  0.30218  0.93842  1.0000
  Fe  Fe52      1.0  0.65775  0.39462  0.96962  1.0000
  H   H790      1.0  0.55053  0.14938  0.70813  1.0000
  C   C446      1.0  0.33050  0.47572  0.85455  1.0000
  H   H791      1.0  0.45008  0.09638  0.56024  1.0000
  H   H792      1.0  0.65744  0.47605  0.93651  1.0000
  H   H793      1.0  0.56864  0.02940  0.73185  1.0000
  H   H794      1.0  0.53423  0.03164  0.54148  1.0000
  H   H795      1.0  0.46735  0.02345  0.62302  1.0000
  C   C447      1.0  0.48384  0.01957  0.65686  1.0000
  H   H796      1.0  0.56112  0.30707  0.92178  1.0000
  C   C448      1.0  0.53238  0.15946  0.70873  1.0000
  C   C449      1.0  0.39953  0.32671  0.93840  1.0000
  C   C450      1.0  0.55005  0.05584  0.81451  1.0000
  H   H797      1.0  0.52363  0.08347  0.60200  1.0000
  H   H798      1.0  0.51652  0.11275  0.58540  1.0000
  C   C451      1.0  0.61700  0.01054  0.51775  1.0000
  C   C452      1.0  0.55704  0.03072  0.78009  1.0000
  H   H799      1.0  0.45835  0.25914  0.89901  1.0000
  H   H800      1.0  0.56613  0.38794  0.92792  1.0000
  C   C453      1.0  0.43508  0.06800  0.55020  1.0000
  S   S112      1.0  0.64372  0.02478  0.58590  1.0000
  H   H801      1.0  0.52247  0.04708  0.79634  1.0000
  C   C454      1.0  0.49193  0.02981  0.72864  1.0000
  C   C455      1.0  0.54831  0.32363  0.91895  1.0000
  H   H802      1.0  0.40256  0.40905  0.91976  1.0000
  N   N26       1.0  0.48477  0.06568  0.59358  1.0000
  H   H803      1.0  0.52162  0.00388  0.54904  1.0000
  H   H804      1.0  0.36135  0.43698  0.93879  1.0000
  C   C456      1.0  0.36201  0.45290  0.94631  1.0000
  C   C457      1.0  0.46470  0.27043  0.85928  1.0000
  H   H805      1.0  0.47092  0.06483  0.63247  1.0000
  H   H806      1.0  0.53684  0.01268  0.57194  1.0000
  C   C458      1.0  0.55675  0.12472  0.82786  1.0000
  H   H807      1.0  0.53513  0.16806  0.81563  1.0000
  H   H808      1.0  0.54816  0.12352  0.79105  1.0000
  H   H809      1.0  0.56731  0.04775  0.82158  1.0000
  H   H810      1.0  0.43106  0.07870  0.53164  1.0000
  H   H811      1.0  0.34993  0.01695  0.71013  1.0000
  H   H812      1.0  0.51009  0.02190  0.77256  1.0000
  H   H813      1.0  0.59986  0.20303  0.76853  1.0000
  H   H814      1.0  0.52113  0.04876  0.58909  1.0000
  H   H815      1.0  0.63914  0.29496  0.97309  1.0000
  C   C459      1.0  0.56709  0.19379  0.79105  1.0000
  C   C460      1.0  0.48638  0.99585  0.83163  1.0000
  H   H816      1.0  0.57061  0.10900  0.82776  1.0000
  C   C461      1.0  0.53246  0.16151  0.75496  1.0000
  C   C462      1.0  0.55328  0.13692  0.80084  1.0000
  H   H817      1.0  0.48042  0.33505  0.96814  1.0000
  C   C463      1.0  0.50912  0.09857  0.59988  1.0000
  H   H818      1.0  0.41538  0.19456  0.91461  1.0000
  C   C464      1.0  0.35622  0.29676  0.90786  1.0000
  H   H819      1.0  0.49536  0.18397  0.77880  1.0000
  H   H820      1.0  0.51632  0.15178  0.80475  1.0000
  H   H821      1.0  0.52204  0.22276  0.79048  1.0000
  S   S113      1.0  0.37189  0.01684  0.65240  1.0000
  C   C465      1.0  0.39136  0.18556  0.89199  1.0000
  C   C466      1.0  0.58578  0.21073  0.78181  1.0000
  H   H822      1.0  0.63929  0.30474  0.90518  1.0000
  H   H823      1.0  0.60643  0.39793  0.95564  1.0000
  H   H824      1.0  0.44416  0.01524  0.77925  1.0000
  C   C467      1.0  0.41810  0.39492  0.91965  1.0000
  H   H825      1.0  0.55158  0.20573  0.75558  1.0000
  C   C468      1.0  0.53371  0.15886  0.79990  1.0000
  H   H826      1.0  0.43768  0.28381  0.88598  1.0000
  C   C469      1.0  0.45569  0.00964  0.79402  1.0000
  Fe  Fe53      1.0  0.37431  0.00800  0.61346  1.0000
  H   H827      1.0  0.50217  0.16257  0.95373  1.0000
  H   H828      1.0  0.43355  0.22169  0.92597  1.0000
  H   H829      1.0  0.33994  0.99347  0.76588  1.0000
  H   H830      1.0  0.36335  0.30489  0.92169  1.0000
  H   H831      1.0  0.51024  0.33287  0.92836  1.0000
  H   H832      1.0  0.57378  0.02249  0.78820  1.0000
  C   C470      1.0  0.55553  0.18856  0.76870  1.0000
  H   H833      1.0  0.48233  0.23722  0.80975  1.0000
  H   H834      1.0  0.45871  0.04437  0.58693  1.0000
  H   H835      1.0  0.54905  0.14888  0.75296  1.0000
  H   H836      1.0  0.38790  0.34177  0.92974  1.0000
  H   H837      1.0  0.42381  0.25285  0.86243  1.0000
  H   H838      1.0  0.57614  0.17705  0.80141  1.0000
  C   C471      1.0  0.39540  0.27027  0.90069  1.0000
  C   C472      1.0  0.51130  0.19363  0.77572  1.0000
  C   C473      1.0  0.52893  0.17589  0.72821  1.0000
  H   H839      1.0  0.35110  0.02899  0.77401  1.0000
  H   H840      1.0  0.47245  0.16066  0.96878  1.0000
  C   C474      1.0  0.39085  0.31141  0.95968  1.0000
  H   H841      1.0  0.39220  0.99698  0.48105  1.0000
  H   H842      1.0  0.35910  0.30785  0.88891  1.0000
  C   C475      1.0  0.56653  0.01151  0.74334  1.0000
  S   S114      1.0  0.36106  0.31615  0.97283  1.0000
  H   H843      1.0  0.47703  0.28284  0.86160  1.0000
  H   H844      1.0  0.62767  0.35746  0.91117  1.0000
  C   C476      1.0  0.64330  0.32141  0.91024  1.0000
  H   H845      1.0  0.49960  0.01833  0.61967  1.0000
  C   C477      1.0  0.39294  0.00502  0.73243  1.0000
  H   H846      1.0  0.53663  0.02261  0.81736  1.0000
  H   H847      1.0  0.41885  0.06962  0.56369  1.0000
  H   H848      1.0  0.37644  0.18446  0.90721  1.0000
  H   H849      1.0  0.54168  0.18914  0.72239  1.0000
  H   H850      1.0  0.51055  0.18532  0.72761  1.0000
  N   N27       1.0  0.57830  0.35414  0.91588  1.0000
  C   C478      1.0  0.58216  0.37428  0.92847  1.0000
  C   C479      1.0  0.57312  0.36351  0.88890  1.0000
  C   C480      1.0  0.48529  0.05517  0.62111  1.0000
  C   C481      1.0  0.59904  0.33458  0.91709  1.0000
  C   C482      1.0  0.62328  0.34181  0.90451  1.0000
  C   C483      1.0  0.58813  0.36725  0.95613  1.0000
  H   H851      1.0  0.38416  0.19200  0.87354  1.0000
  C   C484      1.0  0.58529  0.38529  0.87447  1.0000
  H   H852      1.0  0.48833  0.02711  0.70996  1.0000
  N   N28       1.0  0.37540  0.00324  0.75563  1.0000
  C   C485      1.0  0.41215  0.38235  0.96710  1.0000
  H   H853      1.0  0.54640  0.32890  0.89857  1.0000
  C   C486      1.0  0.52461  0.02578  0.75721  1.0000
  H   H854      1.0  0.59693  0.38385  0.91825  1.0000
  H   H855      1.0  0.57759  0.34893  0.87761  1.0000
  H   H856      1.0  0.52499  0.31200  0.95271  1.0000
  H   H857      1.0  0.44212  0.23083  0.88147  1.0000
  C   C487      1.0  0.36817  0.27114  0.90800  1.0000
  H   H858      1.0  0.60101  0.32607  0.93690  1.0000
  H   H859      1.0  0.59570  0.31991  0.90791  1.0000
  S   S115      1.0  0.50931  0.25917  0.97312  1.0000
  C   C488      1.0  0.58824  0.27488  0.96363  1.0000
  H   H860      1.0  0.49023  0.03787  0.55136  1.0000
  H   H861      1.0  0.60496  0.35494  0.95733  1.0000
  C   C489      1.0  0.38505  0.03153  0.78446  1.0000
  H   H862      1.0  0.45488  0.27855  0.84277  1.0000
  C   C490      1.0  0.51755  0.01964  0.73293  1.0000
  H   H863      1.0  0.60461  0.38281  0.87604  1.0000
  H   H864      1.0  0.50190  0.05775  0.62781  1.0000
  N   N29       1.0  0.61504  0.98426  0.52018  1.0000
  H   H865      1.0  0.56252  0.39334  0.84392  1.0000
  H   H866      1.0  0.58567  0.19583  0.97278  1.0000
  H   H867      1.0  0.60105  0.99282  0.71056  1.0000
  C   C491      1.0  0.40597  0.29155  0.97035  1.0000
  H   H868      1.0  0.38228  0.01894  0.80249  1.0000
  H   H869      1.0  0.40105  0.16733  0.89189  1.0000
  H   H870      1.0  0.51915  0.14657  0.71329  1.0000
  C   C492      1.0  0.59152  0.99857  0.74911  1.0000
  H   H871      1.0  0.55402  0.20177  0.80484  1.0000
  H   H872      1.0  0.47540  0.25340  0.85579  1.0000
  H   H873      1.0  0.57056  0.14196  0.79133  1.0000
  H   H874      1.0  0.53751  0.06062  0.83065  1.0000
  H   H875      1.0  0.52406  0.04557  0.75316  1.0000
  C   C493      1.0  0.46610  0.98593  0.79928  1.0000
  H   H876      1.0  0.52903  0.02750  0.71637  1.0000
  H   H877      1.0  0.47126  0.07577  0.54538  1.0000
  N   N30       1.0  0.54845  0.01419  0.76573  1.0000
  H   H878      1.0  0.51018  0.20587  0.75736  1.0000
  H   H879      1.0  0.51174  0.06739  0.56147  1.0000
  C   C494      1.0  0.60858  0.99976  0.72504  1.0000
  H   H880      1.0  0.40414  0.02947  0.77774  1.0000
  H   H881      1.0  0.55255  0.07242  0.80069  1.0000
  H   H882      1.0  0.33682  0.29685  0.91311  1.0000
  S   S116      1.0  0.46746  0.29676  0.92433  1.0000
  C   C495      1.0  0.50557  0.05423  0.57794  1.0000
  H   H883      1.0  0.43109  0.40066  0.90346  1.0000
  H   H884      1.0  0.44638  0.06991  0.59946  1.0000
  H   H885      1.0  0.53254  0.99312  0.79920  1.0000
  C   C496      1.0  0.34757  0.46832  0.83263  1.0000
  H   H886      1.0  0.39721  0.28096  0.88131  1.0000
  H   H887      1.0  0.49852  0.99063  0.84595  1.0000
  H   H888      1.0  0.61249  0.02037  0.49889  1.0000
  C   C497      1.0  0.64807  0.47335  0.95512  1.0000
  H   H889      1.0  0.39946  0.98778  0.78420  1.0000
  H   H890      1.0  0.64593  0.31813  0.93050  1.0000
  H   H891      1.0  0.54144  0.35799  0.93134  1.0000
  H   H892      1.0  0.42319  0.20147  0.88112  1.0000
  H   H893      1.0  0.62596  0.04968  0.53667  1.0000
  H   H894      1.0  0.41754  0.02874  0.73785  1.0000
  H   H895      1.0  0.43533  0.40834  0.94537  1.0000
  H   H896      1.0  0.36562  0.47272  0.83360  1.0000
  H   H897      1.0  0.43877  0.98626  0.71230  1.0000
  C   C498      1.0  0.36993  0.00602  0.51347  1.0000
  H   H898      1.0  0.34870  0.44873  0.83361  1.0000
  H   H899      1.0  0.40228  0.28082  0.91270  1.0000
  H   H900      1.0  0.62305  0.34590  0.88379  1.0000
  H   H901      1.0  0.38641  0.01976  0.71754  1.0000
  C   C499      1.0  0.52426  0.31743  0.93211  1.0000
  C   C500      1.0  0.42966  0.39108  0.94413  1.0000
  C   C501      1.0  0.39557  0.22796  0.89600  1.0000
  C   C502      1.0  0.59142  0.38917  0.96662  1.0000
  H   H902      1.0  0.42997  0.25149  0.93059  1.0000
  C   C503      1.0  0.37290  0.00169  0.48640  1.0000
  C   C504      1.0  0.40836  0.20211  0.89630  1.0000
  C   C505      1.0  0.33263  0.00019  0.57317  1.0000
  C   C506      1.0  0.63949  0.45165  0.96504  1.0000
  H   H903      1.0  0.45247  0.01168  0.71472  1.0000
  H   H904      1.0  0.35993  0.26396  0.89415  1.0000
  H   H905      1.0  0.33693  0.46487  0.87216  1.0000
  H   H906      1.0  0.44128  0.27190  0.96840  1.0000
  C   C507      1.0  0.61244  0.27755  0.96156  1.0000
  H   H907      1.0  0.57502  0.40220  0.96616  1.0000
  H   H908      1.0  0.37938  0.22637  0.90945  1.0000
  H   H909      1.0  0.51951  0.00023  0.73339  1.0000
  C   C508      1.0  0.42963  0.28706  0.95989  1.0000
  H   H910      1.0  0.40697  0.36564  0.96348  1.0000
  H   H911      1.0  0.63563  0.01316  0.51911  1.0000
  C   C509      1.0  0.43544  0.00557  0.71312  1.0000
  H   H912      1.0  0.42850  0.01559  0.69551  1.0000
  H   H913      1.0  0.50052  0.02264  0.66334  1.0000
  H   H914      1.0  0.38033  0.02040  0.51497  1.0000
  C   C510      1.0  0.62042  0.29327  0.97453  1.0000
  S   S117      1.0  0.65839  0.36073  0.95513  1.0000
  H   H915      1.0  0.58244  0.02454  0.53618  1.0000
  H   H916      1.0  0.36396  0.26062  0.92690  1.0000
  H   H917      1.0  0.60237  0.05967  0.51643  1.0000
  H   H918      1.0  0.59619  0.05784  0.55005  1.0000
  H   H919      1.0  0.36569  0.47527  0.90983  1.0000
  H   H920      1.0  0.60546  0.01416  0.55692  1.0000
  C   C511      1.0  0.54619  0.99070  0.78312  1.0000
  C   C512      1.0  0.33957  0.01597  0.72891  1.0000
  Fe  Fe54      1.0  0.34012  0.35293  0.96397  1.0000
  H   H921      1.0  0.39461  0.98858  0.72407  1.0000
  C   C513      1.0  0.41800  0.00986  0.73588  1.0000
  H   H922      1.0  0.57384  0.35867  0.96866  1.0000
  H   H923      1.0  0.58262  0.99389  0.50218  1.0000
  C   C514      1.0  0.35264  0.99708  0.74869  1.0000
  H   H924      1.0  0.39560  0.39531  0.96654  1.0000
  H   H925      1.0  0.49637  0.12072  0.96936  1.0000
  H   H926      1.0  0.65638  0.00035  0.48514  1.0000
  H   H927      1.0  0.33669  0.03402  0.73395  1.0000
  H   H928      1.0  0.34108  0.47742  0.81442  1.0000
  H   H929      1.0  0.57811  0.98812  0.53571  1.0000
  H   H930      1.0  0.38990  0.21983  0.94744  1.0000
  Fe  Fe55      1.0  0.33840  0.40309  0.97375  1.0000
  H   H931      1.0  0.39111  0.24933  0.95372  1.0000
  H   H932      1.0  0.62119  0.98409  0.48017  1.0000
  H   H933      1.0  0.42504  0.20395  0.97091  1.0000
  H   H934      1.0  0.50618  0.98376  0.69680  1.0000
  C   C515      1.0  0.38399  0.98352  0.77635  1.0000
  H   H935      1.0  0.56305  0.98389  0.79176  1.0000
  H   H936      1.0  0.42627  0.23339  0.97729  1.0000
  S   S118      1.0  0.32824  0.40829  0.88282  1.0000
  C   C516      1.0  0.36065  0.45190  0.97228  1.0000
  C   C517      1.0  0.41439  0.22130  0.97335  1.0000
  H   H937      1.0  0.66019  0.32616  0.89928  1.0000
  H   H938      1.0  0.37346  0.97333  0.22264  1.0000
  H   H939      1.0  0.47408  0.66486  0.01570  1.0000
  H   H940      1.0  0.38816  0.85293  0.27928  1.0000
  H   H941      1.0  0.50427  0.65041  0.14551  1.0000
  H   H942      1.0  0.61485  0.63749  0.02050  1.0000
  H   H943      1.0  0.44041  0.88540  0.33998  1.0000
  Fe  Fe56      1.0  0.47225  0.75371  0.00820  1.0000
  S   S119      1.0  0.46112  0.78390  0.03068  1.0000
  H   H944      1.0  0.48098  0.82983  0.98328  1.0000
  H   H945      1.0  0.56696  0.95658  0.10353  1.0000
  S   S120      1.0  0.47322  0.71499  0.02564  1.0000
  H   H946      1.0  0.46798  0.95783  0.14618  1.0000
  H   H947      1.0  0.50928  0.62193  0.00377  1.0000
  S   S121      1.0  0.42890  0.94233  0.33777  1.0000
  H   H948      1.0  0.51019  0.95787  0.04643  1.0000
  H   H949      1.0  0.64288  0.95615  0.19198  1.0000
  S   S122      1.0  0.39300  0.94997  0.29380  1.0000
  Fe  Fe57      1.0  0.39089  0.95744  0.33319  1.0000
  S   S123      1.0  0.36640  0.94074  0.36580  1.0000
  Fe  Fe58      1.0  0.43156  0.93780  0.29767  1.0000
  S   S124      1.0  0.45209  0.90424  0.28685  1.0000
  H   H950      1.0  0.37980  0.83951  0.36219  1.0000
  H   H951      1.0  0.46965  0.94739  0.36139  1.0000
  Fe  Fe59      1.0  0.61397  0.93220  0.27657  1.0000
  S   S125      1.0  0.57847  0.95172  0.28710  1.0000
  S   S126      1.0  0.62256  0.91551  0.24145  1.0000
  Fe  Fe60      1.0  0.63623  0.94526  0.32024  1.0000
  H   H952      1.0  0.36327  0.91575  0.32503  1.0000
  Fe  Fe61      1.0  0.58515  0.93567  0.32676  1.0000
  S   S127      1.0  0.55500  0.92069  0.35224  1.0000
  H   H953      1.0  0.54948  0.97073  0.33024  1.0000
  C   C518      1.0  0.38353  0.87972  0.24655  1.0000
  S   S128      1.0  0.61930  0.91345  0.31610  1.0000
  Fe  Fe62      1.0  0.48284  0.87562  0.15915  1.0000
  S   S129      1.0  0.50455  0.84060  0.17226  1.0000
  S   S130      1.0  0.44673  0.88891  0.17631  1.0000
  Fe  Fe63      1.0  0.52009  0.89173  0.11802  1.0000
  S   S131      1.0  0.54530  0.85839  0.12783  1.0000
  S   S132      1.0  0.52744  0.91903  0.08339  1.0000
  Fe  Fe64      1.0  0.51351  0.83896  0.13103  1.0000
  S   S133      1.0  0.51954  0.80508  0.11392  1.0000
  Fe  Fe65      1.0  0.53442  0.86295  0.16801  1.0000
  S   S134      1.0  0.56066  0.85344  0.19737  1.0000
  S   S135      1.0  0.48905  0.87217  0.11845  1.0000
  S   S136      1.0  0.51192  0.89809  0.15776  1.0000
  S   S137      1.0  0.42570  0.68491  0.00536  1.0000
  C   C519      1.0  0.51518  0.94848  0.08576  1.0000
  H   H954      1.0  0.54918  0.83388  0.07508  1.0000
  H   H955      1.0  0.37743  0.62582  0.99133  1.0000
  H   H956      1.0  0.35894  0.52734  0.03769  1.0000
  C   C520      1.0  0.58049  0.95024  0.16381  1.0000
  C   C521      1.0  0.47899  0.96359  0.21358  1.0000
  H   H957      1.0  0.57557  0.96926  0.16544  1.0000
  C   C522      1.0  0.50816  0.96407  0.06419  1.0000
  C   C523      1.0  0.60404  0.69364  0.02025  1.0000
  H   H958      1.0  0.51762  0.94459  0.12541  1.0000
  H   H959      1.0  0.53250  0.96845  0.17684  1.0000
  H   H960      1.0  0.36620  0.87448  0.24410  1.0000
  C   C524      1.0  0.60381  0.89902  0.23024  1.0000
  C   C525      1.0  0.57966  0.90697  0.22768  1.0000
  C   C526      1.0  0.56610  0.89367  0.21684  1.0000
  C   C527      1.0  0.57667  0.87236  0.20885  1.0000
  C   C528      1.0  0.60061  0.86449  0.21189  1.0000
  C   C529      1.0  0.61419  0.87800  0.22185  1.0000
  H   H961      1.0  0.57159  0.92338  0.23383  1.0000
  H   H962      1.0  0.54745  0.89958  0.21512  1.0000
  H   H963      1.0  0.60886  0.84791  0.20619  1.0000
  H   H964      1.0  0.63283  0.87185  0.22349  1.0000
  C   C530      1.0  0.47261  0.89040  0.04260  1.0000
  C   C531      1.0  0.38844  0.63941  0.98237  1.0000
  C   C532      1.0  0.50728  0.93577  0.35836  1.0000
  C   C533      1.0  0.52985  0.94217  0.34933  1.0000
  H   H965      1.0  0.35003  0.94879  0.44008  1.0000
  H   H966      1.0  0.44777  0.89138  0.09000  1.0000
  C   C534      1.0  0.56723  0.64424  0.00598  1.0000
  H   H967      1.0  0.50546  0.91792  0.36827  1.0000
  S   S138      1.0  0.60222  0.96612  0.33370  1.0000
  H   H968      1.0  0.65707  0.69430  0.00054  1.0000
  C   C535      1.0  0.45112  0.90147  0.25556  1.0000
  C   C536      1.0  0.43203  0.91293  0.24232  1.0000
  C   C537      1.0  0.43066  0.90885  0.21798  1.0000
  C   C538      1.0  0.44875  0.89404  0.20659  1.0000
  C   C539      1.0  0.46825  0.88329  0.21952  1.0000
  C   C540      1.0  0.46921  0.88669  0.24412  1.0000
  H   H969      1.0  0.41797  0.92426  0.25114  1.0000
  H   H970      1.0  0.41561  0.91710  0.20794  1.0000
  H   H971      1.0  0.48233  0.87186  0.21082  1.0000
  H   H972      1.0  0.48397  0.87781  0.25428  1.0000
  H   H973      1.0  0.39765  0.87068  0.23433  1.0000
  C   C541      1.0  0.47785  0.78999  0.05328  1.0000
  C   C542      1.0  0.46703  0.80512  0.07003  1.0000
  C   C543      1.0  0.47973  0.81022  0.08840  1.0000
  C   C544      1.0  0.50344  0.80038  0.09006  1.0000
  C   C545      1.0  0.51430  0.78535  0.07322  1.0000
  C   C546      1.0  0.50162  0.78029  0.05480  1.0000
  H   H974      1.0  0.44863  0.81269  0.06899  1.0000
  H   H975      1.0  0.47104  0.82135  0.10167  1.0000
  H   H976      1.0  0.53264  0.77763  0.07440  1.0000
  H   H977      1.0  0.51022  0.76900  0.04168  1.0000
  C   C547      1.0  0.35670  0.89816  0.33184  1.0000
  H   H978      1.0  0.43168  0.87874  0.37321  1.0000
  H   H979      1.0  0.37633  0.84149  0.31851  1.0000
  C   C548      1.0  0.50354  0.98055  0.10986  1.0000
  H   H980      1.0  0.40149  0.98239  0.14652  1.0000
  C   C549      1.0  0.48689  0.86110  0.01411  1.0000
  C   C550      1.0  0.48821  0.64828  0.13710  1.0000
  H   H981      1.0  0.37329  0.90586  0.28504  1.0000
  C   C551      1.0  0.46981  0.97651  0.18875  1.0000
  H   H982      1.0  0.40632  0.89279  0.31049  1.0000
  H   H983      1.0  0.58900  0.98158  0.20311  1.0000
  H   H984      1.0  0.33454  0.92463  0.40803  1.0000
  H   H985      1.0  0.40721  0.87578  0.27495  1.0000
  H   H986      1.0  0.48973  0.93821  0.29096  1.0000
  C   C552      1.0  0.35492  0.95152  0.45828  1.0000
  N   N31       1.0  0.47173  0.71542  0.10689  1.0000
  C   C553      1.0  0.47721  0.69318  0.12611  1.0000
  C   C554      1.0  0.46669  0.73730  0.11931  1.0000
  C   C555      1.0  0.44948  0.71287  0.09587  1.0000
  C   C556      1.0  0.49140  0.71816  0.08564  1.0000
  C   C557      1.0  0.51638  0.71944  0.09284  1.0000
  C   C558      1.0  0.48245  0.66929  0.11599  1.0000
  C   C559      1.0  0.43772  0.73562  0.07937  1.0000
  C   C560      1.0  0.48087  0.73765  0.14167  1.0000
  C   C561      1.0  0.47528  0.76163  0.15064  1.0000
  C   C562      1.0  0.53537  0.71661  0.07078  1.0000
  C   C563      1.0  0.38717  0.96520  0.20932  1.0000
  C   C564      1.0  0.41660  0.73030  0.06780  1.0000
  H   H987      1.0  0.46211  0.69160  0.14122  1.0000
  H   H988      1.0  0.49274  0.69421  0.13587  1.0000
  H   H989      1.0  0.46914  0.75373  0.10504  1.0000
  H   H990      1.0  0.44773  0.73968  0.12734  1.0000
  H   H991      1.0  0.43561  0.70684  0.11114  1.0000
  H   H992      1.0  0.45320  0.69888  0.08384  1.0000
  H   H993      1.0  0.49286  0.70356  0.07459  1.0000
  H   H994      1.0  0.48710  0.73472  0.07190  1.0000
  H   H995      1.0  0.52154  0.70529  0.10875  1.0000
  H   H996      1.0  0.51687  0.73713  0.09783  1.0000
  H   H997      1.0  0.44924  0.97215  0.10822  1.0000
  H   H998      1.0  0.49795  0.66948  0.10149  1.0000
  H   H999      1.0  0.45045  0.74265  0.06376  1.0000
  H   H1000     1.0  0.43110  0.75000  0.09042  1.0000
  H   H1001     1.0  0.47586  0.72380  0.15795  1.0000
  H   H1002     1.0  0.50027  0.73430  0.13675  1.0000
  H   H1003     1.0  0.48591  0.76157  0.16632  1.0000
  H   H1004     1.0  0.47986  0.77634  0.13522  1.0000
  H   H1005     1.0  0.45614  0.76510  0.15738  1.0000
  H   H1006     1.0  0.53708  0.69831  0.06646  1.0000
  H   H1007     1.0  0.53089  0.72969  0.05370  1.0000
  H   H1008     1.0  0.55279  0.71957  0.07568  1.0000
  C   C565      1.0  0.66039  0.97488  0.36829  1.0000
  H   H1009     1.0  0.45864  0.90308  0.03274  1.0000
  H   H1010     1.0  0.47302  0.64685  0.15199  1.0000
  H   H1011     1.0  0.64289  0.97820  0.36190  1.0000
  H   H1012     1.0  0.39467  0.97289  0.44776  1.0000
  C   C566      1.0  0.49847  0.94632  0.98466  1.0000
  H   H1013     1.0  0.49897  0.65042  0.03236  1.0000
  H   H1014     1.0  0.53108  0.87749  0.01943  1.0000
  C   C567      1.0  0.34004  0.95537  0.37938  1.0000
  H   H1015     1.0  0.47922  0.90058  0.05516  1.0000
  H   H1016     1.0  0.51830  0.89188  0.04468  1.0000
  H   H1017     1.0  0.56032  0.91973  0.16945  1.0000
  H   H1018     1.0  0.39640  0.64717  0.01738  1.0000
  C   C568      1.0  0.63010  0.64501  0.02532  1.0000
  H   H1019     1.0  0.35874  0.80874  0.35132  1.0000
  H   H1020     1.0  0.55639  0.97881  0.12324  1.0000
  H   H1021     1.0  0.59313  0.61466  0.99750  1.0000
  H   H1022     1.0  0.44996  0.93546  0.09249  1.0000
  N   N32       1.0  0.53328  0.87456  0.29611  1.0000
  C   C569      1.0  0.52496  0.85349  0.28860  1.0000
  C   C570      1.0  0.52776  0.87271  0.32421  1.0000
  C   C571      1.0  0.52049  0.89713  0.28222  1.0000
  C   C572      1.0  0.55961  0.87478  0.28950  1.0000
  C   C573      1.0  0.57558  0.85252  0.30179  1.0000
  C   C574      1.0  0.53331  0.84922  0.26138  1.0000
  C   C575      1.0  0.52621  0.92078  0.28818  1.0000
  C   C576      1.0  0.50118  0.87835  0.33388  1.0000
  C   C577      1.0  0.49691  0.86989  0.36227  1.0000
  C   C578      1.0  0.60154  0.85324  0.29113  1.0000
  C   C579      1.0  0.52193  0.82882  0.25551  1.0000
  C   C580      1.0  0.50718  0.94157  0.28039  1.0000
  H   H1023     1.0  0.50521  0.85536  0.29069  1.0000
  H   H1024     1.0  0.53046  0.83664  0.30153  1.0000
  H   H1025     1.0  0.53422  0.85445  0.33390  1.0000
  H   H1026     1.0  0.53782  0.88456  0.33152  1.0000
  H   H1027     1.0  0.50103  0.89680  0.28553  1.0000
  H   H1028     1.0  0.52471  0.89839  0.26157  1.0000
  H   H1029     1.0  0.56408  0.87730  0.26884  1.0000
  H   H1030     1.0  0.56541  0.89039  0.29526  1.0000
  H   H1031     1.0  0.57025  0.83574  0.29850  1.0000
  H   H1032     1.0  0.57455  0.85196  0.32238  1.0000
  H   H1033     1.0  0.52842  0.86527  0.24727  1.0000
  H   H1034     1.0  0.55286  0.84433  0.25877  1.0000
  H   H1035     1.0  0.54338  0.92503  0.27763  1.0000
  H   H1036     1.0  0.52760  0.91972  0.30839  1.0000
  H   H1037     1.0  0.49552  0.89792  0.32986  1.0000
  H   H1038     1.0  0.48953  0.86962  0.32476  1.0000
  H   H1039     1.0  0.47860  0.87685  0.36922  1.0000
  H   H1040     1.0  0.49903  0.85009  0.36673  1.0000
  H   H1041     1.0  0.50965  0.87642  0.37225  1.0000
  H   H1042     1.0  0.60766  0.87013  0.29315  1.0000
  H   H1043     1.0  0.61289  0.83804  0.30136  1.0000
  H   H1044     1.0  0.60376  0.85176  0.27093  1.0000
  H   H1045     1.0  0.52831  0.82598  0.23604  1.0000
  H   H1046     1.0  0.52683  0.81198  0.26865  1.0000
  H   H1047     1.0  0.50228  0.83318  0.25682  1.0000
  H   H1048     1.0  0.62344  0.65316  0.04221  1.0000
  H   H1049     1.0  0.50870  0.85406  0.07097  1.0000
  H   H1050     1.0  0.50572  0.94417  0.25990  1.0000
  N   N33       1.0  0.59892  0.94804  0.14156  1.0000
  C   C581      1.0  0.59935  0.92525  0.13161  1.0000
  H   H1051     1.0  0.46690  0.66571  0.10777  1.0000
  C   C582      1.0  0.62317  0.94791  0.14983  1.0000
  H   H1052     1.0  0.47792  0.90576  0.99176  1.0000
  H   H1053     1.0  0.39842  0.90161  0.35123  1.0000
  C   C583      1.0  0.60758  0.90206  0.14979  1.0000
  H   H1054     1.0  0.48442  0.93298  0.02224  1.0000
  H   H1055     1.0  0.44167  0.95370  0.19738  1.0000
  H   H1056     1.0  0.50195  0.81407  0.00485  1.0000
  C   C584      1.0  0.59980  0.88019  0.14281  1.0000
  C   C585      1.0  0.54616  0.85055  0.06112  1.0000
  H   H1057     1.0  0.61148  0.92544  0.11386  1.0000
  H   H1058     1.0  0.58178  0.92361  0.12610  1.0000
  C   C586      1.0  0.49744  0.63847  0.99724  1.0000
  C   C587      1.0  0.33476  0.91452  0.47611  1.0000
  H   H1059     1.0  0.42231  0.71655  0.05570  1.0000
  H   H1060     1.0  0.62611  0.93371  0.16662  1.0000
  H   H1061     1.0  0.34843  0.81543  0.38218  1.0000
  H   H1062     1.0  0.43402  0.85568  0.35448  1.0000
  H   H1063     1.0  0.46923  0.86543  0.00659  1.0000
  H   H1064     1.0  0.40840  0.86138  0.32011  1.0000
  H   H1065     1.0  0.62727  0.89929  0.14906  1.0000
  H   H1066     1.0  0.60034  0.90314  0.16943  1.0000
  C   C588      1.0  0.57087  0.97291  0.10926  1.0000
  H   H1067     1.0  0.62366  0.59804  0.04691  1.0000
  C   C589      1.0  0.39923  0.65157  0.99710  1.0000
  C   C590      1.0  0.55351  0.66551  0.99617  1.0000
  H   H1068     1.0  0.48501  0.84564  0.02966  1.0000
  H   H1069     1.0  0.47242  0.93073  0.11384  1.0000
  H   H1070     1.0  0.49177  0.63142  0.12941  1.0000
  H   H1071     1.0  0.58014  0.88149  0.14538  1.0000
  H   H1072     1.0  0.60632  0.87863  0.12302  1.0000
  H   H1073     1.0  0.60698  0.86380  0.15536  1.0000
  S   S139      1.0  0.53600  0.68279  0.01678  1.0000
  H   H1074     1.0  0.52188  0.93967  0.18415  1.0000
  C   C591      1.0  0.32990  0.90157  0.32814  1.0000
  C   C592      1.0  0.45299  0.93410  0.11246  1.0000
  H   H1075     1.0  0.51588  0.92512  0.01551  1.0000
  N   N34       1.0  0.37230  0.87935  0.31922  1.0000
  H   H1076     1.0  0.39191  0.87254  0.36587  1.0000
  C   C593      1.0  0.39793  0.87847  0.32395  1.0000
  C   C594      1.0  0.37075  0.88669  0.29121  1.0000
  C   C595      1.0  0.36399  0.85510  0.32731  1.0000
  C   C596      1.0  0.65784  0.67539  0.01039  1.0000
  C   C597      1.0  0.38880  0.87240  0.27398  1.0000
  C   C598      1.0  0.40273  0.88237  0.35018  1.0000
  C   C599      1.0  0.42883  0.87503  0.35464  1.0000
  C   C600      1.0  0.55718  0.93944  0.16419  1.0000
  H   H1077     1.0  0.40882  0.74682  0.05585  1.0000
  C   C601      1.0  0.48534  0.64761  0.02087  1.0000
  H   H1078     1.0  0.62968  0.61300  0.07130  1.0000
  C   C602      1.0  0.49951  0.82827  0.98809  1.0000
  C   C603      1.0  0.62805  0.97159  0.15664  1.0000
  H   H1079     1.0  0.60950  0.96773  0.10486  1.0000
  C   C604      1.0  0.49432  0.90262  0.00164  1.0000
  H   H1080     1.0  0.51191  0.95814  0.28494  1.0000
  H   H1081     1.0  0.54892  0.86577  0.06975  1.0000
  H   H1082     1.0  0.35779  0.89473  0.35241  1.0000
  H   H1083     1.0  0.47095  0.85757  0.07068  1.0000
  H   H1084     1.0  0.42267  0.95892  0.12096  1.0000
  H   H1085     1.0  0.44959  0.86189  0.04828  1.0000
  H   H1086     1.0  0.55023  0.94342  0.14574  1.0000
  H   H1087     1.0  0.65149  0.59018  0.06041  1.0000
  H   H1088     1.0  0.47412  0.63456  0.03247  1.0000
  C   C605      1.0  0.44861  0.95706  0.14855  1.0000
  H   H1089     1.0  0.59264  0.68101  0.03238  1.0000
  C   C606      1.0  0.50493  0.85204  0.99312  1.0000
  C   C607      1.0  0.48700  0.95244  0.35436  1.0000
  S   S140      1.0  0.50719  0.74841  0.98451  1.0000
  H   H1090     1.0  0.64742  0.53019  0.05431  1.0000
  Fe  Fe66      1.0  0.50652  0.70927  0.99990  1.0000
  Fe  Fe67      1.0  0.45378  0.71045  0.99388  1.0000
  H   H1091     1.0  0.35277  0.88519  0.28649  1.0000
  H   H1092     1.0  0.38045  0.94970  0.20452  1.0000
  H   H1093     1.0  0.63743  0.94328  0.13493  1.0000
  S   S141      1.0  0.44968  0.74993  0.97843  1.0000
  H   H1094     1.0  0.61674  0.69816  0.03179  1.0000
  H   H1095     1.0  0.44629  0.93919  0.16011  1.0000
  H   H1096     1.0  0.58787  0.94179  0.18185  1.0000
  H   H1097     1.0  0.56615  0.63809  0.02609  1.0000
  C   C608      1.0  0.45885  0.87101  0.05964  1.0000
  C   C609      1.0  0.51253  0.95664  0.10869  1.0000
  C   C610      1.0  0.34912  0.82273  0.36172  1.0000
  C   C611      1.0  0.35060  0.51522  0.02891  1.0000
  H   H1098     1.0  0.42625  0.89453  0.06766  1.0000
  Fe  Fe68      1.0  0.59881  0.98021  0.29277  1.0000
  H   H1099     1.0  0.38305  0.89932  0.24038  1.0000
  C   C612      1.0  0.36183  0.84500  0.35584  1.0000
  H   H1100     1.0  0.36483  0.50188  0.02227  1.0000
  H   H1101     1.0  0.44468  0.91871  0.12383  1.0000
  H   H1102     1.0  0.40649  0.95454  0.16638  1.0000
  H   H1103     1.0  0.40332  0.95904  0.21917  1.0000
  H   H1104     1.0  0.35167  0.85805  0.36702  1.0000
  C   C613      1.0  0.44210  0.95717  0.12171  1.0000
  C   C614      1.0  0.63762  0.60522  0.05452  1.0000
  H   H1105     1.0  0.43078  0.86743  0.09041  1.0000
  H   H1106     1.0  0.59759  0.98255  0.24558  1.0000
  S   S142      1.0  0.63909  0.57929  0.99755  1.0000
  H   H1107     1.0  0.54387  0.94597  0.20199  1.0000
  H   H1108     1.0  0.55942  0.84922  0.04451  1.0000
  S   S143      1.0  0.63426  0.96192  0.27957  1.0000
  H   H1109     1.0  0.40268  0.72399  0.08271  1.0000
  H   H1110     1.0  0.51918  0.83792  0.04551  1.0000
  C   C615      1.0  0.53770  0.94899  0.18300  1.0000
  C   C616      1.0  0.64887  0.62397  0.03456  1.0000
  C   C617      1.0  0.37908  0.97960  0.41251  1.0000
  C   C618      1.0  0.33247  0.50287  0.04819  1.0000
  H   H1111     1.0  0.46720  0.96911  0.22982  1.0000
  H   H1112     1.0  0.48246  0.97039  0.17352  1.0000
  N   N35       1.0  0.49260  0.88230  0.02372  1.0000
  N   N36       1.0  0.35673  0.97761  0.45747  1.0000
  S   S144      1.0  0.62762  0.51157  0.01090  1.0000
  C   C619      1.0  0.53213  0.96554  0.33706  1.0000
  H   H1113     1.0  0.46907  0.61968  0.99431  1.0000
  C   C620      1.0  0.32778  0.94287  0.40061  1.0000
  C   C621      1.0  0.44382  0.97226  0.18777  1.0000
  C   C622      1.0  0.52091  0.85376  0.05357  1.0000
  C   C623      1.0  0.58256  0.63102  0.98985  1.0000
  C   C624      1.0  0.43978  0.88186  0.07800  1.0000
  C   C625      1.0  0.51614  0.87731  0.03471  1.0000
  C   C626      1.0  0.48931  0.97573  0.34190  1.0000
  C   C627      1.0  0.40898  0.97370  0.16440  1.0000
  H   H1114     1.0  0.34206  0.52596  0.01250  1.0000
  H   H1115     1.0  0.65507  0.67649  0.03077  1.0000
  N   N37       1.0  0.43516  0.97645  0.16207  1.0000
  C   C628      1.0  0.59497  0.96905  0.12046  1.0000
  H   H1116     1.0  0.37252  0.94059  0.46093  1.0000
  S   S145      1.0  0.44348  0.97350  0.28247  1.0000
  H   H1117     1.0  0.34251  0.48908  0.06130  1.0000
  H   H1118     1.0  0.50827  0.65210  0.98636  1.0000
  N   N38       1.0  0.63829  0.66356  0.00358  1.0000
  C   C629      1.0  0.61720  0.68228  0.99785  1.0000
  C   C630      1.0  0.49845  0.92678  0.00804  1.0000
  H   H1119     1.0  0.57726  0.72318  0.02752  1.0000
  H   H1120     1.0  0.65620  0.48649  0.05056  1.0000
  C   C631      1.0  0.58776  0.71644  0.01114  1.0000
  C   C632      1.0  0.41333  0.66957  0.98583  1.0000
  H   H1121     1.0  0.62273  0.69726  0.98310  1.0000
  H   H1122     1.0  0.47997  0.94394  0.21508  1.0000
  H   H1123     1.0  0.37866  0.96053  0.41187  1.0000
  H   H1124     1.0  0.61211  0.98052  0.16638  1.0000
  H   H1125     1.0  0.34661  0.85510  0.32024  1.0000
  H   H1126     1.0  0.52337  0.84935  0.99830  1.0000
  H   H1127     1.0  0.49706  0.96790  0.21447  1.0000
  Fe  Fe69      1.0  0.43711  0.97932  0.32230  1.0000
  H   H1128     1.0  0.40196  0.98296  0.37740  1.0000
  C   C633      1.0  0.33111  0.97884  0.36972  1.0000
  C   C634      1.0  0.47891  0.63316  0.98147  1.0000
  H   H1129     1.0  0.57518  0.71287  0.99883  1.0000
  H   H1130     1.0  0.54436  0.57963  0.99091  1.0000
  H   H1131     1.0  0.35227  0.90328  0.47735  1.0000
  C   C635      1.0  0.63234  0.48844  0.99336  1.0000
  H   H1132     1.0  0.59834  0.73051  0.00054  1.0000
  H   H1133     1.0  0.65948  0.52445  0.08443  1.0000
  H   H1134     1.0  0.60373  0.67473  0.98974  1.0000
  H   H1135     1.0  0.50927  0.89810  0.98745  1.0000
  H   H1136     1.0  0.41776  0.97613  0.40487  1.0000
  H   H1137     1.0  0.65753  0.61499  0.01898  1.0000
  H   H1138     1.0  0.33062  0.82720  0.35656  1.0000
  H   H1139     1.0  0.50165  0.96329  0.98972  1.0000
  C   C636      1.0  0.51190  0.98235  0.33362  1.0000
  Fe  Fe70      1.0  0.64228  0.54322  0.98673  1.0000
  C   C637      1.0  0.64561  0.65210  0.98056  1.0000
  H   H1140     1.0  0.32821  0.91438  0.45783  1.0000
  C   C638      1.0  0.64804  0.96746  0.17367  1.0000
  H   H1141     1.0  0.50267  0.59170  0.98050  1.0000
  H   H1142     1.0  0.44717  0.59902  0.98001  1.0000
  H   H1143     1.0  0.53782  0.83327  0.80908  1.0000
  C   C639      1.0  0.54942  0.58505  0.97045  1.0000
  C   C640      1.0  0.48069  0.66496  0.92654  1.0000
  C   C641      1.0  0.36380  0.49556  0.93956  1.0000
  H   H1144     1.0  0.36908  0.89128  0.62687  1.0000
  S   S146      1.0  0.49159  0.75464  0.91398  1.0000
  H   H1145     1.0  0.38249  0.91866  0.61808  1.0000
  Fe  Fe71      1.0  0.47311  0.92726  0.79291  1.0000
  S   S147      1.0  0.50119  0.90827  0.81730  1.0000
  H   H1146     1.0  0.54511  0.93206  0.64859  1.0000
  Fe  Fe72      1.0  0.46401  0.88275  0.77678  1.0000
  S   S148      1.0  0.49123  0.85895  0.79962  1.0000
  S   S149      1.0  0.44118  0.87102  0.75199  1.0000
  Fe  Fe73      1.0  0.47678  0.88010  0.83004  1.0000
  S   S150      1.0  0.47242  0.86579  0.87189  1.0000
  Fe  Fe74      1.0  0.51400  0.88832  0.78561  1.0000
  S   S151      1.0  0.55304  0.87885  0.77475  1.0000
  S   S152      1.0  0.44730  0.90119  0.80850  1.0000
  S   S153      1.0  0.48831  0.90985  0.76012  1.0000
  H   H1147     1.0  0.33210  0.97576  0.62601  1.0000
  C   C642      1.0  0.58451  0.63927  0.96390  1.0000
  H   H1148     1.0  0.55232  0.76057  0.88990  1.0000
  H   H1149     1.0  0.53080  0.80027  0.87552  1.0000
  H   H1150     1.0  0.53766  0.92041  0.73686  1.0000
  H   H1151     1.0  0.38039  0.93798  0.80512  1.0000
  H   H1152     1.0  0.34369  0.71019  0.88906  1.0000
  H   H1153     1.0  0.51681  0.77710  0.80094  1.0000
  S   S154      1.0  0.36387  0.52301  0.91898  1.0000
  H   H1154     1.0  0.57800  0.83259  0.79892  1.0000
  H   H1155     1.0  0.34758  0.66895  0.89692  1.0000
  C   C643      1.0  0.56842  0.89881  0.75189  1.0000
  C   C644      1.0  0.59322  0.89541  0.75016  1.0000
  H   H1156     1.0  0.47042  0.57930  0.96624  1.0000
  Fe  Fe75      1.0  0.48483  0.74212  0.95591  1.0000
  H   H1157     1.0  0.60231  0.88098  0.76267  1.0000
  H   H1158     1.0  0.40300  0.92217  0.78610  1.0000
  C   C645      1.0  0.39153  0.93177  0.71088  1.0000
  C   C646      1.0  0.39151  0.64529  0.95614  1.0000
  C   C647      1.0  0.40008  0.89039  0.73110  1.0000
  C   C648      1.0  0.42226  0.89460  0.73621  1.0000
  C   C649      1.0  0.42912  0.91744  0.72839  1.0000
  H   H1159     1.0  0.32924  0.70173  0.97541  1.0000
  H   H1160     1.0  0.39468  0.87278  0.73712  1.0000
  H   H1161     1.0  0.41083  0.94423  0.80208  1.0000
  H   H1162     1.0  0.55489  0.78977  0.80517  1.0000
  H   H1163     1.0  0.51281  0.95909  0.72200  1.0000
  H   H1164     1.0  0.53910  0.78039  0.83549  1.0000
  H   H1165     1.0  0.52705  0.84377  0.87090  1.0000
  C   C650      1.0  0.48105  0.95848  0.59512  1.0000
  H   H1166     1.0  0.41954  0.95332  0.70893  1.0000
  C   C651      1.0  0.48128  0.97888  0.81832  1.0000
  C   C652      1.0  0.58285  0.95673  0.51990  1.0000
  C   C653      1.0  0.63650  0.93221  0.57358  1.0000
  C   C654      1.0  0.41677  0.67512  0.95958  1.0000
  C   C655      1.0  0.48513  0.78549  0.90267  1.0000
  C   C656      1.0  0.48383  0.79364  0.87683  1.0000
  C   C657      1.0  0.47960  0.81823  0.86722  1.0000
  C   C658      1.0  0.47687  0.83479  0.88337  1.0000
  C   C659      1.0  0.47802  0.82662  0.90924  1.0000
  C   C660      1.0  0.48208  0.80204  0.91889  1.0000
  H   H1167     1.0  0.48601  0.78089  0.86425  1.0000
  H   H1168     1.0  0.47823  0.82438  0.84738  1.0000
  H   H1169     1.0  0.47578  0.83936  0.92185  1.0000
  H   H1170     1.0  0.48301  0.79592  0.93885  1.0000
  C   C661      1.0  0.54302  0.94661  0.78890  1.0000
  H   H1171     1.0  0.36926  0.96478  0.49424  1.0000
  C   C662      1.0  0.39688  0.93966  0.79208  1.0000
  H   H1172     1.0  0.63747  0.98008  0.55035  1.0000
  H   H1173     1.0  0.47121  0.96443  0.68974  1.0000
  H   H1174     1.0  0.48970  0.93534  0.56770  1.0000
  C   C663      1.0  0.57016  0.93290  0.71747  1.0000
  H   H1175     1.0  0.46930  0.67314  0.94141  1.0000
  H   H1176     1.0  0.52337  0.86180  0.84079  1.0000
  C   C664      1.0  0.55471  0.67320  0.97015  1.0000
  S   S155      1.0  0.56104  0.95976  0.58933  1.0000
  H   H1177     1.0  0.59395  0.94758  0.50551  1.0000
  S   S156      1.0  0.37730  0.63161  0.93658  1.0000
  Fe  Fe76      1.0  0.35169  0.60343  0.94727  1.0000
  H   H1178     1.0  0.55232  0.93953  0.51700  1.0000
  H   H1179     1.0  0.54807  0.87434  0.88253  1.0000
  H   H1180     1.0  0.33829  0.57699  0.85985  1.0000
  H   H1181     1.0  0.36714  0.90579  0.71586  1.0000
  H   H1182     1.0  0.50705  0.59101  0.94778  1.0000
  S   S157      1.0  0.61247  0.96849  0.62266  1.0000
  H   H1183     1.0  0.55219  0.90738  0.61458  1.0000
  C   C665      1.0  0.49664  0.94556  0.57917  1.0000
  H   H1184     1.0  0.40916  0.95915  0.75641  1.0000
  C   C666      1.0  0.53344  0.60750  0.95981  1.0000
  H   H1185     1.0  0.62992  0.95630  0.49874  1.0000
  H   H1186     1.0  0.40836  0.66776  0.92458  1.0000
  H   H1187     1.0  0.52202  0.98145  0.62053  1.0000
  H   H1188     1.0  0.65171  0.50815  0.96152  1.0000
  H   H1189     1.0  0.42728  0.68914  0.95066  1.0000
  C   C667      1.0  0.56797  0.80197  0.85890  1.0000
  S   S158      1.0  0.34271  0.59004  0.91381  1.0000
  S   S159      1.0  0.56075  0.98210  0.65518  1.0000
  C   C668      1.0  0.54161  0.91314  0.65306  1.0000
  C   C669      1.0  0.49849  0.96974  0.71114  1.0000
  C   C670      1.0  0.59508  0.92939  0.71601  1.0000
  H   H1190     1.0  0.63251  0.67853  0.94895  1.0000
  H   H1191     1.0  0.65243  0.64479  0.92992  1.0000
  Fe  Fe77      1.0  0.63222  0.59355  0.95745  1.0000
  H   H1192     1.0  0.37907  0.95260  0.75929  1.0000
  C   C671      1.0  0.53699  0.87884  0.86657  1.0000
  C   C672      1.0  0.38454  0.90905  0.71902  1.0000
  Fe  Fe78      1.0  0.57448  0.97942  0.61525  1.0000
  C   C673      1.0  0.50708  0.60280  0.96178  1.0000
  C   C674      1.0  0.41407  0.93582  0.71508  1.0000
  H   H1193     1.0  0.44602  0.92091  0.73255  1.0000
  C   C675      1.0  0.34862  0.64448  0.86143  1.0000
  C   C676      1.0  0.33330  0.92957  0.63010  1.0000
  H   H1194     1.0  0.50978  0.92415  0.63443  1.0000
  C   C677      1.0  0.46794  0.61719  0.94674  1.0000
  H   H1195     1.0  0.33638  0.71120  0.92943  1.0000
  C   C678      1.0  0.39226  0.95866  0.76894  1.0000
  C   C679      1.0  0.58923  0.98203  0.51927  1.0000
  S   S160      1.0  0.48738  0.70241  0.96935  1.0000
  C   C680      1.0  0.55682  0.91763  0.73554  1.0000
  S   S161      1.0  0.45050  0.95753  0.59584  1.0000
  H   H1196     1.0  0.53303  0.93576  0.56548  1.0000
  H   H1197     1.0  0.53979  0.77500  0.91592  1.0000
  H   H1198     1.0  0.58671  0.80218  0.81190  1.0000
  H   H1199     1.0  0.61984  0.83812  0.78300  1.0000
  H   H1200     1.0  0.57612  0.90236  0.63419  1.0000
  C   C681      1.0  0.54033  0.81915  0.82601  1.0000
  N   N39       1.0  0.48843  0.62440  0.95724  1.0000
  H   H1201     1.0  0.57122  0.77377  0.90622  1.0000
  H   H1202     1.0  0.43040  0.57258  0.95905  1.0000
  H   H1203     1.0  0.63688  0.48874  0.89572  1.0000
  C   C682      1.0  0.53028  0.95915  0.59240  1.0000
  C   C683      1.0  0.34400  0.69123  0.96537  1.0000
  H   H1204     1.0  0.50358  0.67729  0.89274  1.0000
  H   H1205     1.0  0.48039  0.69967  0.90222  1.0000
  C   C684      1.0  0.52114  0.94587  0.57783  1.0000
  H   H1206     1.0  0.51889  0.88641  0.87355  1.0000
  H   H1207     1.0  0.62325  0.93431  0.53818  1.0000
  H   H1208     1.0  0.48925  0.96052  0.82256  1.0000
  H   H1209     1.0  0.50393  0.86498  0.97520  1.0000
  C   C685      1.0  0.65572  0.98115  0.49317  1.0000
  H   H1210     1.0  0.46900  0.65888  0.91498  1.0000
  H   H1211     1.0  0.54892  0.96889  0.75317  1.0000
  H   H1212     1.0  0.65997  0.68410  0.95798  1.0000
  C   C686      1.0  0.33912  0.69208  0.93825  1.0000
  H   H1213     1.0  0.50609  0.69101  0.91927  1.0000
  H   H1214     1.0  0.50409  0.95541  0.66108  1.0000
  H   H1215     1.0  0.32974  0.51244  0.83550  1.0000
  H   H1216     1.0  0.60510  0.84500  0.82632  1.0000
  S   S162      1.0  0.63182  0.55746  0.94796  1.0000
  H   H1217     1.0  0.34646  0.50509  0.86155  1.0000
  H   H1218     1.0  0.38793  0.89898  0.64731  1.0000
  H   H1219     1.0  0.64155  0.49480  0.86164  1.0000
  H   H1220     1.0  0.34438  0.63744  0.84515  1.0000
  C   C687      1.0  0.37437  0.90631  0.63405  1.0000
  C   C688      1.0  0.32808  0.71172  0.87858  1.0000
  C   C689      1.0  0.58286  0.82040  0.81660  1.0000
  C   C690      1.0  0.45686  0.59501  0.96201  1.0000
  H   H1221     1.0  0.33431  0.64452  0.91442  1.0000
  N   N40       1.0  0.49847  0.91844  0.67434  1.0000
  C   C691      1.0  0.51484  0.91199  0.65195  1.0000
  C   C692      1.0  0.47316  0.92195  0.66781  1.0000
  C   C693      1.0  0.50387  0.94209  0.67884  1.0000
  C   C694      1.0  0.50158  0.90015  0.69811  1.0000
  C   C695      1.0  0.51009  0.87381  0.69525  1.0000
  H   H1222     1.0  0.57154  0.66651  0.93398  1.0000
  C   C696      1.0  0.48655  0.95361  0.69883  1.0000
  C   C697      1.0  0.46347  0.89947  0.66376  1.0000
  C   C698      1.0  0.43855  0.90573  0.65519  1.0000
  C   C699      1.0  0.50993  0.85745  0.72096  1.0000
  S   S163      1.0  0.37134  0.95514  0.69682  1.0000
  H   H1223     1.0  0.51207  0.65162  0.94568  1.0000
  H   H1224     1.0  0.56819  0.58869  0.96775  1.0000
  H   H1225     1.0  0.51281  0.89404  0.64861  1.0000
  H   H1226     1.0  0.46060  0.92872  0.68291  1.0000
  H   H1227     1.0  0.47104  0.93593  0.65067  1.0000
  Fe  Fe79      1.0  0.34675  0.55376  0.93774  1.0000
  H   H1228     1.0  0.52414  0.82218  0.83906  1.0000
  H   H1229     1.0  0.51470  0.90487  0.70913  1.0000
  H   H1230     1.0  0.48461  0.90029  0.71067  1.0000
  H   H1231     1.0  0.52857  0.87187  0.68612  1.0000
  H   H1232     1.0  0.49876  0.86721  0.68380  1.0000
  C   C700      1.0  0.57024  0.66015  0.95408  1.0000
  H   H1233     1.0  0.54714  0.90542  0.67203  1.0000
  H   H1234     1.0  0.47946  0.94004  0.71397  1.0000
  S   S164      1.0  0.61315  0.94789  0.69450  1.0000
  H   H1235     1.0  0.47495  0.89073  0.64928  1.0000
  H   H1236     1.0  0.46200  0.88661  0.68175  1.0000
  H   H1237     1.0  0.42610  0.91420  0.66927  1.0000
  H   H1238     1.0  0.43884  0.91808  0.63682  1.0000
  H   H1239     1.0  0.43187  0.88921  0.65299  1.0000
  H   H1240     1.0  0.49162  0.85789  0.73068  1.0000
  H   H1241     1.0  0.51651  0.83879  0.71856  1.0000
  H   H1242     1.0  0.52163  0.86303  0.73294  1.0000
  S   S165      1.0  0.38759  0.96955  0.62563  1.0000
  H   H1243     1.0  0.55563  0.88063  0.63832  1.0000
  H   H1244     1.0  0.61871  0.93202  0.58452  1.0000
  H   H1245     1.0  0.54489  0.96719  0.52874  1.0000
  H   H1246     1.0  0.62562  0.90793  0.73153  1.0000
  S   S166      1.0  0.60508  0.62454  0.94322  1.0000
  H   H1247     1.0  0.32736  0.91351  0.62563  1.0000
  H   H1248     1.0  0.60872  0.97234  0.56039  1.0000
  C   C701      1.0  0.64864  0.49634  0.87919  1.0000
  C   C702      1.0  0.49863  0.64385  0.93790  1.0000
  C   C703      1.0  0.54863  0.79947  0.88153  1.0000
  H   H1249     1.0  0.34215  0.93914  0.49793  1.0000
  H   H1250     1.0  0.51177  0.82282  0.97207  1.0000
  C   C704      1.0  0.55345  0.77573  0.89941  1.0000
  H   H1251     1.0  0.54461  0.89262  0.85179  1.0000
  C   C705      1.0  0.62563  0.82525  0.79976  1.0000
  H   H1252     1.0  0.53387  0.94746  0.80803  1.0000
  C   C706      1.0  0.49355  0.68433  0.90917  1.0000
  H   H1253     1.0  0.57234  0.78452  0.85235  1.0000
  H   H1254     1.0  0.50821  0.63608  0.92161  1.0000
  C   C707      1.0  0.63412  0.94455  0.54640  1.0000
  H   H1255     1.0  0.59051  0.97943  0.75714  1.0000
  C   C708      1.0  0.60642  0.91070  0.73251  1.0000
  H   H1256     1.0  0.54417  0.68958  0.96242  1.0000
  C   C709      1.0  0.32938  0.50269  0.85514  1.0000
  H   H1257     1.0  0.46559  0.64928  0.97797  1.0000
  H   H1258     1.0  0.58479  0.94578  0.53884  1.0000
  H   H1259     1.0  0.62884  0.80694  0.79526  1.0000
  H   H1260     1.0  0.56491  0.85978  0.82802  1.0000
  H   H1261     1.0  0.51953  0.97442  0.76932  1.0000
  H   H1262     1.0  0.32945  0.53709  0.88233  1.0000
  C   C710      1.0  0.33493  0.96212  0.55925  1.0000
  N   N41       1.0  0.56243  0.82178  0.83711  1.0000
  H   H1263     1.0  0.54850  0.81388  0.89247  1.0000
  C   C711      1.0  0.62345  0.97118  0.54496  1.0000
  H   H1264     1.0  0.48522  0.97836  0.72447  1.0000
  C   C712      1.0  0.55697  0.95790  0.51500  1.0000
  C   C713      1.0  0.51719  0.79492  0.80573  1.0000
  C   C714      1.0  0.62959  0.97576  0.49767  1.0000
  S   S167      1.0  0.45994  0.96597  0.78124  1.0000
  H   H1265     1.0  0.57320  0.84584  0.85833  1.0000
  H   H1266     1.0  0.36101  0.97141  0.57985  1.0000
  H   H1267     1.0  0.64857  0.51557  0.87965  1.0000
  C   C715      1.0  0.40591  0.66303  0.94485  1.0000
  C   C716      1.0  0.64986  0.66988  0.95552  1.0000
  H   H1268     1.0  0.54025  0.61295  0.93979  1.0000
  H   H1269     1.0  0.56232  0.94097  0.79011  1.0000
  H   H1270     1.0  0.58422  0.80441  0.86674  1.0000
  H   H1271     1.0  0.47359  0.61376  0.92724  1.0000
  H   H1272     1.0  0.36987  0.98164  0.79246  1.0000
  H   H1273     1.0  0.35954  0.65923  0.85430  1.0000
  H   H1274     1.0  0.35912  0.62991  0.87348  1.0000
  C   C717      1.0  0.53882  0.97072  0.77159  1.0000
  C   C718      1.0  0.53545  0.85654  0.85584  1.0000
  H   H1275     1.0  0.61378  0.81396  0.83858  1.0000
  Fe  Fe80      1.0  0.59916  0.97437  0.66192  1.0000
  C   C719      1.0  0.36268  0.49448  0.96553  1.0000
  H   H1276     1.0  0.53586  0.93299  0.78119  1.0000
  C   C720      1.0  0.49013  0.97135  0.61022  1.0000
  H   H1277     1.0  0.55417  0.96747  0.49564  1.0000
  H   H1278     1.0  0.56126  0.94744  0.70497  1.0000
  Fe  Fe81      1.0  0.38801  0.97883  0.66355  1.0000
  H   H1279     1.0  0.51705  0.80837  0.78811  1.0000
  C   C721      1.0  0.51484  0.97166  0.60887  1.0000
  C   C722      1.0  0.56022  0.84603  0.84470  1.0000
  C   C723      1.0  0.60688  0.82661  0.82229  1.0000
  H   H1280     1.0  0.64491  0.91348  0.57401  1.0000
  C   C724      1.0  0.43884  0.58778  0.94745  1.0000
  H   H1281     1.0  0.52205  0.94012  0.68482  1.0000
  C   C725      1.0  0.34447  0.97734  0.57159  1.0000
  H   H1282     1.0  0.36270  0.51057  0.97296  1.0000
  H   H1283     1.0  0.47809  0.98076  0.62303  1.0000
  C   C726      1.0  0.33058  0.66126  0.90063  1.0000
  H   H1284     1.0  0.34410  0.94439  0.55836  1.0000
  C   C727      1.0  0.53948  0.79462  0.81854  1.0000
  H   H1285     1.0  0.34614  0.90635  0.66377  1.0000
  H   H1286     1.0  0.50093  0.79913  0.81840  1.0000
  H   H1287     1.0  0.44766  0.58222  0.92973  1.0000
  H   H1288     1.0  0.35519  0.68307  0.92866  1.0000
  H   H1289     1.0  0.33764  0.74430  0.85454  1.0000
  C   C728      1.0  0.55727  0.90001  0.63383  1.0000
  H   H1290     1.0  0.35587  0.98044  0.74063  1.0000
  H   H1291     1.0  0.45292  0.63199  0.94531  1.0000
  H   H1292     1.0  0.35940  0.93367  0.65509  1.0000
  H   H1293     1.0  0.64261  0.82983  0.80416  1.0000
  H   H1294     1.0  0.36069  0.69887  0.96547  1.0000
  C   C729      1.0  0.35295  0.91948  0.64773  1.0000
  H   H1295     1.0  0.32866  0.93135  0.68900  1.0000
  H   H1296     1.0  0.33363  0.70168  0.86290  1.0000
  H   H1297     1.0  0.42465  0.60286  0.94286  1.0000
  H   H1298     1.0  0.34142  0.98313  0.49480  1.0000
  H   H1299     1.0  0.54824  0.57015  0.96060  1.0000
  H   H1300     1.0  0.53572  0.62186  0.96980  1.0000
  C   C730      1.0  0.35925  0.98103  0.48383  1.0000
  Fe  Fe82      1.0  0.42402  0.98074  0.61770  1.0000
  C   C731      1.0  0.33668  0.94003  0.47894  1.0000
  H   H1301     1.0  0.64775  0.94152  0.58262  1.0000
  S   S168      1.0  0.35838  0.56648  0.97016  1.0000
  H   H1302     1.0  0.34169  0.93895  0.61206  1.0000
  C   C732      1.0  0.64476  0.49160  0.96935  1.0000
  H   H1303     1.0  0.51279  0.94140  0.97004  1.0000
  H   H1304     1.0  0.65213  0.94317  0.53602  1.0000
  H   H1305     1.0  0.33332  0.96499  0.65824  1.0000
  H   H1306     1.0  0.48107  0.94931  0.97682  1.0000
  H   H1307     1.0  0.34615  0.67252  0.97563  1.0000
  H   H1308     1.0  0.63174  0.64143  0.97791  1.0000
  H   H1309     1.0  0.90298  0.23843  0.47353  1.0000
  H   H1310     1.0  0.94832  0.45281  0.27439  1.0000
  C   C733      1.0  0.94208  0.45451  0.36038  1.0000
  H   H1311     1.0  0.98216  0.20039  0.34230  1.0000
  C   C734      1.0  0.66878  0.05112  0.29083  1.0000
  C   C735      1.0  0.93193  0.25719  0.45533  1.0000
  H   H1312     1.0  0.89118  0.45943  0.03368  1.0000
  H   H1313     1.0  0.92625  0.47227  0.16529  1.0000
  H   H1314     1.0  0.94321  0.24833  0.47044  1.0000
  C   C736      1.0  0.70942  0.08266  0.46505  1.0000
  C   C737      1.0  0.89299  0.46577  0.23776  1.0000
  S   S169      1.0  0.69323  0.37458  0.05280  1.0000
  H   H1315     1.0  0.89508  0.40099  0.39950  1.0000
  H   H1316     1.0  0.92320  0.42465  0.30228  1.0000
  S   S170      1.0  0.79229  0.40479  0.06465  1.0000
  Fe  Fe83      1.0  0.93863  0.28779  0.36496  1.0000
  S   S171      1.0  0.95945  0.28539  0.39758  1.0000
  S   S172      1.0  0.92547  0.25366  0.36190  1.0000
  Fe  Fe84      1.0  0.94453  0.34024  0.34519  1.0000
  S   S173      1.0  0.96619  0.34165  0.37618  1.0000
  S   S174      1.0  0.93073  0.37446  0.32003  1.0000
  H   H1317     1.0  0.84388  0.30572  0.42318  1.0000
  H   H1318     1.0  0.74290  0.46095  0.11568  1.0000
  Fe  Fe85      1.0  0.93933  0.32121  0.40122  1.0000
  S   S175      1.0  0.96511  0.30586  0.33615  1.0000
  S   S176      1.0  0.91618  0.32197  0.37103  1.0000
  C   C738      1.0  0.90414  0.24462  0.38676  1.0000
  C   C739      1.0  0.88890  0.21306  0.41842  1.0000
  C   C740      1.0  0.90560  0.22060  0.39837  1.0000
  C   C741      1.0  0.98761  0.40201  0.27840  1.0000
  H   H1319     1.0  0.91978  0.20787  0.39202  1.0000
  Fe  Fe86      1.0  0.80136  0.44074  0.06840  1.0000
  C   C742      1.0  0.87004  0.22935  0.42623  1.0000
  C   C743      1.0  0.67303  0.00638  0.30343  1.0000
  H   H1320     1.0  0.66444  0.48127  0.08144  1.0000
  S   S177      1.0  0.92296  0.32990  0.43855  1.0000
  Fe  Fe87      1.0  0.68144  0.37033  0.01604  1.0000
  S   S178      1.0  0.86943  0.14984  0.46107  1.0000
  H   H1321     1.0  0.95045  0.44543  0.39833  1.0000
  H   H1322     1.0  0.98302  0.40143  0.19491  1.0000
  C   C744      1.0  0.71997  0.38521  0.05550  1.0000
  C   C745      1.0  0.72976  0.37830  0.07844  1.0000
  C   C746      1.0  0.75131  0.38556  0.08154  1.0000
  C   C747      1.0  0.76288  0.40065  0.06211  1.0000
  C   C748      1.0  0.75260  0.40859  0.03945  1.0000
  C   C749      1.0  0.73129  0.40062  0.03598  1.0000
  H   H1323     1.0  0.72107  0.36654  0.09365  1.0000
  H   H1324     1.0  0.75933  0.37897  0.09890  1.0000
  H   H1325     1.0  0.76161  0.42013  0.02433  1.0000
  H   H1326     1.0  0.72366  0.40633  0.01831  1.0000
  C   C750      1.0  0.90062  0.40940  0.37994  1.0000
  S   S179      1.0  0.72870  0.01417  0.46609  1.0000
  H   H1327     1.0  0.96960  0.15058  0.39861  1.0000
  S   S180      1.0  0.83977  0.44618  0.06089  1.0000
  C   C751      1.0  0.94989  0.39407  0.30210  1.0000
  C   C752      1.0  0.94108  0.41826  0.29531  1.0000
  C   C753      1.0  0.95529  0.43422  0.27966  1.0000
  H   H1328     1.0  0.79411  0.10050  0.44187  1.0000
  C   C754      1.0  0.98467  0.33827  0.46197  1.0000
  H   H1329     1.0  0.71775  0.99261  0.32100  1.0000
  C   C755      1.0  0.98034  0.20408  0.36180  1.0000
  H   H1330     1.0  0.91059  0.45011  0.13739  1.0000
  H   H1331     1.0  0.95547  0.20967  0.45486  1.0000
  H   H1332     1.0  0.70109  0.03973  0.31043  1.0000
  H   H1333     1.0  0.96130  0.45383  0.35381  1.0000
  H   H1334     1.0  0.93277  0.44854  0.34657  1.0000
  C   C756      1.0  0.97331  0.38601  0.29389  1.0000
  C   C757      1.0  0.71527  0.98442  0.30481  1.0000
  H   H1335     1.0  0.93151  0.41048  0.35297  1.0000
  H   H1336     1.0  0.85513  0.33384  0.41953  1.0000
  C   C758      1.0  0.84484  0.02984  0.42560  1.0000
  H   H1337     1.0  0.70168  0.07654  0.32633  1.0000
  H   H1338     1.0  0.86981  0.35673  0.28522  1.0000
  H   H1339     1.0  0.86823  0.42610  0.16838  1.0000
  N   N42       1.0  0.88327  0.07814  0.43352  1.0000
  H   H1340     1.0  0.87977  0.39667  0.16236  1.0000
  H   H1341     1.0  0.68072  0.05474  0.27306  1.0000
  H   H1342     1.0  0.89087  0.40828  0.34281  1.0000
  H   H1343     1.0  0.84031  0.35391  0.04409  1.0000
  H   H1344     1.0  0.89125  0.38017  0.36452  1.0000
  H   H1345     1.0  0.93516  0.07049  0.43947  1.0000
  H   H1346     1.0  0.94985  0.17586  0.38783  1.0000
  C   C759      1.0  0.84692  0.45075  0.99020  1.0000
  H   H1347     1.0  0.95853  0.21496  0.40675  1.0000
  H   H1348     1.0  0.67175  0.02316  0.25428  1.0000
  H   H1349     1.0  0.97031  0.42023  0.34006  1.0000
  C   C760      1.0  0.85549  0.05333  0.41791  1.0000
  C   C761      1.0  0.98486  0.12649  0.45424  1.0000
  C   C762      1.0  0.93865  0.43925  0.38697  1.0000
  C   C763      1.0  0.87608  0.47116  0.13758  1.0000
  Fe  Fe88      1.0  0.98436  0.30573  0.36969  1.0000
  H   H1350     1.0  0.84301  0.44479  0.01006  1.0000
  C   C764      1.0  0.90530  0.06803  0.41856  1.0000
  C   C765      1.0  0.86797  0.25315  0.41386  1.0000
  H   H1351     1.0  0.85857  0.40022  0.18932  1.0000
  C   C766      1.0  0.84853  0.47490  0.98063  1.0000
  C   C767      1.0  0.67441  0.44421  0.05010  1.0000
  H   H1352     1.0  0.83015  0.33216  0.01205  1.0000
  C   C768      1.0  0.80574  0.36570  0.01056  1.0000
  H   H1353     1.0  0.74468  0.43529  0.10076  1.0000
  H   H1354     1.0  0.88387  0.27944  0.38540  1.0000
  Fe  Fe89      1.0  0.83415  0.46503  0.09403  1.0000
  H   H1355     1.0  0.94665  0.12582  0.37992  1.0000
  C   C769      1.0  0.89931  0.46464  0.14461  1.0000
  H   H1356     1.0  0.90472  0.29138  0.47637  1.0000
  C   C770      1.0  0.81468  0.10104  0.47224  1.0000
  C   C771      1.0  0.94872  0.06902  0.40126  1.0000
  C   C772      1.0  0.85760  0.28686  0.47123  1.0000
  H   H1357     1.0  0.89044  0.19456  0.42755  1.0000
  H   H1358     1.0  0.81154  0.35046  0.06145  1.0000
  H   H1359     1.0  0.71203  0.43307  0.07517  1.0000
  H   H1360     1.0  0.85095  0.06564  0.45341  1.0000
  H   H1361     1.0  0.92682  0.15223  0.36868  1.0000
  H   H1362     1.0  0.67389  0.08940  0.31421  1.0000
  H   H1363     1.0  0.83575  0.02670  0.40995  1.0000
  C   C773      1.0  0.81569  0.34071  0.02423  1.0000
  S   S181      1.0  0.84941  0.22027  0.45183  1.0000
  C   C774      1.0  0.70147  0.45024  0.07878  1.0000
  H   H1364     1.0  0.93604  0.24765  0.43912  1.0000
  H   H1365     1.0  0.79225  0.37407  0.02396  1.0000
  H   H1366     1.0  0.68854  0.44548  0.09540  1.0000
  C   C775      1.0  0.80152  0.09016  0.45850  1.0000
  H   H1367     1.0  0.69269  0.45961  0.00153  1.0000
  C   C776      1.0  0.79764  0.06615  0.46623  1.0000
  H   H1368     1.0  0.96529  0.42840  0.18146  1.0000
  S   S182      1.0  0.78855  0.47460  0.04321  1.0000
  C   C777      1.0  0.92779  0.40356  0.37331  1.0000
  H   H1369     1.0  0.85303  0.26556  0.41933  1.0000
  C   C778      1.0  0.93779  0.40118  0.41595  1.0000
  C   C779      1.0  0.94372  0.14091  0.36403  1.0000
  C   C780      1.0  0.95557  0.40319  0.43453  1.0000
  C   C781      1.0  0.86633  0.30816  0.45182  1.0000
  H   H1370     1.0  0.73119  0.47224  0.07257  1.0000
  H   H1371     1.0  0.94208  0.13357  0.34702  1.0000
  H   H1372     1.0  0.97488  0.38618  0.39075  1.0000
  H   H1373     1.0  0.90401  0.48280  0.08923  1.0000
  C   C782      1.0  0.94530  0.39616  0.46185  1.0000
  H   H1374     1.0  0.90146  0.09717  0.45456  1.0000
  S   S183      1.0  0.93738  0.13158  0.44985  1.0000
  H   H1375     1.0  0.89603  0.45142  0.06642  1.0000
  H   H1376     1.0  0.76288  0.35252  0.02723  1.0000
  C   C783      1.0  0.92903  0.07731  0.42060  1.0000
  H   H1377     1.0  0.95321  0.18619  0.42478  1.0000
  C   C784      1.0  0.87082  0.10024  0.41834  1.0000
  H   H1378     1.0  0.68636  0.42927  0.04299  1.0000
  H   H1379     1.0  0.96548  0.07553  0.40356  1.0000
  Fe  Fe90      1.0  0.86424  0.18525  0.47382  1.0000
  H   H1380     1.0  0.98704  0.13116  0.43406  1.0000
  C   C785      1.0  0.96725  0.33697  0.44668  1.0000
  C   C786      1.0  0.88579  0.12089  0.40770  1.0000
  C   C787      1.0  0.87040  0.14318  0.39561  1.0000
  C   C788      1.0  0.97224  0.20625  0.44273  1.0000
  H   H1381     1.0  0.89281  0.35045  0.26063  1.0000
  C   C789      1.0  0.75748  0.35025  0.00913  1.0000
  S   S184      1.0  0.86614  0.45534  0.11693  1.0000
  C   C790      1.0  0.86616  0.05971  0.44017  1.0000
  H   H1382     1.0  0.86445  0.09602  0.40152  1.0000
  H   H1383     1.0  0.85462  0.10730  0.42975  1.0000
  H   H1384     1.0  0.98083  0.22282  0.43779  1.0000
  Fe  Fe91      1.0  0.76738  0.01712  0.45373  1.0000
  H   H1385     1.0  0.92997  0.40936  0.46667  1.0000
  H   H1386     1.0  0.90244  0.07105  0.39829  1.0000
  Fe  Fe92      1.0  0.90570  0.14643  0.47369  1.0000
  C   C791      1.0  0.96448  0.15564  0.35903  1.0000
  H   H1387     1.0  0.69396  0.07727  0.45820  1.0000
  S   S185      1.0  0.78030  0.05374  0.44847  1.0000
  H   H1388     1.0  0.86910  0.05159  0.40170  1.0000
  C   C792      1.0  0.88675  0.39985  0.36273  1.0000
  H   H1389     1.0  0.89459  0.12591  0.42245  1.0000
  H   H1390     1.0  0.89956  0.11560  0.39279  1.0000
  H   H1391     1.0  0.86251  0.13952  0.37939  1.0000
  H   H1392     1.0  0.85589  0.14926  0.40945  1.0000
  H   H1393     1.0  0.88146  0.15788  0.38879  1.0000
  C   C793      1.0  0.96733  0.16574  0.38268  1.0000
  H   H1394     1.0  0.91996  0.40902  0.42348  1.0000
  H   H1395     1.0  0.87494  0.04267  0.45039  1.0000
  H   H1396     1.0  0.76813  0.39495  0.99300  1.0000
  H   H1397     1.0  0.72052  0.45158  0.03267  1.0000
  C   C794      1.0  0.88536  0.26095  0.39463  1.0000
  C   C795      1.0  0.71812  0.46497  0.08784  1.0000
  C   C796      1.0  0.68410  0.05170  0.31226  1.0000
  H   H1398     1.0  0.93607  0.27574  0.44878  1.0000
  H   H1399     1.0  0.82048  0.37688  0.00755  1.0000
  C   C797      1.0  0.73230  0.44961  0.10841  1.0000
  Fe  Fe93      1.0  0.72913  0.99446  0.43417  1.0000
  H   H1400     1.0  0.98067  0.14380  0.35354  1.0000
  Fe  Fe94      1.0  0.98178  0.48099  0.22957  1.0000
  C   C798      1.0  0.96661  0.19884  0.41896  1.0000
  H   H1401     1.0  0.74428  0.36573  0.00273  1.0000
  C   C799      1.0  0.84795  0.31920  0.43350  1.0000
  C   C800      1.0  0.77879  0.34828  0.98856  1.0000
  S   S186      1.0  0.76677  0.00028  0.41966  1.0000
  C   C801      1.0  0.82570  0.34258  0.04836  1.0000
  S   S187      1.0  0.69571  0.38819  0.97803  1.0000
  H   H1402     1.0  0.98030  0.36741  0.29917  1.0000
  H   H1403     1.0  0.72956  0.33014  0.02883  1.0000
  H   H1404     1.0  0.83280  0.32454  0.05789  1.0000
  H   H1405     1.0  0.67609  0.00715  0.32291  1.0000
  H   H1406     1.0  0.89521  0.42895  0.37767  1.0000
  H   H1407     1.0  0.90013  0.35939  0.28845  1.0000
  H   H1408     1.0  0.73838  0.32518  0.99700  1.0000
  S   S188      1.0  0.79656  0.45627  0.10389  1.0000
  H   H1409     1.0  0.67521  0.04583  0.33121  1.0000
  H   H1410     1.0  0.72027  0.44141  0.12432  1.0000
  H   H1411     1.0  0.96020  0.42153  0.43220  1.0000
  C   C802      1.0  0.90093  0.46335  0.04847  1.0000
  H   H1412     1.0  0.95179  0.04922  0.40398  1.0000
  H   H1413     1.0  0.86739  0.40395  0.36803  1.0000
  N   N43       1.0  0.90422  0.42142  0.23234  1.0000
  C   C803      1.0  0.90624  0.39674  0.24827  1.0000
  C   C804      1.0  0.92861  0.42764  0.22110  1.0000
  C   C805      1.0  0.89370  0.43889  0.24950  1.0000
  C   C806      1.0  0.88790  0.42397  0.21208  1.0000
  C   C807      1.0  0.89443  0.40656  0.19317  1.0000
  C   C808      1.0  0.88274  0.38831  0.26212  1.0000
  H   H1414     1.0  0.84089  0.06746  0.41172  1.0000
  C   C809      1.0  0.94746  0.40701  0.21396  1.0000
  S   S189      1.0  0.69603  0.00279  0.41332  1.0000
  C   C810      1.0  0.87398  0.40749  0.17740  1.0000
  C   C811      1.0  0.88670  0.36213  0.27483  1.0000
  N   N44       1.0  0.68874  0.46207  0.05608  1.0000
  H   H1415     1.0  0.91853  0.39568  0.26285  1.0000
  H   H1416     1.0  0.91453  0.38295  0.23707  1.0000
  H   H1417     1.0  0.92710  0.44194  0.20419  1.0000
  H   H1418     1.0  0.93699  0.43533  0.23453  1.0000
  H   H1419     1.0  0.90366  0.43570  0.26627  1.0000
  H   H1420     1.0  0.87504  0.43621  0.25675  1.0000
  H   H1421     1.0  0.86927  0.42274  0.22050  1.0000
  H   H1422     1.0  0.88720  0.44214  0.20043  1.0000
  H   H1423     1.0  0.89844  0.38780  0.20257  1.0000
  H   H1424     1.0  0.91002  0.41184  0.18005  1.0000
  H   H1425     1.0  0.87561  0.39889  0.27708  1.0000
  H   H1426     1.0  0.86915  0.38992  0.24894  1.0000
  H   H1427     1.0  0.93184  0.38382  0.37511  1.0000
  C   C812      1.0  0.98925  0.18655  0.40549  1.0000
  H   H1428     1.0  0.95306  0.39493  0.23131  1.0000
  H   H1429     1.0  0.94061  0.39629  0.20235  1.0000
  N   N45       1.0  0.79582  0.36640  0.98602  1.0000
  H   H1430     1.0  0.70542  0.01694  0.27944  1.0000
  H   H1431     1.0  0.90869  0.04826  0.42421  1.0000
  H   H1432     1.0  0.92039  0.44453  0.39556  1.0000
  H   H1433     1.0  0.87001  0.32255  0.46106  1.0000
  H   H1434     1.0  0.85638  0.27238  0.46076  1.0000
  C   C813      1.0  0.97856  0.42606  0.27096  1.0000
  C   C814      1.0  0.69748  0.00054  0.28832  1.0000
  C   C815      1.0  0.90820  0.47708  0.16050  1.0000
  N   N46       1.0  0.94350  0.41249  0.38875  1.0000
  H   H1435     1.0  0.91309  0.48283  0.36629  1.0000
  H   H1436     1.0  0.92741  0.09697  0.41772  1.0000
  H   H1437     1.0  0.93672  0.38173  0.41751  1.0000
  H   H1438     1.0  0.97339  0.25102  0.33655  1.0000
  H   H1439     1.0  0.83132  0.32672  0.44367  1.0000
  C   C816      1.0  0.99236  0.24394  0.33812  1.0000
  H   H1440     1.0  0.97060  0.34206  0.42659  1.0000
  C   C817      1.0  0.94530  0.33004  0.45750  1.0000
  H   H1441     1.0  0.88289  0.30217  0.44051  1.0000
  S   S190      1.0  0.68349  0.33396  0.00579  1.0000
  H   H1442     1.0  0.85895  0.01464  0.43006  1.0000
  C   C818      1.0  0.69028  0.07680  0.31124  1.0000
  H   H1443     1.0  0.96091  0.17030  0.34296  1.0000
  H   H1444     1.0  0.80158  0.32888  0.02968  1.0000
  H   H1445     1.0  0.81723  0.11961  0.46624  1.0000
  H   H1446     1.0  0.89552  0.26252  0.44848  1.0000
  C   C819      1.0  0.96968  0.41655  0.19935  1.0000
  H   H1447     1.0  0.94403  0.07634  0.38187  1.0000
  H   H1448     1.0  0.98086  0.41608  0.38716  1.0000
  H   H1449     1.0  0.83155  0.03049  0.44229  1.0000
  H   H1450     1.0  0.73246  0.47310  0.98727  1.0000
  C   C820      1.0  0.74493  0.32796  0.01440  1.0000
  C   C821      1.0  0.70707  0.46752  0.03402  1.0000
  H   H1451     1.0  0.70013  0.08321  0.29282  1.0000
  H   H1452     1.0  0.75715  0.31198  0.02174  1.0000
  C   C822      1.0  0.96943  0.40471  0.38099  1.0000
  H   H1453     1.0  0.93933  0.37825  0.46509  1.0000
  Fe  Fe95      1.0  0.82656  0.48123  0.03843  1.0000
  H   H1454     1.0  0.96975  0.38881  0.34752  1.0000
  H   H1455     1.0  0.95911  0.39554  0.47462  1.0000
  H   H1456     1.0  0.97228  0.39103  0.43155  1.0000
  H   H1457     1.0  0.98410  0.19193  0.45353  1.0000
  H   H1458     1.0  0.72572  0.07667  0.45325  1.0000
  C   C823      1.0  0.88846  0.08415  0.45788  1.0000
  H   H1459     1.0  0.98892  0.23335  0.37823  1.0000
  H   H1460     1.0  0.70717  0.10243  0.46286  1.0000
  C   C824      1.0  0.69739  0.47532  0.00801  1.0000
  C   C825      1.0  0.96229  0.12413  0.46686  1.0000
  H   H1461     1.0  0.70746  0.47984  0.09613  1.0000
  H   H1462     1.0  0.96129  0.21121  0.36548  1.0000
  H   H1463     1.0  0.92028  0.45952  0.04294  1.0000
  C   C826      1.0  0.97692  0.40382  0.35270  1.0000
  H   H1464     1.0  0.97767  0.42664  0.21083  1.0000
  H   H1465     1.0  0.80445  0.41356  0.99136  1.0000
  H   H1466     1.0  0.66353  0.99043  0.30558  1.0000
  N   N47       1.0  0.98676  0.18133  0.38000  1.0000
  C   C827      1.0  0.78267  0.39088  0.97832  1.0000
  H   H1467     1.0  0.78841  0.32983  0.99179  1.0000
  H   H1468     1.0  0.69514  0.99099  0.27309  1.0000
  H   H1469     1.0  0.66790  0.41922  0.08536  1.0000
  C   C828      1.0  0.90574  0.25706  0.46496  1.0000
  C   C829      1.0  0.89729  0.06240  0.47767  1.0000
  H   H1470     1.0  0.66334  0.45264  0.03456  1.0000
  H   H1471     1.0  0.91079  0.47027  0.22933  1.0000
  H   H1472     1.0  0.87220  0.09352  0.46710  1.0000
  C   C830      1.0  0.66636  0.98856  0.38486  1.0000
  H   H1473     1.0  0.88059  0.47078  0.22300  1.0000
  H   H1474     1.0  0.84975  0.41538  0.98152  1.0000
  H   H1475     1.0  0.91058  0.04954  0.46890  1.0000
  C   C831      1.0  0.93254  0.48074  0.36065  1.0000
  H   H1476     1.0  0.89684  0.47789  0.27238  1.0000
  S   S191      1.0  0.97249  0.48239  0.19034  1.0000
  H   H1477     1.0  0.86632  0.47833  0.26632  1.0000
  C   C832      1.0  0.88445  0.48149  0.25759  1.0000
  C   C833      1.0  0.68902  0.98440  0.39340  1.0000
  H   H1478     1.0  0.71741  0.48147  0.03666  1.0000
  H   H1479     1.0  0.93178  0.12275  0.59726  1.0000
  C   C834      1.0  0.98002  0.17039  0.52071  1.0000
  C   C835      1.0  0.82391  0.08805  0.49408  1.0000
  C   C836      1.0  0.70304  0.08815  0.55242  1.0000
  H   H1480     1.0  0.76113  0.99125  0.53305  1.0000
  H   H1481     1.0  0.69892  0.10038  0.53473  1.0000
  S   S192      1.0  0.72599  0.33760  0.94201  1.0000
  Fe  Fe96      1.0  0.84115  0.43965  0.89256  1.0000
  C   C837      1.0  0.94100  0.32383  0.48364  1.0000
  S   S193      1.0  0.85743  0.42106  0.92758  1.0000
  Fe  Fe97      1.0  0.80113  0.43543  0.86335  1.0000
  H   H1482     1.0  0.96358  0.34052  0.70283  1.0000
  S   S194      1.0  0.77612  0.41086  0.85714  1.0000
  Fe  Fe98      1.0  0.84542  0.45588  0.83565  1.0000
  C   C838      1.0  0.98876  0.38852  0.67300  1.0000
  C   C839      1.0  0.97976  0.11265  0.50644  1.0000
  H   H1483     1.0  0.88206  0.05287  0.48685  1.0000
  S   S195      1.0  0.83967  0.42086  0.86061  1.0000
  H   H1484     1.0  0.81568  0.23083  0.54250  1.0000
  H   H1485     1.0  0.85994  0.38544  0.78662  1.0000
  H   H1486     1.0  0.87767  0.24453  0.51993  1.0000
  S   S196      1.0  0.92237  0.27064  0.58571  1.0000
  H   H1487     1.0  0.74006  0.11376  0.53297  1.0000
  S   S197      1.0  0.96060  0.32365  0.56970  1.0000
  C   C840      1.0  0.90988  0.45720  0.76925  1.0000
  H   H1488     1.0  0.66833  0.45509  0.86207  1.0000
  S   S198      1.0  0.83927  0.10126  0.51300  1.0000
  Fe  Fe99      1.0  0.88770  0.16704  0.52115  1.0000
  H   H1489     1.0  0.67013  0.10195  0.57245  1.0000
  S   S199      1.0  0.89879  0.17553  0.55661  1.0000
  H   H1490     1.0  0.88047  0.30185  0.56974  1.0000
  H   H1491     1.0  0.66784  0.07641  0.55871  1.0000
  C   C841      1.0  0.89832  0.27392  0.48438  1.0000
  C   C842      1.0  0.96965  0.21709  0.60973  1.0000
  S   S200      1.0  0.84957  0.17066  0.51321  1.0000
  S   S201      1.0  0.89495  0.12961  0.51323  1.0000
  C   C843      1.0  0.91675  0.24459  0.57589  1.0000
  C   C844      1.0  0.92455  0.23923  0.55182  1.0000
  C   C845      1.0  0.91785  0.21894  0.54468  1.0000
  C   C846      1.0  0.90431  0.20348  0.56202  1.0000
  C   C847      1.0  0.89676  0.20903  0.58587  1.0000
  C   C848      1.0  0.90234  0.22970  0.59246  1.0000
  H   H1492     1.0  0.93534  0.25088  0.53866  1.0000
  H   H1493     1.0  0.92370  0.21489  0.52615  1.0000
  H   H1494     1.0  0.88640  0.19724  0.59941  1.0000
  H   H1495     1.0  0.89567  0.23390  0.61075  1.0000
  H   H1496     1.0  0.79626  0.35489  0.93665  1.0000
  C   C849      1.0  0.67590  0.01689  0.54575  1.0000
  C   C850      1.0  0.93155  0.47294  0.80488  1.0000
  C   C851      1.0  0.71105  0.07113  0.49260  1.0000
  C   C852      1.0  0.95884  0.32407  0.49887  1.0000
  H   H1497     1.0  0.81353  0.40855  0.95970  1.0000
  H   H1498     1.0  0.98921  0.41091  0.60397  1.0000
  H   H1499     1.0  0.93990  0.47903  0.81876  1.0000
  C   C853      1.0  0.78389  0.43515  0.96341  1.0000
  H   H1500     1.0  0.94619  0.16186  0.58666  1.0000
  C   C854      1.0  0.98057  0.33156  0.48805  1.0000
  H   H1501     1.0  0.96245  0.18154  0.61034  1.0000
  H   H1502     1.0  0.83843  0.26421  0.53690  1.0000
  H   H1503     1.0  0.80386  0.38472  0.93245  1.0000
  H   H1504     1.0  0.77084  0.34978  0.97064  1.0000
  H   H1505     1.0  0.76340  0.04036  0.51014  1.0000
  H   H1506     1.0  0.97426  0.23308  0.59602  1.0000
  C   C855      1.0  0.85065  0.43406  0.97398  1.0000
  C   C856      1.0  0.72353  0.44764  0.94534  1.0000
  C   C857      1.0  0.73540  0.47049  0.82194  1.0000
  H   H1507     1.0  0.95413  0.20307  0.58314  1.0000
  H   H1508     1.0  0.69236  0.41967  0.85697  1.0000
  C   C858      1.0  0.94490  0.46842  0.78242  1.0000
  S   S202      1.0  0.97890  0.28042  0.61326  1.0000
  H   H1509     1.0  0.78829  0.00440  0.53050  1.0000
  H   H1510     1.0  0.73127  0.42868  0.95047  1.0000
  H   H1511     1.0  0.73573  0.44116  0.86895  1.0000
  C   C859      1.0  0.89663  0.46140  0.79188  1.0000
  H   H1512     1.0  0.77544  0.06817  0.53104  1.0000
  C   C860      1.0  0.85480  0.44164  0.94801  1.0000
  H   H1513     1.0  0.73528  0.03070  0.51948  1.0000
  H   H1514     1.0  0.82602  0.26422  0.50819  1.0000
  H   H1515     1.0  0.94262  0.11427  0.50288  1.0000
  H   H1516     1.0  0.98105  0.26461  0.49162  1.0000
  H   H1517     1.0  0.96125  0.44800  0.64350  1.0000
  C   C861      1.0  0.74097  0.35810  0.91949  1.0000
  C   C862      1.0  0.74628  0.37938  0.92505  1.0000
  C   C863      1.0  0.75860  0.39517  0.90655  1.0000
  C   C864      1.0  0.76460  0.39010  0.88220  1.0000
  C   C865      1.0  0.75926  0.36881  0.87683  1.0000
  C   C866      1.0  0.74805  0.35264  0.89552  1.0000
  H   H1518     1.0  0.74089  0.38361  0.94357  1.0000
  H   H1519     1.0  0.76262  0.41163  0.91079  1.0000
  H   H1520     1.0  0.76375  0.36482  0.85805  1.0000
  H   H1521     1.0  0.74417  0.33616  0.89115  1.0000
  C   C867      1.0  0.69743  0.41762  0.87635  1.0000
  H   H1522     1.0  0.84142  0.37952  0.81598  1.0000
  H   H1523     1.0  0.69876  0.36799  0.88789  1.0000
  H   H1524     1.0  0.84855  0.30064  0.51511  1.0000
  C   C868      1.0  0.67500  0.45667  0.87989  1.0000
  H   H1525     1.0  0.66779  0.36767  0.89843  1.0000
  H   H1526     1.0  0.71529  0.40674  0.87643  1.0000
  C   C869      1.0  0.77471  0.11233  0.54447  1.0000
  H   H1527     1.0  0.82745  0.05374  0.51848  1.0000
  C   C870      1.0  0.69394  0.00343  0.53244  1.0000
  H   H1528     1.0  0.98969  0.14440  0.59732  1.0000
  C   C871      1.0  0.87193  0.30731  0.55201  1.0000
  Fe  Fe100     1.0  0.95808  0.28438  0.58006  1.0000
  H   H1529     1.0  0.70138  0.01120  0.51405  1.0000
  C   C872      1.0  0.83958  0.25486  0.52071  1.0000
  N   N48       1.0  0.92305  0.38373  0.82011  1.0000
  C   C873      1.0  0.91952  0.38944  0.84639  1.0000
  C   C874      1.0  0.93213  0.35748  0.82072  1.0000
  C   C875      1.0  0.94181  0.39809  0.80509  1.0000
  C   C876      1.0  0.90067  0.39059  0.80710  1.0000
  C   C877      1.0  0.87875  0.37873  0.82024  1.0000
  C   C878      1.0  0.91120  0.41589  0.84876  1.0000
  C   C879      1.0  0.94884  0.39402  0.77754  1.0000
  C   C880      1.0  0.92439  0.33959  0.84456  1.0000
  C   C881      1.0  0.93170  0.31377  0.84076  1.0000
  C   C882      1.0  0.85681  0.38853  0.80634  1.0000
  C   C883      1.0  0.90565  0.41867  0.87630  1.0000
  C   C884      1.0  0.95107  0.12374  0.59690  1.0000
  H   H1530     1.0  0.93643  0.38405  0.85531  1.0000
  H   H1531     1.0  0.90635  0.37897  0.85863  1.0000
  H   H1532     1.0  0.92716  0.35141  0.80411  1.0000
  H   H1533     1.0  0.95195  0.35452  0.81903  1.0000
  H   H1534     1.0  0.95817  0.39461  0.81506  1.0000
  H   H1535     1.0  0.93587  0.41755  0.80355  1.0000
  H   H1536     1.0  0.89573  0.41025  0.80382  1.0000
  H   H1537     1.0  0.90376  0.38604  0.78792  1.0000
  H   H1538     1.0  0.87437  0.38191  0.83981  1.0000
  H   H1539     1.0  0.88199  0.35926  0.82022  1.0000
  H   H1540     1.0  0.92533  0.42716  0.84051  1.0000
  H   H1541     1.0  0.89483  0.42288  0.83948  1.0000
  H   H1542     1.0  0.93503  0.40394  0.76548  1.0000
  H   H1543     1.0  0.89450  0.08061  0.50943  1.0000
  H   H1544     1.0  0.93313  0.34202  0.86079  1.0000
  H   H1545     1.0  0.90495  0.34205  0.84973  1.0000
  H   H1546     1.0  0.92650  0.30143  0.85829  1.0000
  H   H1547     1.0  0.69409  0.07684  0.50348  1.0000
  H   H1548     1.0  0.89737  0.47289  0.82703  1.0000
  C   C885      1.0  0.90829  0.07001  0.49842  1.0000
  C   C886      1.0  0.98435  0.14853  0.57785  1.0000
  H   H1549     1.0  0.85238  0.30899  0.55687  1.0000
  H   H1550     1.0  0.89127  0.40805  0.88560  1.0000
  H   H1551     1.0  0.92168  0.41278  0.88652  1.0000
  H   H1552     1.0  0.89955  0.43771  0.87750  1.0000
  H   H1553     1.0  0.84673  0.21913  0.54291  1.0000
  C   C887      1.0  0.68080  0.37811  0.88594  1.0000
  H   H1554     1.0  0.98286  0.20204  0.53525  1.0000
  H   H1555     1.0  0.77354  0.39166  0.96136  1.0000
  H   H1556     1.0  0.66968  0.03503  0.53749  1.0000
  H   H1557     1.0  0.97772  0.10716  0.52666  1.0000
  H   H1558     1.0  0.71889  0.43858  0.83065  1.0000
  H   H1559     1.0  0.86555  0.24166  0.49268  1.0000
  C   C888      1.0  0.83315  0.22978  0.53098  1.0000
  C   C889      1.0  0.72044  0.45401  0.91737  1.0000
  H   H1560     1.0  0.95220  0.22192  0.62018  1.0000
  C   C890      1.0  0.83201  0.35917  0.92104  1.0000
  H   H1561     1.0  0.98721  0.39237  0.77697  1.0000
  H   H1562     1.0  0.80507  0.03437  0.49356  1.0000
  H   H1563     1.0  0.96269  0.39057  0.64712  1.0000
  N   N49       1.0  0.91326  0.31174  0.65563  1.0000
  C   C891      1.0  0.91826  0.32971  0.63212  1.0000
  C   C892      1.0  0.93383  0.30828  0.67134  1.0000
  C   C893      1.0  0.91239  0.28822  0.64753  1.0000
  C   C894      1.0  0.88999  0.31867  0.67065  1.0000
  C   C895      1.0  0.88176  0.34582  0.66970  1.0000
  C   C896      1.0  0.90077  0.33254  0.61187  1.0000
  C   C897      1.0  0.90996  0.26635  0.66897  1.0000
  C   C898      1.0  0.93784  0.32995  0.68250  1.0000
  C   C899      1.0  0.93394  0.46071  0.76449  1.0000
  C   C900      1.0  0.86092  0.35010  0.68956  1.0000
  C   C901      1.0  0.90114  0.35645  0.59392  1.0000
  C   C902      1.0  0.90376  0.24520  0.65911  1.0000
  H   H1564     1.0  0.93625  0.32455  0.62278  1.0000
  H   H1565     1.0  0.91914  0.34753  0.63657  1.0000
  H   H1566     1.0  0.93160  0.29390  0.68793  1.0000
  H   H1567     1.0  0.95067  0.30240  0.66012  1.0000
  H   H1568     1.0  0.92861  0.28358  0.63484  1.0000
  H   H1569     1.0  0.89726  0.28965  0.63614  1.0000
  H   H1570     1.0  0.87515  0.31156  0.66435  1.0000
  H   H1571     1.0  0.89061  0.31005  0.69074  1.0000
  H   H1572     1.0  0.87571  0.35414  0.65110  1.0000
  H   H1573     1.0  0.89605  0.35558  0.67269  1.0000
  H   H1574     1.0  0.90603  0.31816  0.60051  1.0000
  H   H1575     1.0  0.88227  0.33109  0.62038  1.0000
  H   H1576     1.0  0.89594  0.27062  0.68408  1.0000
  H   H1577     1.0  0.92707  0.26035  0.67722  1.0000
  H   H1578     1.0  0.94002  0.34586  0.66774  1.0000
  H   H1579     1.0  0.92275  0.33431  0.69650  1.0000
  C   C903      1.0  0.75782  0.10350  0.52984  1.0000
  C   C904      1.0  0.95734  0.14664  0.57958  1.0000
  H   H1580     1.0  0.95502  0.12355  0.61637  1.0000
  H   H1581     1.0  0.85499  0.36956  0.68799  1.0000
  H   H1582     1.0  0.84572  0.34127  0.68680  1.0000
  H   H1583     1.0  0.86632  0.34314  0.70875  1.0000
  H   H1584     1.0  0.88979  0.35714  0.57868  1.0000
  H   H1585     1.0  0.89422  0.37142  0.60411  1.0000
  H   H1586     1.0  0.91950  0.35873  0.58528  1.0000
  H   H1587     1.0  0.90286  0.22959  0.67461  1.0000
  H   H1588     1.0  0.88626  0.24968  0.65144  1.0000
  H   H1589     1.0  0.91760  0.24019  0.64411  1.0000
  H   H1590     1.0  0.85214  0.40796  0.80629  1.0000
  H   H1591     1.0  0.95125  0.31021  0.83623  1.0000
  C   C905      1.0  0.70439  0.43753  0.91009  1.0000
  N   N50       1.0  0.87221  0.27756  0.49311  1.0000
  N   N51       1.0  0.73839  0.06527  0.52852  1.0000
  H   H1592     1.0  0.71366  0.09683  0.56284  1.0000
  H   H1593     1.0  0.68783  0.43822  0.92315  1.0000
  H   H1594     1.0  0.96127  0.16858  0.48918  1.0000
  C   C906      1.0  0.67952  0.08450  0.56858  1.0000
  H   H1595     1.0  0.71367  0.41923  0.91560  1.0000
  H   H1596     1.0  0.95887  0.18708  0.55003  1.0000
  S   S203      1.0  0.86691  0.45544  0.79762  1.0000
  N   N52       1.0  0.69879  0.44164  0.88298  1.0000
  H   H1597     1.0  0.98584  0.23646  0.48065  1.0000
  H   H1598     1.0  0.82713  0.36294  0.90144  1.0000
  C   C907      1.0  0.82027  0.06396  0.50167  1.0000
  H   H1599     1.0  0.98328  0.21179  0.62325  1.0000
  H   H1600     1.0  0.85962  0.47178  0.91843  1.0000
  H   H1601     1.0  0.70615  0.45071  0.95671  1.0000
  H   H1602     1.0  0.77684  0.98824  0.56028  1.0000
  C   C908      1.0  0.71630  0.45607  0.83702  1.0000
  H   H1603     1.0  0.87715  0.32492  0.54250  1.0000
  C   C909      1.0  0.85613  0.46580  0.93841  1.0000
  H   H1604     1.0  0.90150  0.45108  0.75540  1.0000
  C   C910      1.0  0.86794  0.29573  0.51033  1.0000
  H   H1605     1.0  0.98150  0.15091  0.52744  1.0000
  C   C911      1.0  0.90748  0.46947  0.80961  1.0000
  H   H1606     1.0  0.84618  0.37012  0.92196  1.0000
  S   S204      1.0  0.97478  0.35030  0.62228  1.0000
  S   S205      1.0  0.99161  0.45320  0.70803  1.0000
  C   C912      1.0  0.99237  0.18897  0.58192  1.0000
  S   S206      1.0  0.80641  0.46945  0.83618  1.0000
  C   C913      1.0  0.95981  0.11681  0.49298  1.0000
  H   H1607     1.0  0.87559  0.27117  0.54593  1.0000
  H   H1608     1.0  0.69871  0.46569  0.83237  1.0000
  H   H1609     1.0  0.83114  0.37099  0.96723  1.0000
  C   C914      1.0  0.87996  0.28863  0.53512  1.0000
  S   S207      1.0  0.85075  0.47341  0.86756  1.0000
  H   H1610     1.0  0.92268  0.31008  0.82532  1.0000
  H   H1611     1.0  0.94231  0.17228  0.51747  1.0000
  H   H1612     1.0  0.95559  0.31881  0.51899  1.0000
  H   H1613     1.0  0.77622  0.13147  0.53701  1.0000
  H   H1614     1.0  0.79271  0.10210  0.54252  1.0000
  H   H1615     1.0  0.94401  0.45740  0.74703  1.0000
  H   H1616     1.0  0.73847  0.45191  0.90707  1.0000
  C   C915      1.0  0.96015  0.32430  0.69637  1.0000
  H   H1617     1.0  0.90878  0.26623  0.50054  1.0000
  C   C916      1.0  0.75736  0.07618  0.53781  1.0000
  C   C917      1.0  0.74853  0.04004  0.52549  1.0000
  C   C918      1.0  0.71680  0.06399  0.54747  1.0000
  C   C919      1.0  0.97247  0.40307  0.76677  1.0000
  C   C920      1.0  0.73228  0.07862  0.50294  1.0000
  C   C921      1.0  0.75744  0.02338  0.54938  1.0000
  C   C922      1.0  0.81016  0.36559  0.93889  1.0000
  H   H1618     1.0  0.95205  0.14619  0.56081  1.0000
  C   C923      1.0  0.99382  0.24820  0.49027  1.0000
  C   C924      1.0  0.67943  0.40247  0.89362  1.0000
  C   C925      1.0  0.81619  0.36084  0.96658  1.0000
  H   H1619     1.0  0.89956  0.28757  0.53110  1.0000
  H   H1620     1.0  0.71244  0.05168  0.49369  1.0000
  H   H1621     1.0  0.75642  0.07186  0.55872  1.0000
  C   C926      1.0  0.77182  0.00044  0.54282  1.0000
  H   H1622     1.0  0.98639  0.42041  0.55788  1.0000
  C   C927      1.0  0.80744  0.05297  0.48769  1.0000
  H   H1623     1.0  0.70429  0.05338  0.54197  1.0000
  H   H1624     1.0  0.72174  0.05408  0.56610  1.0000
  H   H1625     1.0  0.96116  0.10784  0.58993  1.0000
  H   H1626     1.0  0.79626  0.44879  0.95836  1.0000
  S   S208      1.0  0.98914  0.27405  0.55316  1.0000
  C   C928      1.0  0.85351  0.48230  0.95473  1.0000
  H   H1627     1.0  0.74206  0.01823  0.56294  1.0000
  H   H1628     1.0  0.76893  0.03187  0.55894  1.0000
  C   C929      1.0  0.86485  0.25387  0.50641  1.0000
  H   H1629     1.0  0.95069  0.37496  0.77585  1.0000
  C   C930      1.0  0.71854  0.45246  0.86558  1.0000
  C   C931      1.0  0.97865  0.38056  0.65437  1.0000
  H   H1630     1.0  0.74822  0.07711  0.48893  1.0000
  H   H1631     1.0  0.97192  0.42208  0.76828  1.0000
  Fe  Fe101     1.0  0.98430  0.31912  0.60068  1.0000
  H   H1632     1.0  0.76800  0.11039  0.56472  1.0000
  H   H1633     1.0  0.68296  0.39928  0.91362  1.0000
  Fe  Fe102     1.0  0.85815  0.13462  0.50116  1.0000
  Fe  Fe103     1.0  0.69537  0.35281  0.96697  1.0000
  H   H1634     1.0  0.83888  0.33994  0.92585  1.0000
  S   S209      1.0  0.80202  0.45155  0.89738  1.0000
  H   H1635     1.0  0.83179  0.22063  0.51514  1.0000
  H   H1636     1.0  0.72752  0.09802  0.50273  1.0000
  H   H1637     1.0  0.67667  0.38015  0.86623  1.0000
  H   H1638     1.0  0.98415  0.45761  0.60134  1.0000
  H   H1639     1.0  0.73583  0.45910  0.94959  1.0000
  N   N53       1.0  0.99261  0.17182  0.56412  1.0000
  C   C932      1.0  0.96806  0.19670  0.59600  1.0000
  H   H1640     1.0  0.73377  0.47258  0.80153  1.0000
  C   C933      1.0  0.95859  0.17770  0.50569  1.0000
  H   H1641     1.0  0.98058  0.40450  0.68002  1.0000
  H   H1642     1.0  0.87455  0.31267  0.50058  1.0000
  C   C934      1.0  0.97045  0.46418  0.63810  1.0000
  C   C935      1.0  0.99143  0.46047  0.61823  1.0000
  H   H1643     1.0  0.92399  0.31871  0.49214  1.0000
  H   H1644     1.0  0.82382  0.34174  0.97098  1.0000
  C   C936      1.0  0.79802  0.41154  0.97361  1.0000
  H   H1645     1.0  0.91552  0.05397  0.51140  1.0000
  H   H1646     1.0  0.97663  0.46832  0.65508  1.0000
  H   H1647     1.0  0.68265  0.07261  0.58683  1.0000
  H   H1648     1.0  0.75340  0.46114  0.82564  1.0000
  H   H1649     1.0  0.77607  0.43389  0.94621  1.0000
  H   H1650     1.0  0.72068  0.46998  0.86981  1.0000
  H   H1651     1.0  0.95613  0.19729  0.49909  1.0000
  S   S210      1.0  0.90171  0.18335  0.48252  1.0000
  H   H1652     1.0  0.95792  0.30996  0.71302  1.0000
  H   H1653     1.0  0.97587  0.31848  0.68376  1.0000
  C   C937      1.0  0.98891  0.35971  0.64517  1.0000
  H   H1654     1.0  0.95756  0.47946  0.63050  1.0000
  C   C938      1.0  0.66574  0.00694  0.56955  1.0000
  H   H1655     1.0  0.71293  0.47299  0.91338  1.0000
  H   H1656     1.0  0.92300  0.08069  0.49040  1.0000
  H   H1657     1.0  0.76427  0.10768  0.50951  1.0000
  H   H1658     1.0  0.98526  0.38919  0.57036  1.0000
  H   H1659     1.0  0.97624  0.40145  0.74661  1.0000
  C   C939      1.0  0.97789  0.18390  0.54306  1.0000
  S   S211      1.0  0.97528  0.47211  0.77780  1.0000
  Fe  Fe104     1.0  0.99362  0.31292  0.54577  1.0000
  H   H1660     1.0  0.66143  0.44984  0.89502  1.0000
  H   H1661     1.0  0.66099  0.41149  0.89226  1.0000
  H   H1662     1.0  0.99346  0.13331  0.56880  1.0000
  H   H1663     1.0  0.83891  0.29264  0.47817  1.0000
  H   H1664     1.0  0.76962  0.44058  0.97780  1.0000
  C   C940      1.0  0.82390  0.89033  0.44230  1.0000
  H   H1665     1.0  0.94781  0.53999  0.12146  1.0000
  H   H1666     1.0  0.80311  0.58298  0.03154  1.0000
  S   S212      1.0  0.96178  0.54005  0.18768  1.0000
  H   H1667     1.0  0.86972  0.84310  0.39966  1.0000
  Fe  Fe105     1.0  0.97233  0.53498  0.22696  1.0000
  Fe  Fe106     1.0  0.94159  0.50879  0.20072  1.0000
  S   S213      1.0  0.90404  0.51252  0.18950  1.0000
  H   H1668     1.0  0.90978  0.54047  0.10445  1.0000
  H   H1669     1.0  0.89972  0.53689  0.03760  1.0000
  H   H1670     1.0  0.90703  0.84017  0.32272  1.0000
  H   H1671     1.0  0.66267  0.97056  0.45627  1.0000
  H   H1672     1.0  0.89825  0.65003  0.43807  1.0000
  H   H1673     1.0  0.69756  0.67059  0.03751  1.0000
  H   H1674     1.0  0.98760  0.82951  0.36264  1.0000
  S   S214      1.0  0.96130  0.72874  0.32235  1.0000
  H   H1675     1.0  0.76774  0.56493  0.00747  1.0000
  C   C941      1.0  0.85353  0.87866  0.47201  1.0000
  S   S215      1.0  0.92007  0.82031  0.44195  1.0000
  H   H1676     1.0  0.96795  0.59247  0.17289  1.0000
  H   H1677     1.0  0.76687  0.52828  0.99252  1.0000
  S   S216      1.0  0.96907  0.56999  0.24217  1.0000
  C   C942      1.0  0.74121  0.89420  0.45345  1.0000
  Fe  Fe107     1.0  0.89997  0.79525  0.42891  1.0000
  S   S217      1.0  0.89809  0.79998  0.38718  1.0000
  H   H1678     1.0  0.84515  0.80911  0.40544  1.0000
  H   H1679     1.0  0.83701  0.95194  0.32722  1.0000
  C   C943      1.0  0.82007  0.91362  0.44750  1.0000
  S   S218      1.0  0.75595  0.51808  0.08796  1.0000
  C   C944      1.0  0.98213  0.81723  0.35170  1.0000
  H   H1680     1.0  0.94637  0.68203  0.44052  1.0000
  H   H1681     1.0  0.71281  0.93899  0.36222  1.0000
  C   C945      1.0  0.69974  0.95276  0.36861  1.0000
  H   H1682     1.0  0.82007  0.55500  0.04356  1.0000
  S   S219      1.0  0.70286  0.59100  0.00386  1.0000
  H   H1683     1.0  0.97184  0.58158  0.14354  1.0000
  Fe  Fe108     1.0  0.98427  0.69623  0.34030  1.0000
  C   C946      1.0  0.71709  0.56984  0.02695  1.0000
  C   C947      1.0  0.72454  0.54615  0.02383  1.0000
  C   C948      1.0  0.73751  0.53026  0.04187  1.0000
  C   C949      1.0  0.74189  0.53774  0.06365  1.0000
  C   C950      1.0  0.73397  0.56126  0.06688  1.0000
  C   C951      1.0  0.72214  0.57737  0.04836  1.0000
  H   H1684     1.0  0.72080  0.54025  0.00729  1.0000
  H   H1685     1.0  0.74347  0.51208  0.03932  1.0000
  H   H1686     1.0  0.73722  0.56713  0.08369  1.0000
  H   H1687     1.0  0.71653  0.59563  0.05088  1.0000
  C   C952      1.0  0.94367  0.74763  0.34132  1.0000
  C   C953      1.0  0.94378  0.74347  0.36748  1.0000
  C   C954      1.0  0.92989  0.75933  0.38194  1.0000
  C   C955      1.0  0.91558  0.77926  0.37022  1.0000
  C   C956      1.0  0.91522  0.78312  0.34412  1.0000
  C   C957      1.0  0.92932  0.76751  0.32974  1.0000
  S   S220      1.0  0.97233  0.77468  0.47426  1.0000
  H   H1688     1.0  0.93026  0.75607  0.40203  1.0000
  H   H1689     1.0  0.90395  0.79820  0.33494  1.0000
  H   H1690     1.0  0.92898  0.77075  0.30955  1.0000
  H   H1691     1.0  0.81759  0.82914  0.40680  1.0000
  H   H1692     1.0  0.90707  0.71431  0.37323  1.0000
  H   H1693     1.0  0.97230  0.62042  0.47549  1.0000
  H   H1694     1.0  0.68121  0.48853  0.00876  1.0000
  H   H1695     1.0  0.91774  0.87801  0.43592  1.0000
  H   H1696     1.0  0.94433  0.82876  0.36064  1.0000
  H   H1697     1.0  0.95153  0.81678  0.33184  1.0000
  H   H1698     1.0  0.94161  0.48797  0.37381  1.0000
  H   H1699     1.0  0.86477  0.85855  0.33017  1.0000
  H   H1700     1.0  0.96053  0.86011  0.47734  1.0000
  H   H1701     1.0  0.72663  0.90865  0.45687  1.0000
  H   H1702     1.0  0.81490  0.93497  0.34587  1.0000
  H   H1703     1.0  0.96735  0.82368  0.44718  1.0000
  S   S221      1.0  0.94933  0.50543  0.24097  1.0000
  C   C958      1.0  0.66389  0.52821  0.06372  1.0000
  C   C959      1.0  0.86159  0.48982  0.14714  1.0000
  H   H1704     1.0  0.92672  0.49192  0.06542  1.0000
  C   C960      1.0  0.80557  0.55516  0.00879  1.0000
  C   C961      1.0  0.80404  0.56327  0.03410  1.0000
  C   C962      1.0  0.90538  0.88972  0.42328  1.0000
  C   C963      1.0  0.91992  0.57849  0.03157  1.0000
  H   H1705     1.0  0.66169  0.63881  0.98283  1.0000
  H   H1706     1.0  0.90207  0.71292  0.42139  1.0000
  H   H1707     1.0  0.92925  0.60898  0.47486  1.0000
  H   H1708     1.0  0.95882  0.61361  0.26171  1.0000
  C   C964      1.0  0.89375  0.49594  0.16984  1.0000
  H   H1709     1.0  0.97715  0.68309  0.46844  1.0000
  C   C965      1.0  0.78414  0.56728  0.99431  1.0000
  C   C966      1.0  0.97522  0.60442  0.26868  1.0000
  Fe  Fe109     1.0  0.98993  0.65624  0.38427  1.0000
  H   H1710     1.0  0.85208  0.93038  0.36653  1.0000
  H   H1711     1.0  0.85900  0.51645  0.17067  1.0000
  Fe  Fe110     1.0  0.77716  0.96541  0.44514  1.0000
  S   S222      1.0  0.73942  0.95870  0.45734  1.0000
  C   C967      1.0  0.87933  0.86936  0.32935  1.0000
  H   H1712     1.0  0.91749  0.59773  0.03292  1.0000
  H   H1713     1.0  0.82411  0.81027  0.38329  1.0000
  H   H1714     1.0  0.87359  0.88751  0.31911  1.0000
  H   H1715     1.0  0.89852  0.50044  0.03248  1.0000
  H   H1716     1.0  0.72315  0.96287  0.39179  1.0000
  H   H1717     1.0  0.93585  0.49136  0.34150  1.0000
  Fe  Fe111     1.0  0.99350  0.51349  0.18014  1.0000
  H   H1718     1.0  0.78817  0.55747  0.04644  1.0000
  H   H1719     1.0  0.92837  0.69205  0.36079  1.0000
  S   S223      1.0  0.86801  0.80053  0.45709  1.0000
  H   H1720     1.0  0.68908  0.66720  0.98380  1.0000
  C   C968      1.0  0.84392  0.84063  0.37580  1.0000
  C   C969      1.0  0.92293  0.68623  0.40161  1.0000
  H   H1721     1.0  0.96972  0.79528  0.38546  1.0000
  H   H1722     1.0  0.70905  0.96678  0.31193  1.0000
  H   H1723     1.0  0.68637  0.64434  0.01075  1.0000
  C   C970      1.0  0.91376  0.69495  0.37584  1.0000
  C   C971      1.0  0.93173  0.68749  0.45454  1.0000
  H   H1724     1.0  0.88857  0.57211  0.05623  1.0000
  Fe  Fe112     1.0  0.93458  0.78761  0.46758  1.0000
  H   H1725     1.0  0.85765  0.83149  0.36336  1.0000
  H   H1726     1.0  0.70011  0.69406  0.01019  1.0000
  H   H1727     1.0  0.79705  0.52207  0.98168  1.0000
  C   C972      1.0  0.98085  0.72989  0.42924  1.0000
  H   H1728     1.0  0.82234  0.56022  0.99793  1.0000
  H   H1729     1.0  0.83189  0.92452  0.31874  1.0000
  C   C973      1.0  0.90394  0.69311  0.42297  1.0000
  H   H1730     1.0  0.68623  0.51358  0.03455  1.0000
  N   N54       1.0  0.90149  0.52107  0.07677  1.0000
  H   H1731     1.0  0.92799  0.66664  0.40376  1.0000
  H   H1732     1.0  0.93918  0.69457  0.40155  1.0000
  S   S224      1.0  0.97453  0.63936  0.42235  1.0000
  H   H1733     1.0  0.91224  0.57656  0.01446  1.0000
  H   H1734     1.0  0.86767  0.50910  0.09252  1.0000
  C   C974      1.0  0.68385  0.66389  0.00438  1.0000
  H   H1735     1.0  0.81410  0.88593  0.42851  1.0000
  S   S225      1.0  0.67110  0.94054  0.33764  1.0000
  H   H1736     1.0  0.72089  0.50247  0.99359  1.0000
  S   S226      1.0  0.80148  0.93564  0.42923  1.0000
  C   C975      1.0  0.83196  0.82115  0.39404  1.0000
  Fe  Fe113     1.0  0.78636  0.49084  0.07773  1.0000
  C   C976      1.0  0.88575  0.87056  0.35587  1.0000
  H   H1737     1.0  0.97116  0.51581  0.11782  1.0000
  H   H1738     1.0  0.91558  0.86964  0.31110  1.0000
  H   H1739     1.0  0.86235  0.67220  0.45505  1.0000
  C   C977      1.0  0.71619  0.48615  0.98846  1.0000
  C   C978      1.0  0.90748  0.49583  0.07161  1.0000
  H   H1740     1.0  0.89922  0.68492  0.37378  1.0000
  C   C979      1.0  0.87036  0.50201  0.16335  1.0000
  C   C980      1.0  0.83811  0.54921  0.10248  1.0000
  H   H1741     1.0  0.95816  0.84616  0.33292  1.0000
  H   H1742     1.0  0.71969  0.66630  0.01158  1.0000
  H   H1743     1.0  0.91567  0.90224  0.40954  1.0000
  H   H1744     1.0  0.69826  0.50760  0.06414  1.0000
  C   C981      1.0  0.98851  0.62842  0.46999  1.0000
  H   H1745     1.0  0.97148  0.78184  0.35881  1.0000
  H   H1746     1.0  0.96771  0.72465  0.41875  1.0000
  H   H1747     1.0  0.87019  0.53702  0.11976  1.0000
  H   H1748     1.0  0.83009  0.53244  0.10955  1.0000
  H   H1749     1.0  0.88683  0.68905  0.41830  1.0000
  C   C982      1.0  0.95749  0.82784  0.34384  1.0000
  H   H1750     1.0  0.86905  0.91930  0.34007  1.0000
  H   H1751     1.0  0.92789  0.64661  0.44499  1.0000
  C   C983      1.0  0.86317  0.68906  0.46169  1.0000
  H   H1752     1.0  0.76859  0.91048  0.46420  1.0000
  H   H1753     1.0  0.93928  0.57215  0.02972  1.0000
  C   C984      1.0  0.90081  0.85863  0.31356  1.0000
  C   C985      1.0  0.88872  0.69110  0.46710  1.0000
  H   H1754     1.0  0.87233  0.56138  0.09415  1.0000
  C   C986      1.0  0.86520  0.54419  0.10048  1.0000
  H   H1755     1.0  0.73399  0.87686  0.45732  1.0000
  N   N55       1.0  0.90845  0.68097  0.44944  1.0000
  C   C987      1.0  0.84059  0.87289  0.45448  1.0000
  H   H1756     1.0  0.83011  0.85152  0.36451  1.0000
  H   H1757     1.0  0.66461  0.95866  0.16457  1.0000
  H   H1758     1.0  0.80635  0.53548  0.01288  1.0000
  H   H1759     1.0  0.88969  0.71042  0.46643  1.0000
  H   H1760     1.0  0.83176  0.56165  0.11588  1.0000
  H   H1761     1.0  0.84226  0.86106  0.40545  1.0000
  C   C988      1.0  0.99160  0.79639  0.46694  1.0000
  H   H1762     1.0  0.66251  0.63037  0.04340  1.0000
  S   S227      1.0  0.97425  0.65892  0.34794  1.0000
  H   H1763     1.0  0.84364  0.85505  0.45021  1.0000
  S   S228      1.0  0.82341  0.50082  0.07065  1.0000
  C   C989      1.0  0.70564  0.96626  0.38538  1.0000
  C   C990      1.0  0.68194  0.50826  0.05512  1.0000
  C   C991      1.0  0.85561  0.85576  0.39019  1.0000
  H   H1764     1.0  0.88466  0.86160  0.42452  1.0000
  H   H1765     1.0  0.91565  0.56743  0.07145  1.0000
  C   C992      1.0  0.83240  0.91917  0.46567  1.0000
  C   C993      1.0  0.70129  0.67445  0.01671  1.0000
  H   H1766     1.0  0.95452  0.72802  0.37652  1.0000
  H   H1767     1.0  0.88391  0.50058  0.24854  1.0000
  C   C994      1.0  0.89356  0.87442  0.40976  1.0000
  H   H1768     1.0  0.83012  0.89687  0.37791  1.0000
  H   H1769     1.0  0.86037  0.89763  0.40556  1.0000
  C   C995      1.0  0.90756  0.56445  0.05511  1.0000
  H   H1770     1.0  0.97984  0.63259  0.28816  1.0000
  H   H1771     1.0  0.89924  0.88320  0.35260  1.0000
  H   H1772     1.0  0.89182  0.90001  0.43491  1.0000
  S   S229      1.0  0.91684  0.76230  0.45233  1.0000
  C   C996      1.0  0.90960  0.65426  0.45132  1.0000
  C   C997      1.0  0.83263  0.93360  0.33480  1.0000
  H   H1773     1.0  0.74828  0.89785  0.43330  1.0000
  H   H1774     1.0  0.83198  0.55754  0.08392  1.0000
  N   N56       1.0  0.86557  0.87757  0.37496  1.0000
  C   C998      1.0  0.87513  0.88994  0.39291  1.0000
  H   H1775     1.0  0.85740  0.70408  0.44667  1.0000
  H   H1776     1.0  0.90765  0.86431  0.39855  1.0000
  H   H1777     1.0  0.89582  0.85795  0.29471  1.0000
  C   C999      1.0  0.87481  0.52588  0.08283  1.0000
  H   H1778     1.0  0.78559  0.58671  0.99069  1.0000
  H   H1779     1.0  0.92868  0.53169  0.04697  1.0000
  C   C1000     1.0  0.90206  0.63954  0.47748  1.0000
  H   H1780     1.0  0.93072  0.70725  0.45259  1.0000
  H   H1781     1.0  0.90681  0.51026  0.11592  1.0000
  C   C1001     1.0  0.67717  0.95710  0.35984  1.0000
  Fe  Fe114     1.0  0.88952  0.82313  0.47214  1.0000
  C   C1002     1.0  0.85152  0.91996  0.35147  1.0000
  C   C1003     1.0  0.84553  0.89454  0.36338  1.0000
  H   H1782     1.0  0.83851  0.88715  0.34891  1.0000
  H   H1783     1.0  0.89556  0.85291  0.36345  1.0000
  H   H1784     1.0  0.86594  0.53152  0.06520  1.0000
  C   C1004     1.0  0.90988  0.53769  0.05342  1.0000
  H   H1785     1.0  0.88390  0.90542  0.38235  1.0000
  C   C1005     1.0  0.76114  0.89339  0.46986  1.0000
  S   S230      1.0  0.84425  0.49601  0.00073  1.0000
  C   C1006     1.0  0.89413  0.48951  0.05115  1.0000
  C   C1007     1.0  0.91386  0.52253  0.09919  1.0000
  C   C1008     1.0  0.95159  0.52084  0.11970  1.0000
  H   H1786     1.0  0.94661  0.49735  0.09543  1.0000
  H   H1787     1.0  0.94956  0.52763  0.07987  1.0000
  C   C1009     1.0  0.94129  0.51646  0.09669  1.0000
  H   H1788     1.0  0.84360  0.49478  0.14217  1.0000
  C   C1010     1.0  0.98138  0.79225  0.36814  1.0000
  H   H1789     1.0  0.97120  0.76729  0.41746  1.0000
  H   H1790     1.0  0.82978  0.93716  0.46954  1.0000
  H   H1791     1.0  0.67154  0.54535  0.05858  1.0000
  H   H1792     1.0  0.87463  0.49232  0.05587  1.0000
  H   H1793     1.0  0.68868  0.97217  0.47081  1.0000
  H   H1794     1.0  0.97262  0.73058  0.44870  1.0000
  H   H1795     1.0  0.90157  0.60671  0.46327  1.0000
  C   C1011     1.0  0.98433  0.58192  0.26249  1.0000
  H   H1796     1.0  0.94400  0.50994  0.13718  1.0000
  Fe  Fe115     1.0  0.67770  0.57766  0.98283  1.0000
  H   H1797     1.0  0.73270  0.98150  0.29355  1.0000
  H   H1798     1.0  0.77511  0.87881  0.46548  1.0000
  C   C1012     1.0  0.98767  0.75448  0.41706  1.0000
  H   H1799     1.0  0.98837  0.74596  0.38036  1.0000
  C   C1013     1.0  0.98461  0.81929  0.45392  1.0000
  C   C1014     1.0  0.98710  0.61525  0.28373  1.0000
  C   C1015     1.0  0.97927  0.59240  0.15472  1.0000
  C   C1016     1.0  0.67055  0.96684  0.47445  1.0000
  H   H1800     1.0  0.97877  0.61097  0.14413  1.0000
  C   C1017     1.0  0.67193  0.48392  0.06135  1.0000
  C   C1018     1.0  0.84900  0.90169  0.47797  1.0000
  H   H1801     1.0  0.95718  0.74369  0.53543  1.0000
  S   S231      1.0  0.87078  0.73929  0.50627  1.0000
  S   S232      1.0  0.90637  0.79255  0.49927  1.0000
  H   H1802     1.0  0.94517  0.65641  0.48116  1.0000
  H   H1803     1.0  0.80341  0.86697  0.52591  1.0000
  S   S233      1.0  0.68605  0.54097  0.90315  1.0000
  H   H1804     1.0  0.74943  0.86426  0.54360  1.0000
  H   H1805     1.0  0.75935  0.49728  0.87009  1.0000
  C   C1019     1.0  0.73552  0.61030  0.94062  1.0000
  C   C1020     1.0  0.71709  0.53611  0.89660  1.0000
  C   C1021     1.0  0.72709  0.51731  0.88417  1.0000
  C   C1022     1.0  0.75178  0.51225  0.87914  1.0000
  C   C1023     1.0  0.76656  0.52703  0.88520  1.0000
  C   C1024     1.0  0.75650  0.54682  0.89626  1.0000
  C   C1025     1.0  0.73183  0.55094  0.90274  1.0000
  H   H1806     1.0  0.71561  0.50667  0.87852  1.0000
  H   H1807     1.0  0.76791  0.55874  0.90011  1.0000
  H   H1808     1.0  0.72413  0.56590  0.91173  1.0000
  H   H1809     1.0  0.77218  0.60641  0.94699  1.0000
  C   C1026     1.0  0.92118  0.68163  0.55052  1.0000
  C   C1027     1.0  0.89710  0.67940  0.55123  1.0000
  C   C1028     1.0  0.88189  0.69732  0.53780  1.0000
  C   C1029     1.0  0.89059  0.71764  0.52337  1.0000
  C   C1030     1.0  0.91474  0.72001  0.52255  1.0000
  H   H1810     1.0  0.92826  0.82507  0.61012  1.0000
  H   H1811     1.0  0.89016  0.66368  0.56216  1.0000
  H   H1812     1.0  0.86330  0.69538  0.53853  1.0000
  H   H1813     1.0  0.92168  0.73559  0.51131  1.0000
  Fe  Fe116     1.0  0.67100  0.55728  0.93713  1.0000
  H   H1814     1.0  0.92203  0.61454  0.68452  1.0000
  H   H1815     1.0  0.77196  0.87449  0.55625  1.0000
  H   H1816     1.0  0.72534  0.90571  0.54025  1.0000
  C   C1031     1.0  0.82441  0.54670  0.94868  1.0000
  C   C1032     1.0  0.77285  0.52217  0.95429  1.0000
  N   N57       1.0  0.77002  0.88774  0.51634  1.0000
  H   H1817     1.0  0.88249  0.64231  0.48178  1.0000
  H   H1818     1.0  0.91938  0.85620  0.59833  1.0000
  C   C1033     1.0  0.97462  0.74256  0.54272  1.0000
  H   H1819     1.0  0.75334  0.52629  0.95338  1.0000
  Fe  Fe117     1.0  0.97888  0.65886  0.56586  1.0000
  H   H1820     1.0  0.95953  0.84329  0.57932  1.0000
  H   H1821     1.0  0.97596  0.55408  0.60917  1.0000
  H   H1822     1.0  0.94735  0.82033  0.49780  1.0000
  H   H1823     1.0  0.73313  0.63002  0.93892  1.0000
  H   H1824     1.0  0.74113  0.88340  0.59248  1.0000
  H   H1825     1.0  0.81394  0.90219  0.52773  1.0000
  H   H1826     1.0  0.79583  0.56915  0.93115  1.0000
  H   H1827     1.0  0.93401  0.57839  0.63533  1.0000
  H   H1828     1.0  0.81037  0.94535  0.51077  1.0000
  C   C1034     1.0  0.79094  0.86935  0.51130  1.0000
  C   C1035     1.0  0.72771  0.88936  0.57879  1.0000
  S   S234      1.0  0.79755  0.52100  0.87918  1.0000
  H   H1829     1.0  0.81421  0.93953  0.54374  1.0000
  C   C1036     1.0  0.75842  0.88030  0.54263  1.0000
  C   C1037     1.0  0.96279  0.63678  0.66960  1.0000
  C   C1038     1.0  0.96949  0.83093  0.52260  1.0000
  H   H1830     1.0  0.92095  0.58991  0.72705  1.0000
  H   H1831     1.0  0.68060  0.64773  0.94025  1.0000
  N   N58       1.0  0.94323  0.60787  0.64988  1.0000
  H   H1832     1.0  0.66674  0.67088  0.91741  1.0000
  C   C1039     1.0  0.92869  0.62715  0.63295  1.0000
  C   C1040     1.0  0.97077  0.78764  0.53532  1.0000
  C   C1041     1.0  0.96574  0.61648  0.65412  1.0000
  H   H1833     1.0  0.71449  0.90348  0.58571  1.0000
  H   H1834     1.0  0.89084  0.68288  0.48694  1.0000
  H   H1835     1.0  0.92709  0.67926  0.49602  1.0000
  C   C1042     1.0  0.90932  0.64420  0.64568  1.0000
  C   C1043     1.0  0.89933  0.66501  0.62630  1.0000
  H   H1836     1.0  0.98433  0.65629  0.68633  1.0000
  H   H1837     1.0  0.78995  0.90708  0.55174  1.0000
  H   H1838     1.0  0.77247  0.84441  0.49687  1.0000
  H   H1839     1.0  0.73783  0.90520  0.50037  1.0000
  H   H1840     1.0  0.97713  0.72607  0.55704  1.0000
  H   H1841     1.0  0.94063  0.63836  0.61951  1.0000
  C   C1044     1.0  0.96305  0.68547  0.48412  1.0000
  H   H1842     1.0  0.95230  0.63221  0.68802  1.0000
  H   H1843     1.0  0.75154  0.60540  0.97501  1.0000
  C   C1045     1.0  0.98691  0.64194  0.67487  1.0000
  H   H1844     1.0  0.68025  0.48648  0.89755  1.0000
  H   H1845     1.0  0.76376  0.92607  0.51463  1.0000
  H   H1846     1.0  0.75649  0.56672  0.94253  1.0000
  H   H1847     1.0  0.85976  0.54306  0.92878  1.0000
  C   C1046     1.0  0.80199  0.56542  0.95029  1.0000
  H   H1848     1.0  0.84945  0.57261  0.93526  1.0000
  H   H1849     1.0  0.70924  0.49108  0.96977  1.0000
  H   H1850     1.0  0.89432  0.63436  0.65492  1.0000
  H   H1851     1.0  0.91613  0.65176  0.66010  1.0000
  H   H1852     1.0  0.88501  0.67655  0.63565  1.0000
  H   H1853     1.0  0.91350  0.67602  0.61715  1.0000
  H   H1854     1.0  0.96978  0.67538  0.50183  1.0000
  C   C1047     1.0  0.75874  0.57160  0.96076  1.0000
  H   H1855     1.0  0.83782  0.56198  0.91060  1.0000
  C   C1048     1.0  0.92534  0.57396  0.71784  1.0000
  C   C1049     1.0  0.80746  0.82750  0.50413  1.0000
  H   H1856     1.0  0.77695  0.83601  0.52964  1.0000
  H   H1857     1.0  0.80788  0.58237  0.95258  1.0000
  C   C1050     1.0  0.75580  0.59929  0.95661  1.0000
  H   H1858     1.0  0.78518  0.95067  0.53375  1.0000
  C   C1051     1.0  0.93001  0.70202  0.53628  1.0000
  H   H1859     1.0  0.71833  0.87411  0.57770  1.0000
  H   H1860     1.0  0.97818  0.60137  0.66298  1.0000
  H   H1861     1.0  0.79890  0.49053  0.95647  1.0000
  C   C1052     1.0  0.96338  0.59171  0.60990  1.0000
  C   C1053     1.0  0.94131  0.57948  0.69326  1.0000
  H   H1862     1.0  0.66421  0.97706  0.51094  1.0000
  H   H1863     1.0  0.95784  0.58472  0.69795  1.0000
  H   H1864     1.0  0.90865  0.56809  0.71432  1.0000
  H   H1865     1.0  0.85891  0.90625  0.49159  1.0000
  Fe  Fe118     1.0  0.88738  0.76972  0.48196  1.0000
  C   C1054     1.0  0.79676  0.91321  0.53194  1.0000
  H   H1866     1.0  0.91236  0.59313  0.67025  1.0000
  H   H1867     1.0  0.90736  0.83375  0.58666  1.0000
  H   H1868     1.0  0.80159  0.87569  0.49336  1.0000
  C   C1055     1.0  0.96665  0.56974  0.59732  1.0000
  H   H1869     1.0  0.96218  0.57256  0.64757  1.0000
  H   H1870     1.0  0.94916  0.56546  0.59405  1.0000
  C   C1056     1.0  0.92863  0.59958  0.67429  1.0000
  C   C1057     1.0  0.75173  0.88977  0.49815  1.0000
  H   H1871     1.0  0.93027  0.83435  0.52223  1.0000
  H   H1872     1.0  0.96207  0.76381  0.57114  1.0000
  C   C1058     1.0  0.84519  0.69022  0.48486  1.0000
  S   S235      1.0  0.68142  0.54041  0.97541  1.0000
  H   H1873     1.0  0.78802  0.91651  0.49420  1.0000
  S   S236      1.0  0.93940  0.65824  0.56751  1.0000
  C   C1059     1.0  0.97557  0.76431  0.55457  1.0000
  H   H1874     1.0  0.97177  0.84794  0.52831  1.0000
  H   H1875     1.0  0.69811  0.95178  0.57495  1.0000
  H   H1876     1.0  0.95338  0.80004  0.58183  1.0000
  H   H1877     1.0  0.92887  0.85993  0.48023  1.0000
  H   H1878     1.0  0.71871  0.60364  0.94955  1.0000
  S   S237      1.0  0.67082  0.59469  0.94325  1.0000
  C   C1060     1.0  0.95018  0.81324  0.56438  1.0000
  C   C1061     1.0  0.95011  0.58665  0.63669  1.0000
  C   C1062     1.0  0.84400  0.55684  0.92965  1.0000
  H   H1879     1.0  0.85027  0.67570  0.50060  1.0000
  H   H1880     1.0  0.95379  0.60661  0.59742  1.0000
  H   H1881     1.0  0.93384  0.80873  0.55827  1.0000
  H   H1882     1.0  0.94580  0.56264  0.68566  1.0000
  H   H1883     1.0  0.95335  0.78735  0.52845  1.0000
  C   C1063     1.0  0.94409  0.83813  0.57225  1.0000
  H   H1884     1.0  0.98449  0.82811  0.50787  1.0000
  H   H1885     1.0  0.94167  0.87356  0.50151  1.0000
  H   H1886     1.0  0.89184  0.65834  0.61156  1.0000
  C   C1064     1.0  0.92351  0.83819  0.59313  1.0000
  C   C1065     1.0  0.69187  0.96992  0.56667  1.0000
  H   H1887     1.0  0.67198  0.94742  0.48212  1.0000
  C   C1066     1.0  0.73953  0.89939  0.55293  1.0000
  N   N59       1.0  0.78185  0.55894  0.97020  1.0000
  C   C1067     1.0  0.80188  0.93881  0.52984  1.0000
  H   H1888     1.0  0.98125  0.59630  0.61103  1.0000
  H   H1889     1.0  0.80299  0.80926  0.50479  1.0000
  H   H1890     1.0  0.82077  0.82639  0.51759  1.0000
  H   H1891     1.0  0.82024  0.53074  0.94235  1.0000
  C   C1068     1.0  0.77889  0.91161  0.51336  1.0000
  H   H1892     1.0  0.97551  0.62338  0.63581  1.0000
  C   C1069     1.0  0.94666  0.83466  0.50899  1.0000
  C   C1070     1.0  0.78499  0.84404  0.51087  1.0000
  H   H1893     1.0  0.74774  0.91506  0.55506  1.0000
  H   H1894     1.0  0.85513  0.50081  0.94719  1.0000
  H   H1895     1.0  0.91893  0.61914  0.62090  1.0000
  C   C1071     1.0  0.94440  0.85855  0.49093  1.0000
  Fe  Fe119     1.0  0.81118  0.48429  0.87022  1.0000
  S   S238      1.0  0.87574  0.85774  0.48641  1.0000
  H   H1896     1.0  0.73945  0.60577  0.92147  1.0000
  H   H1897     1.0  0.93860  0.85206  0.55620  1.0000
  H   H1898     1.0  0.95415  0.65349  0.65881  1.0000
  H   H1899     1.0  0.94865  0.70367  0.53551  1.0000
  S   S239      1.0  0.72558  0.96297  0.52719  1.0000
  H   H1900     1.0  0.74204  0.87385  0.50242  1.0000
  H   H1901     1.0  0.97748  0.57337  0.57889  1.0000
  H   H1902     1.0  0.78195  0.52982  0.93601  1.0000
  N   N60       1.0  0.97100  0.81058  0.54464  1.0000
  H   H1903     1.0  0.74332  0.56563  0.97383  1.0000
  H   H1904     1.0  0.93470  0.55933  0.73092  1.0000
  H   H1905     1.0  0.83167  0.54069  0.96697  1.0000
  C   C1072     1.0  0.70223  0.98000  0.54298  1.0000
  Fe  Fe120     1.0  0.74144  0.97865  0.48828  1.0000
  H   H1906     1.0  0.81548  0.83406  0.48483  1.0000
  H   H1907     1.0  0.73344  0.48853  0.82701  1.0000
  H   H1908     1.0  0.66595  0.97552  0.59830  1.0000
  H   H1909     1.0  0.95914  0.70464  0.48568  1.0000
  H   H1910     1.0  0.90356  0.60269  0.49665  1.0000
  C   C1073     1.0  0.67401  0.48359  0.88018  1.0000
  C   C1074     1.0  0.90958  0.61284  0.47801  1.0000
  H   H1911     1.0  0.68495  0.49228  0.86363  1.0000
  H   H1912     1.0  0.98893  0.74138  0.52701  1.0000
  C   C1075     1.0  0.94058  0.67591  0.48025  1.0000
  C   C1076     1.0  0.66330  0.65744  0.93460  1.0000
  C   C1077     1.0  0.77927  0.49521  0.95793  1.0000
  H   H1913     1.0  0.90978  0.64452  0.49300  1.0000
  H   H1914     1.0  0.77236  0.48834  0.94295  1.0000
  H   H1915     1.0  0.84405  0.70770  0.49094  1.0000
  H   H1916     1.0  0.98386  0.78642  0.51870  1.0000
  H   H1917     1.0  0.82735  0.68821  0.48028  1.0000
  C   C1078     1.0  0.67361  0.98331  0.57990  1.0000
  S   S240      1.0  0.78038  0.98251  0.47822  1.0000
  C   C1079     1.0  0.78010  0.53252  0.97597  1.0000
  H   H1918     1.0  0.77152  0.48662  0.97661  1.0000
  H   H1919     1.0  0.99389  0.82773  0.56218  1.0000
  C   C1080     1.0  0.99355  0.81034  0.55636  1.0000
  H   H1920     1.0  0.99344  0.76246  0.56105  1.0000
