data_image0
_chemical_formula_structural       H2FeH3CHC2FeSHCH2FeCHCSH9CHC3HC4H4SHCH2C3H7CHSHCH3C7HCH2C3H5C2SHC2HFeCHSC3HFeHFeHC2HCH4SH3CHCH2SH4SCNC9SC2H22CH5SCFeH3SHCH8SHFeH2C3HSC4HSCH2CHFeSCFeSFeCS2FeS2FeSHFeSFeS3H4CHCH13SHCHC4H4CH2CH2C8H5CH2C2H5CH4CHCHC3H2C4H2CH4CH2CH5CH4CSH9CNC12H27CHC2HSH2C3H6C2HSHSHCH8CH2CHCH2C3H3FeCH2CH2SCH5CH5SH3CSH6NCNH2CH2NCH6NSCHC4HCFeHCSC4HCHC2H5FeC4H2SCH5CHCHC2HC2NH2FeC7H2CSCFeHCHC3H9CH2C2HCSH2C2H2CHCHNH4CFeC3FeS2FeS2FeSFeHS2CHSC4H4CHCHCH3CH4NC3H4C6H4SH2C4H3FeCH3C4H4CH2C2H7CH7SCH2FeHCH2CH3C3H2C2H6C3H3C2HCHSHCH3C2HCH2CH4SHCHCHCH2NHS3HCH2CHCHCHC2H3CH2NHSH4SH2CH2CHCH2SH6NC4SC2H2C2H9SH3CSHCHNHCH3CHCHCH3CFeC2HCHFeHFeHCH2CHCS2CH5FeSNS3FeSCFe2S2HSC2H2FeS2FeS2FeCNS3HC2H3CHC2H2CH2C6H4C2H3CHCHC3H2C2H6SCSHCHC8HC2H4C2HCNCHC2HC2H3C2H2CH4CHCH2CHCH3C2HCH6NC2HC2H2C2H6C2H2CH2CH3CH3C2H2SHC2HCHSH5C2H2C3HCH6C2H2CH5CHCH5CH4C4HCH4FeC2HCHCFe2HS2H2CH7C2FeSH5CHNH2CHNHSH3CH5CH3CH13C2H2C2HCNC4H2CH4CH12CSH3C2H2CHCHCHCH4FeHCH2CH4CH4CFeCHCH3CH4NCH3C2H5CH3CH4FeHC2H3CFeHSFeCSCFeHS2HCH2FeC2HNCH2CHC2H3C3HCH3CH10CH2CHCHCSCH4CHCH3CHSHCHCH2FeH2CHS2CH2C2H5SNC2HNCHC2HC2H3CS2C2H2CH5CH3CH2C2HCH4C2HCHSCHFeH7CH2NH2SCHC3HCH2CH2NH5CHCH2CHFeCHCSCHCHCH2C2H3C4FeH3SHCH2CFeH2SHSCH4NCHC2H6C3H5FeHSHFeH3CH3FeS2CNCH3FeHSHCH2C2SH2SFeSHSHFeSHCH2C3HC7H2SC8H5C3SFeCH3CNH2C6H4SNH7CH2C5H10FeH5CH2CHC2H2SHCH4CH2CH5C2SH4CH2CH3CH2NCHSFeH5CHCHCFeCH11CHSH4CH2CHCH3SHC2H2FeH4CH3CH2CSH2C2H2CS2CHSFeHFeC2H2FeCH7CSCH2FeH2CSHC4H4SH2C2H2CHSHCH4CH2C2H3CHCNC6H3CH3CH2CH2CH5C2HNSCNCH2CH3SHCH2CH2CH6C2H2CH2CNC3H2SH2NSH2CFeH3CH3CHSH2CH3SCNCH2SCHC2FeH2CH2CH4SC3H6SH3C2HC2SCH3CHCHCH2CH5NCHCH5CHC2HCH3SH2CH4C2HC2SH3CFe2H2CHCH2CHCH2C2H2CSHCHCHCHC3H5FeHC4H2SH2CSHCH6FeSCFeS2FeSFeS3H4CHFeCSH4S2HCHCFeS2C3HC2SHFeS2FeCSFeSFe2S3C7H3C6H6SH2CH3SC2HCH2CHC4H3CH2FeHC2HC9SH2C6H4C6H9SHCHCH2CHCH2CH3C2SH2CH8NC2HC3HC4H14CH11C2HNC8SC2H17FeCH3SH3CH3SNCH4CHC2HCH9NH3NCHCSCS2FeC2H8C2H4CHCSHCH3FeHCH4CNCHC2H2CH3C3HC2H2SCHCH2NC12H20CH2C3H2C3H5C3HCHCH2CH2CHCHCHC2H5CH3CH2CH8CFeHCHSFeH2SH4CH3C2H4C3HCH4CH2CH7CSHCHNHCH2C2HCH3CFeCFeH2FeSCSHFeHS2H2CHCFeHS2C2HCHC4H4CH3C3HSCHNCH2C6H5NC12H24SH6CSCSHC2HCH2SCH4CH7NH2NH2S2C2H2SH2CFeC2HSH3CH4CH2CH2CSH4CH3FeH2SCHCH7NH2CFeCSH2CH2C2HFeHCHCH4C5H3C2SH2C3H2SH2CH2CHFeH3CNHFeH3CH3C4SHSH2CH4CH3CH2CHCNH7C3HSHFeSH2FeCSFeS2FeCFeS3H6SHFeSFeS2FeS2HCFeSH2FeHSH4S4HSFeCFeSC3NH3C4HCHCSH2C6H4C3H8SH3C6H5NFeH2CH3C3H2C7H5C6H3C2HC3H4CH4C2HCH3C5HSNC7H11CH4CFeH4CHCHCFeH3SCSCH2CH3CH3CHC2HCHCH2FeNC12H28CH2CHCHCH2CH5CH7C2H6CH2CHNC12H23SCHCH8C2H3C2NC2FeH4CHCHNHCHCH9CHC2H2CH2SC2SCH4CH4SCH2C2HCHCHSFeCH2C3HC2H2C2HCH2CHC3HFeHSH6C2H3CHC2HSH5CHCHNCH3SH2CH9CH4CHC2H11C2HCH4SC2NHCSHCH3C2H5CHCHC2HCNHCH4SC2HCHCHCFeHS2FeH2CHSH2C2HCHC2H4SHSNC3H2CH3C2H2CH4C6H2FeHCHC2SCH6CHC2HCHCSH3CH3CSHCHCH2CHCFeH6CHCHFeH4CHSHCHFeCFeC3HNCSHCH3FeC2H4SHCHFeCHCH4CSCH2CHS3HCH2C2H2C2H6C5NSCH7C3SHCH4C2FeCH6FeC3H5SH3CH2CH2Fe2H2NSCH2SCH12CHS2HCH6CSFeHSH3CHCH3FeHSHCH5FeS2FeSFeHSFeHC2S2HCH3C8H2CHCH8CHSH2SH2C2HC2H5C7H7C3SCHNC12H16CH10C2H2CFeHSC2H10SHCH2C2SH3SHCHSCHCSCHCHFeCFe2HC2H5CH2C5H4CHNHC2H2CH2CH2CH3CNH2C2NHCFeCH2C3SCH2NH3C3HC4HCH2C2NH2C2H2CH2CHCHSHC2FeCH3CH9CH2C2H6CH6CHCH2CHC2HSH2SHCH3CH2C3H9SHCH8CHSH4SHCHSHC2HCH10FeS2FeS2FeCFeS4HC3HCH5FeHCHCH3CH2SHCHC7H4C5HCH3CH2SHCSHCH3SH6C2HCSHC3SH3FeH2CH5CH3CHC2HC3HC2HSHC2HC2H7C2HCHSHNHCHC2H3CH7NH2C2SH2CHCH4CH3CH2CH2CHFeNCHCH6CH2CHCH4C2H5CH2CSH3CHC2HCH7CSHCHC2H2FeC3HCH4CH4NC2NH8C2H4CH2CFeS3HCH4SFeS2FeHSFeH3S2C3H4CH3CHCH5CH3CHCH5CH2FeH2FeNC6H3C7H7C5H3CH2C2H2CH3NC7H2C3H14CHCHCH4SCH4CH3C3HSCH5C2H2SH2CH2SHC4SHCH3CHCH3CFeH4C2HCSH2C2HC3H3CSH3CH2CH3CSCHCHCH2C3FeHSC2H2CFeH4SHS2HCH5CHC3H4SH3CH3CHNCHC3HCH2C2H5C2H2C2SHC2H2CHFeH2CHFeC3FeN2H2CHSH2C2HC2H2CH6SH2C2HC2H3C3H2CSHNH3SH7C2H3C2SH2CHNCSH3CH4CH3CH4CH3SH2CFeH4C2H2CH2CH2S2H3C3SFeSFeS2FeSFeSFeHS2CHCHC3HCH2CHC9H5CH2CH3CFeHCH2FeCH5C6H8CH6CH3CH3FeNCNHCH2FeH3CH2CH4C3HSH3FeH5SH4C2H4C2SHC2H2SH3C3H2FeCH7CHC3HCH3C2HCHNHC3H6CSC2SC3HC2HSCHCH2C3SH2CH3CH6C2H2CH5CH2CH3SNH2SCH5FeH4C2H2CHC2HSH2SHC2H6CH2CH4S2FeCH3CSFeSHCSCFeSFeSHSCSFeSCFeSFeH3CHSH3C7H8C3FeHCHCHC6H4CH2C6H4C2HCFeH2NC6FeC5H5CH19CHCNHC4H2NC2HC2H2CSH3SH2CHC2H2CH3CH13C2H2CSH2SCH2CH2SCH10C4H2CH3CH2CH3C2SH2CH2FeNHCH2CH6CH8CH5CH2CSH3SH6SCNH5C2HC3H3NC3HCFeC4H20CH5C2H4CH4CHSH3SCFeSCHC3HCNS2H2FeH2C3
_chemical_formula_sum              "H3072 Fe192 C1728 S384 N96"
_cell_length_a       63.0634
_cell_length_b       63.7588
_cell_length_c       65.3877
_cell_angle_alpha    75.8335
_cell_angle_beta     80.2165
_cell_angle_gamma    78.999

_space_group_name_H-M_alt    "P 1"
_space_group_IT_number       1

loop_
  _space_group_symop_operation_xyz
  'x, y, z'

loop_
  _atom_site_type_symbol
  _atom_site_label
  _atom_site_symmetry_multiplicity
  _atom_site_fract_x
  _atom_site_fract_y
  _atom_site_fract_z
  _atom_site_occupancy
  H   H1        1.0  0.36561  0.31509  0.01954  1.0000
  H   H2        1.0  0.40873  0.23584  0.00819  1.0000
  Fe  Fe1       1.0  0.48649  0.12880  0.18974  1.0000
  H   H3        1.0  0.35146  0.34234  0.01051  1.0000
  H   H4        1.0  0.38905  0.13075  0.00054  1.0000
  H   H5        1.0  0.47826  0.23488  0.00509  1.0000
  C   C1        1.0  0.04478  0.47970  0.10614  1.0000
  H   H6        1.0  0.43748  0.04217  0.07806  1.0000
  C   C2        1.0  0.99719  0.46406  0.18467  1.0000
  C   C3        1.0  0.48291  0.13939  0.11844  1.0000
  Fe  Fe2       1.0  0.46768  0.10029  0.06487  1.0000
  S   S1        1.0  0.45510  0.07847  0.04919  1.0000
  H   H7        1.0  0.40966  0.29241  0.04352  1.0000
  C   C4        1.0  0.12683  0.47861  0.05255  1.0000
  H   H8        1.0  0.02682  0.42813  0.11476  1.0000
  H   H9        1.0  0.01113  0.42981  0.04031  1.0000
  Fe  Fe3       1.0  0.45980  0.10439  0.01952  1.0000
  C   C5        1.0  0.45076  0.47635  0.01320  1.0000
  H   H10       1.0  0.39943  0.29425  0.00804  1.0000
  C   C6        1.0  0.35857  0.32662  0.00583  1.0000
  S   S2        1.0  0.46945  0.12745  0.03582  1.0000
  H   H11       1.0  0.36888  0.16845  0.99732  1.0000
  H   H12       1.0  0.39492  0.32951  0.02258  1.0000
  H   H13       1.0  0.07269  0.46438  0.08759  1.0000
  H   H14       1.0  0.46327  0.02870  0.11018  1.0000
  H   H15       1.0  0.29532  0.48943  0.00181  1.0000
  H   H16       1.0  0.42617  0.09137  0.19694  1.0000
  H   H17       1.0  0.45291  0.05182  0.99167  1.0000
  H   H18       1.0  0.06212  0.43750  0.00197  1.0000
  H   H19       1.0  0.45949  0.00547  0.08815  1.0000
  C   C7        1.0  0.42067  0.14074  0.99440  1.0000
  H   H20       1.0  0.47642  0.06218  0.18414  1.0000
  C   C8        1.0  0.01188  0.43753  0.10924  1.0000
  C   C9        1.0  0.48903  0.01268  0.03812  1.0000
  C   C10       1.0  0.40740  0.04451  0.22996  1.0000
  H   H21       1.0  0.00301  0.44754  0.18126  1.0000
  C   C11       1.0  0.01178  0.44816  0.08771  1.0000
  C   C12       1.0  0.46606  0.00993  0.20059  1.0000
  C   C13       1.0  0.40578  0.32737  0.00768  1.0000
  C   C14       1.0  0.48417  0.00063  0.21128  1.0000
  H   H22       1.0  0.47769  0.44286  0.00103  1.0000
  H   H23       1.0  0.48428  0.05915  0.10494  1.0000
  H   H24       1.0  0.14533  0.46057  0.99913  1.0000
  H   H25       1.0  0.49165  0.14177  0.99509  1.0000
  S   S3        1.0  0.47948  0.13883  0.22122  1.0000
  H   H26       1.0  0.12158  0.48350  0.06752  1.0000
  C   C15       1.0  0.31030  0.48382  0.00977  1.0000
  H   H27       1.0  0.43704  0.05945  0.22490  1.0000
  H   H28       1.0  0.09424  0.48006  0.04622  1.0000
  C   C16       1.0  0.11776  0.47040  0.02097  1.0000
  C   C17       1.0  0.45666  0.00693  0.02614  1.0000
  C   C18       1.0  0.41932  0.06485  0.22394  1.0000
  H   H29       1.0  0.00751  0.42588  0.01486  1.0000
  H   H30       1.0  0.42830  0.27360  0.02979  1.0000
  H   H31       1.0  0.41622  0.37010  0.00131  1.0000
  H   H32       1.0  0.45149  0.12071  0.16455  1.0000
  H   H33       1.0  0.42558  0.03242  0.05949  1.0000
  H   H34       1.0  0.41029  0.00485  0.08958  1.0000
  H   H35       1.0  0.99977  0.48610  0.11213  1.0000
  C   C19       1.0  0.42397  0.03420  0.07619  1.0000
  H   H36       1.0  0.42066  0.33403  0.00833  1.0000
  S   S4        1.0  0.49382  0.08907  0.00968  1.0000
  H   H37       1.0  0.44934  0.03933  0.18251  1.0000
  C   C20       1.0  0.11125  0.47659  0.04046  1.0000
  H   H38       1.0  0.07969  0.47542  0.10792  1.0000
  H   H39       1.0  0.00915  0.46824  0.19309  1.0000
  H   H40       1.0  0.02920  0.47904  0.15748  1.0000
  C   C21       1.0  0.47444  0.13625  0.14007  1.0000
  C   C22       1.0  0.45865  0.12262  0.14812  1.0000
  C   C23       1.0  0.45124  0.11231  0.13468  1.0000
  C   C24       1.0  0.45979  0.11529  0.11315  1.0000
  C   C25       1.0  0.47590  0.12859  0.10505  1.0000
  C   C26       1.0  0.48075  0.18569  0.02677  1.0000
  C   C27       1.0  0.14904  0.47518  0.04489  1.0000
  H   H41       1.0  0.43861  0.10222  0.14095  1.0000
  C   C28       1.0  0.47849  0.04509  0.19200  1.0000
  H   H42       1.0  0.37720  0.36332  0.00677  1.0000
  H   H43       1.0  0.39480  0.00804  0.22466  1.0000
  C   C29       1.0  0.30331  0.47333  0.03298  1.0000
  C   C30       1.0  0.46843  0.02083  0.03173  1.0000
  C   C31       1.0  0.48668  0.45091  0.00943  1.0000
  H   H44       1.0  0.48278  0.40309  0.02674  1.0000
  H   H45       1.0  0.04330  0.46379  0.11735  1.0000
  H   H46       1.0  0.32776  0.31426  0.01567  1.0000
  H   H47       1.0  0.47907  0.48541  0.99225  1.0000
  H   H48       1.0  0.30754  0.42927  0.00654  1.0000
  C   C32       1.0  0.46316  0.03220  0.19101  1.0000
  C   C33       1.0  0.14004  0.46562  0.01397  1.0000
  S   S5        1.0  0.48336  0.14970  0.15678  1.0000
  H   H49       1.0  0.31777  0.46624  0.04143  1.0000
  C   C34       1.0  0.44618  0.99668  0.08721  1.0000
  C   C35       1.0  0.39792  0.14446  0.99669  1.0000
  H   H50       1.0  0.35606  0.46785  0.99856  1.0000
  Fe  Fe4       1.0  0.46651  0.10695  0.23412  1.0000
  C   C36       1.0  0.41646  0.07775  0.20129  1.0000
  H   H51       1.0  0.39909  0.08492  0.20020  1.0000
  S   S6        1.0  0.03413  0.48638  0.00252  1.0000
  C   C37       1.0  0.06852  0.47827  0.09576  1.0000
  C   C38       1.0  0.01518  0.48136  0.14842  1.0000
  C   C39       1.0  0.33995  0.31693  0.00127  1.0000
  H   H52       1.0  0.41753  0.03275  0.22085  1.0000
  Fe  Fe5       1.0  0.06529  0.48784  0.01424  1.0000
  H   H53       1.0  0.44984  0.03422  0.13558  1.0000
  Fe  Fe6       1.0  0.22811  0.49172  0.99694  1.0000
  H   H54       1.0  0.48105  0.48165  0.02018  1.0000
  C   C40       1.0  0.42438  0.01190  0.09158  1.0000
  C   C41       1.0  0.47551  0.47491  0.00822  1.0000
  H   H55       1.0  0.34618  0.30094  0.99674  1.0000
  C   C42       1.0  0.30141  0.43953  0.99233  1.0000
  H   H56       1.0  0.17279  0.46457  0.02022  1.0000
  H   H57       1.0  0.48801  0.18923  0.00982  1.0000
  H   H58       1.0  0.29395  0.46001  0.03370  1.0000
  H   H59       1.0  0.44424  0.47017  0.00143  1.0000
  S   S7        1.0  0.04971  0.48620  0.04788  1.0000
  H   H60       1.0  0.44068  0.01323  0.02127  1.0000
  H   H61       1.0  0.44617  0.46666  0.02944  1.0000
  H   H62       1.0  0.40814  0.40982  0.99272  1.0000
  C   C43       1.0  0.45764  0.04153  0.11951  1.0000
  H   H63       1.0  0.46154  0.03781  0.03117  1.0000
  C   C44       1.0  0.41314  0.30245  0.00889  1.0000
  H   H64       1.0  0.42197  0.06713  0.18968  1.0000
  H   H65       1.0  0.48372  0.44236  0.02641  1.0000
  S   S8        1.0  0.47034  0.09899  0.20205  1.0000
  H   H66       1.0  0.44470  0.01544  0.23819  1.0000
  H   H67       1.0  0.26829  0.44520  0.00759  1.0000
  H   H68       1.0  0.01482  0.40245  0.03570  1.0000
  H   H69       1.0  0.01703  0.46613  0.14244  1.0000
  S   S9        1.0  0.16819  0.48090  0.05868  1.0000
  C   C45       1.0  0.42241  0.29119  0.02968  1.0000
  N   N1        1.0  0.42151  0.17963  0.05534  1.0000
  C   C46       1.0  0.40866  0.19728  0.04031  1.0000
  C   C47       1.0  0.41989  0.15764  0.05148  1.0000
  C   C48       1.0  0.41239  0.18133  0.07786  1.0000
  C   C49       1.0  0.44532  0.18210  0.05173  1.0000
  C   C50       1.0  0.45614  0.18659  0.02818  1.0000
  C   C51       1.0  0.40902  0.22110  0.04189  1.0000
  C   C52       1.0  0.42113  0.16217  0.09558  1.0000
  C   C53       1.0  0.39676  0.15126  0.05557  1.0000
  C   C54       1.0  0.39798  0.12711  0.05544  1.0000
  S   S10       1.0  0.23155  0.48103  0.03165  1.0000
  C   C55       1.0  0.39889  0.23762  0.02365  1.0000
  C   C56       1.0  0.41247  0.16662  0.11765  1.0000
  H   H70       1.0  0.39118  0.19526  0.04311  1.0000
  H   H71       1.0  0.41411  0.19570  0.02360  1.0000
  H   H72       1.0  0.42607  0.15685  0.03469  1.0000
  H   H73       1.0  0.43062  0.14439  0.06118  1.0000
  H   H74       1.0  0.39429  0.18312  0.08018  1.0000
  H   H75       1.0  0.41599  0.19654  0.08111  1.0000
  H   H76       1.0  0.44797  0.19543  0.05882  1.0000
  H   H77       1.0  0.45507  0.16704  0.06031  1.0000
  H   H78       1.0  0.44943  0.20308  0.01942  1.0000
  H   H79       1.0  0.45340  0.17447  0.01972  1.0000
  H   H80       1.0  0.39942  0.22432  0.05700  1.0000
  H   H81       1.0  0.42580  0.22426  0.04138  1.0000
  H   H82       1.0  0.43914  0.15982  0.09395  1.0000
  H   H83       1.0  0.41601  0.14665  0.09493  1.0000
  H   H84       1.0  0.38794  0.15379  0.07115  1.0000
  H   H85       1.0  0.38702  0.16113  0.04286  1.0000
  H   H86       1.0  0.38128  0.12313  0.05721  1.0000
  H   H87       1.0  0.40698  0.12345  0.04026  1.0000
  H   H88       1.0  0.40637  0.11648  0.06883  1.0000
  H   H89       1.0  0.44841  0.99548  0.07030  1.0000
  H   H90       1.0  0.43639  0.29874  0.03123  1.0000
  H   H91       1.0  0.48613  0.03227  0.15097  1.0000
  C   C57       1.0  0.00508  0.41907  0.03228  1.0000
  H   H92       1.0  0.38197  0.23515  0.02342  1.0000
  H   H93       1.0  0.39835  0.25451  0.02559  1.0000
  H   H94       1.0  0.39438  0.16886  0.12024  1.0000
  H   H95       1.0  0.41871  0.15248  0.12997  1.0000
  H   H96       1.0  0.41808  0.18141  0.11962  1.0000
  S   S11       1.0  0.43427  0.11361  0.99746  1.0000
  C   C58       1.0  0.47682  0.05216  0.12123  1.0000
  Fe  Fe7       1.0  0.49012  0.06520  0.04106  1.0000
  H   H97       1.0  0.40834  0.04492  0.07965  1.0000
  H   H98       1.0  0.48437  0.19798  0.03460  1.0000
  H   H99       1.0  0.02656  0.44676  0.07664  1.0000
  S   S12       1.0  0.44886  0.10331  0.09666  1.0000
  H   H100      1.0  0.42208  0.01476  0.10792  1.0000
  C   C59       1.0  0.15564  0.46812  0.02583  1.0000
  H   H101      1.0  0.32063  0.47095  0.00233  1.0000
  H   H102      1.0  0.29268  0.48559  0.04120  1.0000
  H   H103      1.0  0.39167  0.04903  0.22316  1.0000
  H   H104      1.0  0.48855  0.16912  0.03443  1.0000
  H   H105      1.0  0.44532  0.05413  0.11122  1.0000
  H   H106      1.0  0.03428  0.48173  0.09360  1.0000
  H   H107      1.0  0.38408  0.39966  0.00777  1.0000
  H   H108      1.0  0.48249  0.13102  0.08840  1.0000
  S   S13       1.0  0.09833  0.46931  0.00489  1.0000
  H   H109      1.0  0.47015  0.06581  0.12944  1.0000
  Fe  Fe8       1.0  0.01834  0.48867  0.03555  1.0000
  H   H110      1.0  0.41334  0.07648  0.23446  1.0000
  H   H111      1.0  0.42618  0.29956  0.99573  1.0000
  C   C60       1.0  0.39507  0.40047  0.99249  1.0000
  C   C61       1.0  0.38651  0.16579  0.99477  1.0000
  C   C62       1.0  0.27925  0.44861  0.99296  1.0000
  H   H112      1.0  0.41774  0.99424  0.23812  1.0000
  S   S14       1.0  0.44686  0.99377  0.19983  1.0000
  C   C63       1.0  0.49372  0.03557  0.13408  1.0000
  C   C64       1.0  0.38711  0.36330  0.99097  1.0000
  C   C65       1.0  0.39772  0.18370  0.98945  1.0000
  C   C66       1.0  0.40505  0.37756  0.98918  1.0000
  H   H113      1.0  0.39506  0.47165  0.98993  1.0000
  S   S15       1.0  0.38257  0.20989  0.98949  1.0000
  C   C67       1.0  0.43206  0.15858  0.98934  1.0000
  H   H114      1.0  0.47947  0.05974  0.98901  1.0000
  H   H115      1.0  0.01561  0.07025  0.34775  1.0000
  C   C68       1.0  0.44952  0.08328  0.34734  1.0000
  H   H116      1.0  0.99567  0.04431  0.35353  1.0000
  Fe  Fe9       1.0  0.02018  0.27465  0.43630  1.0000
  S   S16       1.0  0.05480  0.28027  0.43079  1.0000
  C   C69       1.0  0.48370  0.11813  0.30127  1.0000
  Fe  Fe10      1.0  0.06257  0.24360  0.43555  1.0000
  S   S17       1.0  0.09026  0.22913  0.41409  1.0000
  Fe  Fe11      1.0  0.05156  0.27452  0.46632  1.0000
  C   C70       1.0  0.45212  0.04803  0.29768  1.0000
  S   S18       1.0  0.02797  0.23835  0.43827  1.0000
  S   S19       1.0  0.99598  0.12655  0.40435  1.0000
  Fe  Fe12      1.0  0.05585  0.07521  0.44379  1.0000
  S   S20       1.0  0.08542  0.07428  0.41949  1.0000
  S   S21       1.0  0.05821  0.05270  0.47581  1.0000
  Fe  Fe13      1.0  0.02848  0.10855  0.41348  1.0000
  S   S22       1.0  0.05627  0.11108  0.38704  1.0000
  H   H117      1.0  0.07333  0.28130  0.35875  1.0000
  Fe  Fe14      1.0  0.06264  0.07448  0.39682  1.0000
  S   S23       1.0  0.06610  0.05390  0.37266  1.0000
  Fe  Fe15      1.0  0.07623  0.11091  0.41235  1.0000
  S   S24       1.0  0.10398  0.13001  0.40693  1.0000
  S   S25       1.0  0.03370  0.07194  0.42179  1.0000
  S   S26       1.0  0.04785  0.11189  0.43818  1.0000
  H   H118      1.0  0.36869  0.02867  0.28882  1.0000
  H   H119      1.0  0.48930  0.14621  0.35274  1.0000
  H   H120      1.0  0.05496  0.38160  0.42793  1.0000
  H   H121      1.0  0.34325  0.04591  0.45240  1.0000
  C   C71       1.0  0.99737  0.99898  0.36161  1.0000
  H   H122      1.0  0.99736  0.40934  0.44828  1.0000
  C   C72       1.0  0.02283  0.16392  0.47094  1.0000
  H   H123      1.0  0.03732  0.18301  0.40188  1.0000
  H   H124      1.0  0.30151  0.05121  0.40078  1.0000
  H   H125      1.0  0.02073  0.32181  0.27535  1.0000
  H   H126      1.0  0.06201  0.27092  0.38571  1.0000
  H   H127      1.0  0.01851  0.31224  0.48601  1.0000
  H   H128      1.0  0.03351  0.34596  0.26568  1.0000
  H   H129      1.0  0.02670  0.38655  0.32358  1.0000
  H   H130      1.0  0.41617  0.02032  0.41803  1.0000
  H   H131      1.0  0.42040  0.02283  0.28116  1.0000
  H   H132      1.0  0.00535  0.11308  0.36348  1.0000
  H   H133      1.0  0.22551  0.06730  0.38638  1.0000
  H   H134      1.0  0.02552  0.28980  0.37850  1.0000
  H   H135      1.0  0.01527  0.06153  0.38631  1.0000
  S   S27       1.0  0.01620  0.27168  0.47148  1.0000
  H   H136      1.0  0.09835  0.99593  0.35388  1.0000
  C   C73       1.0  0.99858  0.35742  0.45627  1.0000
  H   H137      1.0  0.03775  0.36136  0.43216  1.0000
  C   C74       1.0  0.09283  0.04548  0.36149  1.0000
  C   C75       1.0  0.10899  0.03416  0.37423  1.0000
  C   C76       1.0  0.11788  0.04009  0.33001  1.0000
  C   C77       1.0  0.09737  0.04840  0.33940  1.0000
  H   H138      1.0  0.10546  0.03160  0.39136  1.0000
  H   H139      1.0  0.12124  0.04247  0.31287  1.0000
  H   H140      1.0  0.08495  0.05702  0.32948  1.0000
  H   H141      1.0  0.40641  0.05261  0.43412  1.0000
  C   C78       1.0  0.09820  0.06564  0.47071  1.0000
  H   H142      1.0  0.09175  0.07987  0.45945  1.0000
  H   H143      1.0  0.49111  0.13712  0.26924  1.0000
  C   C79       1.0  0.00455  0.36358  0.33998  1.0000
  H   H144      1.0  0.00953  0.30973  0.31417  1.0000
  H   H145      1.0  0.06591  0.01950  0.34512  1.0000
  C   C80       1.0  0.38738  0.05084  0.26380  1.0000
  C   C81       1.0  0.12948  0.02537  0.36477  1.0000
  C   C82       1.0  0.09282  0.20168  0.41209  1.0000
  C   C83       1.0  0.07556  0.18959  0.41893  1.0000
  C   C84       1.0  0.07854  0.16758  0.41701  1.0000
  C   C85       1.0  0.09881  0.15774  0.40845  1.0000
  C   C86       1.0  0.11587  0.16997  0.40150  1.0000
  C   C87       1.0  0.11285  0.19184  0.40318  1.0000
  H   H146      1.0  0.05995  0.19726  0.42551  1.0000
  H   H147      1.0  0.06531  0.15815  0.42230  1.0000
  H   H148      1.0  0.13157  0.16248  0.39487  1.0000
  H   H149      1.0  0.12621  0.20113  0.39775  1.0000
  H   H150      1.0  0.25748  0.02238  0.33975  1.0000
  C   C88       1.0  0.47318  0.10848  0.35070  1.0000
  H   H151      1.0  0.00857  0.43962  0.41448  1.0000
  H   H152      1.0  0.02400  0.33990  0.36126  1.0000
  C   C89       1.0  0.01548  0.35446  0.40117  1.0000
  C   C90       1.0  0.01493  0.33192  0.40840  1.0000
  H   H153      1.0  0.45331  0.06969  0.36121  1.0000
  H   H154      1.0  0.02332  0.38214  0.35224  1.0000
  H   H155      1.0  0.03079  0.36059  0.39853  1.0000
  H   H156      1.0  0.02980  0.32074  0.41140  1.0000
  H   H157      1.0  0.28368  0.03148  0.43436  1.0000
  C   C91       1.0  0.04242  0.37017  0.46162  1.0000
  H   H158      1.0  0.05496  0.00182  0.46380  1.0000
  H   H159      1.0  0.40403  0.08880  0.34272  1.0000
  H   H160      1.0  0.02840  0.35307  0.30152  1.0000
  H   H161      1.0  0.05546  0.37741  0.46571  1.0000
  C   C92       1.0  0.01465  0.40139  0.44561  1.0000
  H   H162      1.0  0.34725  0.06571  0.28617  1.0000
  C   C93       1.0  0.42934  0.09886  0.35532  1.0000
  H   H163      1.0  0.09558  0.01453  0.31425  1.0000
  C   C94       1.0  0.43441  0.08222  0.27778  1.0000
  C   C95       1.0  0.46521  0.10642  0.31515  1.0000
  C   C96       1.0  0.02152  0.34238  0.34435  1.0000
  H   H164      1.0  0.48714  0.06629  0.30651  1.0000
  H   H165      1.0  0.04457  0.30879  0.37285  1.0000
  C   C97       1.0  0.37755  0.04249  0.28722  1.0000
  C   C98       1.0  0.41579  0.08062  0.29290  1.0000
  C   C99       1.0  0.03920  0.00033  0.41975  1.0000
  C   C100      1.0  0.20471  0.00150  0.45209  1.0000
  H   H166      1.0  0.43094  0.00798  0.45038  1.0000
  H   H167      1.0  0.39480  0.09916  0.36646  1.0000
  C   C101      1.0  0.45421  0.99438  0.42594  1.0000
  H   H168      1.0  0.01288  0.34488  0.45341  1.0000
  H   H169      1.0  0.47990  0.00301  0.34759  1.0000
  H   H170      1.0  0.05727  0.13149  0.48071  1.0000
  H   H171      1.0  0.30659  0.07290  0.48115  1.0000
  C   C102      1.0  0.48701  0.05850  0.32368  1.0000
  H   H172      1.0  0.40178  0.09338  0.29114  1.0000
  H   H173      1.0  0.46071  0.09567  0.30599  1.0000
  C   C103      1.0  0.11914  0.14427  0.47385  1.0000
  H   H174      1.0  0.05400  0.26227  0.36438  1.0000
  H   H175      1.0  0.19751  0.01849  0.45102  1.0000
  H   H176      1.0  0.37345  0.05775  0.25443  1.0000
  H   H177      1.0  0.02275  0.14981  0.46382  1.0000
  H   H178      1.0  0.28249  0.09271  0.47540  1.0000
  C   C104      1.0  0.13251  0.14946  0.45199  1.0000
  H   H179      1.0  0.44409  0.07554  0.33600  1.0000
  H   H180      1.0  0.22615  0.04894  0.36908  1.0000
  H   H181      1.0  0.42692  0.11501  0.34416  1.0000
  H   H182      1.0  0.09198  0.13544  0.46321  1.0000
  C   C105      1.0  0.01482  0.38390  0.33823  1.0000
  S   S28       1.0  0.06306  0.23835  0.47065  1.0000
  H   H183      1.0  0.24670  0.00474  0.45950  1.0000
  H   H184      1.0  0.39045  0.03706  0.29777  1.0000
  H   H185      1.0  0.00555  0.17010  0.42552  1.0000
  H   H186      1.0  0.28728  0.04332  0.47782  1.0000
  H   H187      1.0  0.46264  0.14099  0.27964  1.0000
  H   H188      1.0  0.12888  0.13968  0.44147  1.0000
  H   H189      1.0  0.22850  0.04667  0.46298  1.0000
  H   H190      1.0  0.01531  0.39401  0.43175  1.0000
  H   H191      1.0  0.46931  0.02846  0.25620  1.0000
  C   C106      1.0  0.13390  0.02827  0.34260  1.0000
  N   N2        1.0  0.15931  0.06939  0.39056  1.0000
  C   C107      1.0  0.18293  0.05957  0.38630  1.0000
  C   C108      1.0  0.14708  0.05173  0.40444  1.0000
  C   C109      1.0  0.15030  0.07641  0.36949  1.0000
  C   C110      1.0  0.15609  0.08897  0.40060  1.0000
  C   C111      1.0  0.17286  0.08923  0.41540  1.0000
  C   C112      1.0  0.19733  0.07410  0.36913  1.0000
  C   C113      1.0  0.12574  0.08628  0.37029  1.0000
  C   C114      1.0  0.15335  0.04211  0.42712  1.0000
  C   C115      1.0  0.14065  0.02356  0.43881  1.0000
  C   C116      1.0  0.16479  0.10697  0.42815  1.0000
  C   C117      1.0  0.22158  0.06620  0.37079  1.0000
  C   C118      1.0  0.11939  0.09565  0.34794  1.0000
  H   H192      1.0  0.18426  0.04391  0.38109  1.0000
  H   H193      1.0  0.19067  0.05485  0.40108  1.0000
  H   H194      1.0  0.12944  0.05791  0.40687  1.0000
  H   H195      1.0  0.14888  0.03788  0.39639  1.0000
  H   H196      1.0  0.15310  0.06235  0.36148  1.0000
  H   H197      1.0  0.15903  0.08923  0.35853  1.0000
  H   H198      1.0  0.15636  0.10444  0.38817  1.0000
  H   H199      1.0  0.13947  0.09091  0.40975  1.0000
  H   H200      1.0  0.18859  0.09276  0.40583  1.0000
  H   H201      1.0  0.17631  0.07347  0.42687  1.0000
  H   H202      1.0  0.19449  0.07331  0.35304  1.0000
  H   H203      1.0  0.19344  0.09148  0.37043  1.0000
  H   H204      1.0  0.12167  0.09965  0.37905  1.0000
  H   H205      1.0  0.11539  0.07367  0.37810  1.0000
  H   H206      1.0  0.17089  0.03538  0.42674  1.0000
  H   H207      1.0  0.14918  0.05483  0.43668  1.0000
  H   H208      1.0  0.06974  0.00755  0.38164  1.0000
  H   H209      1.0  0.14368  0.01035  0.42984  1.0000
  H   H210      1.0  0.26238  0.99922  0.42707  1.0000
  H   H211      1.0  0.17733  0.10740  0.43801  1.0000
  H   H212      1.0  0.16144  0.12329  0.41731  1.0000
  H   H213      1.0  0.14965  0.10338  0.43889  1.0000
  H   H214      1.0  0.15016  0.14550  0.45357  1.0000
  H   H215      1.0  0.23145  0.07651  0.35794  1.0000
  H   H216      1.0  0.10153  0.10133  0.34899  1.0000
  H   H217      1.0  0.12785  0.10980  0.33984  1.0000
  H   H218      1.0  0.12361  0.08294  0.33832  1.0000
  C   C119      1.0  0.08492  0.05008  0.48161  1.0000
  H   H219      1.0  0.00508  0.34861  0.27627  1.0000
  C   C120      1.0  0.06943  0.00419  0.33909  1.0000
  C   C121      1.0  0.02186  0.18438  0.39541  1.0000
  H   H220      1.0  0.47637  0.99956  0.25724  1.0000
  S   S29       1.0  0.32360  0.03608  0.36113  1.0000
  H   H221      1.0  0.04602  0.99755  0.38008  1.0000
  H   H222      1.0  0.25406  0.02784  0.48858  1.0000
  C   C122      1.0  0.42257  0.03543  0.40932  1.0000
  C   C123      1.0  0.05040  0.36638  0.43882  1.0000
  C   C124      1.0  0.31077  0.04437  0.41459  1.0000
  H   H223      1.0  0.99747  0.36580  0.32507  1.0000
  H   H224      1.0  0.03760  0.34549  0.33516  1.0000
  H   H225      1.0  0.05532  0.16779  0.45692  1.0000
  H   H226      1.0  0.26349  0.06302  0.47255  1.0000
  H   H227      1.0  0.08374  0.35270  0.44516  1.0000
  H   H228      1.0  0.02029  0.19950  0.38264  1.0000
  C   C125      1.0  0.30817  0.02069  0.35223  1.0000
  C   C126      1.0  0.30094  0.02513  0.42945  1.0000
  H   H229      1.0  0.20142  0.05804  0.47308  1.0000
  S   S30       1.0  0.43547  0.02611  0.33631  1.0000
  H   H230      1.0  0.21079  0.02922  0.48123  1.0000
  S   S31       1.0  0.06462  0.29481  0.48362  1.0000
  H   H231      1.0  0.49148  0.06649  0.35283  1.0000
  C   C127      1.0  0.46381  0.01233  0.26295  1.0000
  H   H232      1.0  0.45880  0.00346  0.45537  1.0000
  H   H233      1.0  0.42176  0.03724  0.39214  1.0000
  H   H234      1.0  0.48281  0.01931  0.43110  1.0000
  H   H235      1.0  0.07628  0.34696  0.42186  1.0000
  H   H236      1.0  0.12292  0.02988  0.44099  1.0000
  H   H237      1.0  0.12868  0.16715  0.44452  1.0000
  H   H238      1.0  0.27880  0.04434  0.35265  1.0000
  H   H239      1.0  0.14169  0.01602  0.37456  1.0000
  C   C128      1.0  0.36120  0.06046  0.29556  1.0000
  H   H240      1.0  0.47500  0.11609  0.27104  1.0000
  H   H241      1.0  0.46237  0.00878  0.28054  1.0000
  C   C129      1.0  0.27416  0.01602  0.34229  1.0000
  H   H242      1.0  0.03106  0.28910  0.33893  1.0000
  C   C130      1.0  0.02125  0.33823  0.27806  1.0000
  H   H243      1.0  0.06614  0.33257  0.44785  1.0000
  H   H244      1.0  0.05355  0.99905  0.33957  1.0000
  C   C131      1.0  0.99932  0.06915  0.38050  1.0000
  C   C132      1.0  0.47768  0.12871  0.27897  1.0000
  C   C133      1.0  0.03404  0.30355  0.34412  1.0000
  H   H245      1.0  0.01981  0.10883  0.33824  1.0000
  H   H246      1.0  0.02268  0.16987  0.38856  1.0000
  H   H247      1.0  0.31897  0.00334  0.40958  1.0000
  Fe  Fe16      1.0  0.40514  0.01282  0.35313  1.0000
  C   C134      1.0  0.40841  0.08903  0.35839  1.0000
  H   H248      1.0  0.48609  0.05066  0.39926  1.0000
  H   H249      1.0  0.48993  0.12668  0.37808  1.0000
  C   C135      1.0  0.11974  0.06319  0.47484  1.0000
  H   H250      1.0  0.48636  0.13152  0.30816  1.0000
  H   H251      1.0  0.03555  0.44649  0.41158  1.0000
  S   S32       1.0  0.21463  0.01259  0.40938  1.0000
  C   C136      1.0  0.00442  0.08133  0.35696  1.0000
  H   H252      1.0  0.39520  0.06497  0.26403  1.0000
  H   H253      1.0  0.36272  0.02364  0.42654  1.0000
  H   H254      1.0  0.01533  0.17913  0.46060  1.0000
  H   H255      1.0  0.02433  0.99777  0.41436  1.0000
  H   H256      1.0  0.37476  0.01875  0.25655  1.0000
  C   C137      1.0  0.21590  0.04562  0.47713  1.0000
  H   H257      1.0  0.04114  0.01790  0.41471  1.0000
  H   H258      1.0  0.03365  0.40588  0.47863  1.0000
  H   H259      1.0  0.30996  0.01991  0.44344  1.0000
  H   H260      1.0  0.36905  0.07486  0.29476  1.0000
  H   H261      1.0  0.43140  0.10171  0.37091  1.0000
  S   S33       1.0  0.37887  0.00535  0.33799  1.0000
  H   H262      1.0  0.04616  0.41366  0.43960  1.0000
  H   H263      1.0  0.03723  0.99550  0.43737  1.0000
  H   H264      1.0  0.04538  0.18118  0.47845  1.0000
  C   C138      1.0  0.01590  0.10082  0.35523  1.0000
  S   S34       1.0  0.43479  0.10487  0.25617  1.0000
  H   H265      1.0  0.12989  0.07531  0.46649  1.0000
  H   H266      1.0  0.04272  0.35380  0.47277  1.0000
  H   H267      1.0  0.41304  0.07041  0.40843  1.0000
  H   H268      1.0  0.31005  0.05749  0.42326  1.0000
  H   H269      1.0  0.44657  0.00807  0.38568  1.0000
  H   H270      1.0  0.09067  0.16382  0.46083  1.0000
  N   N3        1.0  0.01531  0.32214  0.34042  1.0000
  C   C139      1.0  0.43377  0.04664  0.31302  1.0000
  N   N4        1.0  0.40325  0.03425  0.25341  1.0000
  H   H271      1.0  0.03192  0.42190  0.40452  1.0000
  H   H272      1.0  0.45073  0.11932  0.31604  1.0000
  C   C140      1.0  0.31772  0.00026  0.34813  1.0000
  H   H273      1.0  0.45186  0.04922  0.40115  1.0000
  H   H274      1.0  0.46289  0.12482  0.34658  1.0000
  N   N5        1.0  0.02040  0.38415  0.46508  1.0000
  C   C141      1.0  0.42382  0.02918  0.26373  1.0000
  H   H275      1.0  0.46637  0.03556  0.29958  1.0000
  H   H276      1.0  0.00274  0.00611  0.34465  1.0000
  H   H277      1.0  0.44640  0.03837  0.42874  1.0000
  H   H278      1.0  0.14594  0.01657  0.45480  1.0000
  H   H279      1.0  0.00490  0.40721  0.48469  1.0000
  H   H280      1.0  0.40114  0.06173  0.32227  1.0000
  N   N6        1.0  0.46179  0.01416  0.41043  1.0000
  S   S35       1.0  0.21404  0.01324  0.35033  1.0000
  C   C142      1.0  0.02597  0.43277  0.41592  1.0000
  H   H281      1.0  0.46559  0.02637  0.37612  1.0000
  C   C143      1.0  0.09449  0.14765  0.47187  1.0000
  C   C144      1.0  0.26363  0.99598  0.46052  1.0000
  C   C145      1.0  0.00256  0.37021  0.47213  1.0000
  C   C146      1.0  0.02749  0.33628  0.30013  1.0000
  H   H282      1.0  0.29703  0.07788  0.45572  1.0000
  C   C147      1.0  0.35459  0.03129  0.45765  1.0000
  Fe  Fe17      1.0  0.02771  0.23598  0.47313  1.0000
  H   H283      1.0  0.35478  0.05412  0.31243  1.0000
  C   C148      1.0  0.44637  0.03487  0.41288  1.0000
  S   S36       1.0  0.38265  0.02729  0.37830  1.0000
  C   C149      1.0  0.07039  0.34859  0.43849  1.0000
  C   C150      1.0  0.36561  0.01873  0.44300  1.0000
  C   C151      1.0  0.46269  0.01111  0.38811  1.0000
  C   C152      1.0  0.39268  0.01400  0.25682  1.0000
  H   H284      1.0  0.02331  0.43184  0.44926  1.0000
  C   C153      1.0  0.99459  0.03604  0.37065  1.0000
  H   H285      1.0  0.29173  0.01291  0.40504  1.0000
  C   C154      1.0  0.05837  0.27638  0.36902  1.0000
  C   C155      1.0  0.48874  0.07547  0.33635  1.0000
  H   H286      1.0  0.06853  0.02353  0.30681  1.0000
  H   H287      1.0  0.09244  0.00807  0.45287  1.0000
  H   H288      1.0  0.32808  0.03912  0.40867  1.0000
  H   H289      1.0  0.04394  0.32637  0.30094  1.0000
  H   H290      1.0  0.46788  0.10168  0.36781  1.0000
  Fe  Fe18      1.0  0.18557  0.99758  0.34875  1.0000
  C   C156      1.0  0.01059  0.32562  0.31782  1.0000
  C   C157      1.0  0.02863  0.42007  0.43866  1.0000
  C   C158      1.0  0.35813  0.02495  0.47908  1.0000
  C   C159      1.0  0.27767  0.05861  0.48159  1.0000
  H   H291      1.0  0.03137  0.09520  0.36226  1.0000
  H   H292      1.0  0.99940  0.28094  0.36105  1.0000
  S   S37       1.0  0.15879  0.01700  0.32982  1.0000
  C   C160      1.0  0.04604  0.16597  0.47296  1.0000
  H   H293      1.0  0.27297  0.00811  0.46250  1.0000
  H   H294      1.0  0.06680  0.00347  0.48628  1.0000
  H   H295      1.0  0.02343  0.00019  0.48567  1.0000
  H   H296      1.0  0.04920  0.30828  0.33405  1.0000
  H   H297      1.0  0.43055  0.04448  0.26193  1.0000
  C   C161      1.0  0.07928  0.00970  0.31576  1.0000
  H   H298      1.0  0.47212  0.05104  0.32979  1.0000
  C   C162      1.0  0.48396  0.01604  0.41497  1.0000
  H   H299      1.0  0.01171  0.02953  0.37391  1.0000
  C   C163      1.0  0.41539  0.06273  0.31045  1.0000
  C   C164      1.0  0.45244  0.06572  0.28012  1.0000
  H   H300      1.0  0.41038  0.07207  0.36816  1.0000
  C   C165      1.0  0.28632  0.02855  0.34942  1.0000
  C   C166      1.0  0.44211  0.01214  0.25568  1.0000
  N   N7        1.0  0.46956  0.09365  0.33714  1.0000
  H   H301      1.0  0.46660  0.06641  0.26836  1.0000
  H   H302      1.0  0.39070  0.05521  0.41286  1.0000
  Fe  Fe19      1.0  0.35671  0.01660  0.36525  1.0000
  C   C167      1.0  0.29178  0.07666  0.47301  1.0000
  C   C168      1.0  0.30219  0.00627  0.41800  1.0000
  C   C169      1.0  0.03957  0.29556  0.36733  1.0000
  C   C170      1.0  0.40735  0.05466  0.41663  1.0000
  C   C171      1.0  0.28384  0.99563  0.33793  1.0000
  C   C172      1.0  0.02043  0.39566  0.48275  1.0000
  C   C173      1.0  0.44673  0.99682  0.44926  1.0000
  H   H303      1.0  0.12493  0.12701  0.48147  1.0000
  H   H304      1.0  0.99729  0.31639  0.37196  1.0000
  C   C174      1.0  0.99630  0.36904  0.39704  1.0000
  S   S38       1.0  0.99698  0.39720  0.38865  1.0000
  C   C175      1.0  0.37281  0.00606  0.48577  1.0000
  Fe  Fe20      1.0  0.21072  0.99583  0.38446  1.0000
  H   H305      1.0  0.00194  0.39854  0.33751  1.0000
  C   C176      1.0  0.21389  0.99397  0.43381  1.0000
  H   H306      1.0  0.12273  0.15502  0.48339  1.0000
  C   C177      1.0  0.00276  0.18536  0.41317  1.0000
  C   C178      1.0  0.99526  0.32393  0.41095  1.0000
  C   C179      1.0  0.38029  0.99984  0.44973  1.0000
  H   H307      1.0  0.00026  0.03120  0.41052  1.0000
  H   H308      1.0  0.00344  0.19913  0.42039  1.0000
  H   H309      1.0  0.39495  0.00348  0.27288  1.0000
  H   H310      1.0  0.00591  0.35765  0.48668  1.0000
  H   H311      1.0  0.33397  0.99811  0.30257  1.0000
  H   H312      1.0  0.43786  0.99546  0.26213  1.0000
  H   H313      1.0  0.33445  0.99386  0.35046  1.0000
  H   H314      1.0  0.01290  0.16175  0.48683  1.0000
  H   H315      1.0  0.07748  0.18190  0.48768  1.0000
  C   C180      1.0  0.05679  0.14556  0.48815  1.0000
  H   H316      1.0  0.09880  0.10361  0.48793  1.0000
  H   H317      1.0  0.99478  0.36857  0.44102  1.0000
  C   C181      1.0  0.99512  0.31693  0.35536  1.0000
  C   C182      1.0  0.38385  0.99356  0.47113  1.0000
  H   H318      1.0  0.08100  0.99532  0.30852  1.0000
  C   C183      1.0  0.39995  0.99925  0.24036  1.0000
  S   S39       1.0  0.99415  0.29577  0.41778  1.0000
  H   H319      1.0  0.99428  0.33563  0.31566  1.0000
  H   H320      1.0  0.34765  0.99351  0.27710  1.0000
  C   C184      1.0  0.11475  0.02977  0.50101  1.0000
  C   C185      1.0  0.02040  0.47234  0.64610  1.0000
  H   H321      1.0  0.42354  0.08264  0.59302  1.0000
  H   H322      1.0  0.02351  0.46811  0.61433  1.0000
  C   C186      1.0  0.04594  0.30499  0.50343  1.0000
  H   H323      1.0  0.01913  0.28355  0.63427  1.0000
  C   C187      1.0  0.27313  0.01734  0.52559  1.0000
  H   H324      1.0  0.41996  0.01239  0.58970  1.0000
  N   N8        1.0  0.07925  0.14666  0.49244  1.0000
  H   H325      1.0  0.46832  0.22767  0.72709  1.0000
  H   H326      1.0  0.41762  0.04831  0.55898  1.0000
  H   H327      1.0  0.00006  0.34133  0.64410  1.0000
  H   H328      1.0  0.43059  0.17518  0.63766  1.0000
  C   C188      1.0  0.29113  0.00843  0.50925  1.0000
  Fe  Fe21      1.0  0.34594  0.02622  0.53208  1.0000
  C   C189      1.0  0.41895  0.05724  0.57124  1.0000
  C   C190      1.0  0.03314  0.48902  0.70534  1.0000
  C   C191      1.0  0.48484  0.15435  0.70892  1.0000
  Fe  Fe22      1.0  0.44777  0.09905  0.65198  1.0000
  S   S40       1.0  0.45485  0.10500  0.68238  1.0000
  S   S41       1.0  0.46810  0.11174  0.62098  1.0000
  Fe  Fe23      1.0  0.41184  0.07291  0.67428  1.0000
  S   S42       1.0  0.41605  0.07614  0.70692  1.0000
  S   S43       1.0  0.38950  0.05062  0.67048  1.0000
  Fe  Fe24      1.0  0.41877  0.11109  0.69116  1.0000
  S   S44       1.0  0.40267  0.13920  0.70654  1.0000
  Fe  Fe25      1.0  0.45183  0.06983  0.69601  1.0000
  H   H329      1.0  0.02818  0.26164  0.53463  1.0000
  S   S45       1.0  0.41155  0.10859  0.65924  1.0000
  S   S46       1.0  0.44770  0.06324  0.66502  1.0000
  C   C192      1.0  0.12806  0.04520  0.48993  1.0000
  H   H330      1.0  0.03508  0.31217  0.61288  1.0000
  S   S47       1.0  0.15487  0.04247  0.49529  1.0000
  C   C193      1.0  0.24267  0.04408  0.53593  1.0000
  C   C194      1.0  0.22451  0.04972  0.49606  1.0000
  C   C195      1.0  0.06360  0.19178  0.52621  1.0000
  C   C196      1.0  0.02366  0.38060  0.50500  1.0000
  H   H331      1.0  0.26362  0.00400  0.53405  1.0000
  H   H332      1.0  0.12096  0.01601  0.51292  1.0000
  H   H333      1.0  0.39783  0.00527  0.69753  1.0000
  H   H334      1.0  0.04031  0.99962  0.51393  1.0000
  C   C197      1.0  0.43842  0.16388  0.65106  1.0000
  H   H335      1.0  0.02746  0.45745  0.70201  1.0000
  C   C198      1.0  0.04086  0.35092  0.58516  1.0000
  H   H336      1.0  0.47017  0.14623  0.67457  1.0000
  C   C199      1.0  0.99592  0.28208  0.61416  1.0000
  H   H337      1.0  0.02237  0.24457  0.51877  1.0000
  H   H338      1.0  0.46241  0.02478  0.69267  1.0000
  H   H339      1.0  0.48967  0.19240  0.66131  1.0000
  C   C200      1.0  0.05323  0.30571  0.52225  1.0000
  H   H340      1.0  0.07459  0.12600  0.52391  1.0000
  H   H341      1.0  0.46874  0.00528  0.51633  1.0000
  H   H342      1.0  0.21086  0.04932  0.50933  1.0000
  H   H343      1.0  0.07014  0.29990  0.52444  1.0000
  N   N9        1.0  0.25779  0.03771  0.51709  1.0000
  C   C201      1.0  0.43404  0.00246  0.66782  1.0000
  C   C202      1.0  0.48465  0.10125  0.58237  1.0000
  C   C203      1.0  0.08819  0.10431  0.50317  1.0000
  H   H344      1.0  0.05110  0.19407  0.53999  1.0000
  H   H345      1.0  0.22799  0.07610  0.56083  1.0000
  H   H346      1.0  0.04429  0.31322  0.55322  1.0000
  H   H347      1.0  0.34950  0.03805  0.73284  1.0000
  C   C204      1.0  0.35212  0.06099  0.61354  1.0000
  C   C205      1.0  0.35849  0.03996  0.62544  1.0000
  C   C206      1.0  0.37007  0.03706  0.64275  1.0000
  C   C207      1.0  0.37595  0.05509  0.64793  1.0000
  C   C208      1.0  0.37002  0.07612  0.63577  1.0000
  C   C209      1.0  0.35782  0.07907  0.61884  1.0000
  H   H348      1.0  0.35426  0.02594  0.62150  1.0000
  H   H349      1.0  0.37457  0.02077  0.65211  1.0000
  H   H350      1.0  0.37426  0.09014  0.63981  1.0000
  H   H351      1.0  0.35285  0.09540  0.60976  1.0000
  S   S48       1.0  0.34416  0.04095  0.49713  1.0000
  H   H352      1.0  0.28472  0.05538  0.51370  1.0000
  H   H353      1.0  0.26272  0.03508  0.56224  1.0000
  C   C210      1.0  0.47252  0.09501  0.60234  1.0000
  C   C211      1.0  0.46425  0.07530  0.60731  1.0000
  C   C212      1.0  0.46845  0.06164  0.59281  1.0000
  C   C213      1.0  0.41685  0.11596  0.57699  1.0000
  H   H354      1.0  0.08295  0.02045  0.50575  1.0000
  H   H355      1.0  0.45434  0.07058  0.62222  1.0000
  H   H356      1.0  0.46222  0.04629  0.59705  1.0000
  Fe  Fe26      1.0  0.34029  0.03686  0.57580  1.0000
  C   C214      1.0  0.38932  0.08479  0.55760  1.0000
  H   H357      1.0  0.38946  0.11687  0.53510  1.0000
  H   H358      1.0  0.00895  0.37298  0.51214  1.0000
  H   H359      1.0  0.99899  0.28068  0.51304  1.0000
  C   C215      1.0  0.46357  0.19049  0.69715  1.0000
  C   C216      1.0  0.38443  0.03313  0.73431  1.0000
  C   C217      1.0  0.03859  0.31327  0.53851  1.0000
  C   C218      1.0  0.99784  0.44055  0.60281  1.0000
  H   H360      1.0  0.40876  0.01596  0.61626  1.0000
  H   H361      1.0  0.33115  0.00642  0.65366  1.0000
  H   H362      1.0  0.22428  0.04902  0.57623  1.0000
  H   H363      1.0  0.06502  0.15701  0.53406  1.0000
  C   C219      1.0  0.02600  0.32361  0.67487  1.0000
  H   H364      1.0  0.43772  0.01939  0.66438  1.0000
  H   H365      1.0  0.99765  0.38045  0.62827  1.0000
  C   C220      1.0  0.35702  0.10937  0.54153  1.0000
  C   C221      1.0  0.00322  0.32320  0.64651  1.0000
  H   H366      1.0  0.34990  0.12663  0.53528  1.0000
  H   H367      1.0  0.43915  0.18996  0.66605  1.0000
  H   H368      1.0  0.41864  0.00275  0.66156  1.0000
  H   H369      1.0  0.37780  0.07827  0.57152  1.0000
  H   H370      1.0  0.39502  0.12684  0.60338  1.0000
  H   H371      1.0  0.38772  0.04145  0.71738  1.0000
  H   H372      1.0  0.23297  0.03074  0.54416  1.0000
  C   C222      1.0  0.01673  0.32091  0.53578  1.0000
  H   H373      1.0  0.41739  0.14199  0.59293  1.0000
  H   H374      1.0  0.44565  0.21361  0.72914  1.0000
  H   H375      1.0  0.46339  0.18331  0.64819  1.0000
  H   H376      1.0  0.04560  0.14223  0.50329  1.0000
  H   H377      1.0  0.48207  0.01239  0.62736  1.0000
  H   H378      1.0  0.02202  0.44334  0.63426  1.0000
  H   H379      1.0  0.30373  0.01935  0.50420  1.0000
  S   S49       1.0  0.99879  0.32939  0.55690  1.0000
  C   C223      1.0  0.06229  0.17051  0.51998  1.0000
  H   H380      1.0  0.26948  0.00348  0.59826  1.0000
  H   H381      1.0  0.40713  0.12713  0.56496  1.0000
  Fe  Fe27      1.0  0.16310  0.01023  0.51785  1.0000
  H   H382      1.0  0.01405  0.49015  0.64220  1.0000
  C   C224      1.0  0.01022  0.41722  0.57534  1.0000
  H   H383      1.0  0.45794  0.99474  0.58887  1.0000
  H   H384      1.0  0.44822  0.18607  0.70711  1.0000
  C   C225      1.0  0.41257  0.12545  0.59690  1.0000
  H   H385      1.0  0.26499  0.06175  0.54570  1.0000
  H   H386      1.0  0.04140  0.31629  0.68171  1.0000
  H   H387      1.0  0.42373  0.10789  0.53926  1.0000
  C   C226      1.0  0.45098  0.17637  0.66089  1.0000
  C   C227      1.0  0.04116  0.46687  0.69937  1.0000
  C   C228      1.0  0.00944  0.32071  0.51680  1.0000
  H   H388      1.0  0.04549  0.17161  0.51646  1.0000
  H   H389      1.0  0.48107  0.18953  0.72424  1.0000
  C   C229      1.0  0.46165  0.16111  0.68003  1.0000
  C   C230      1.0  0.41810  0.02322  0.60106  1.0000
  H   H390      1.0  0.08828  0.08637  0.53630  1.0000
  H   H391      1.0  0.43949  0.06158  0.53098  1.0000
  H   H392      1.0  0.48921  0.20840  0.70006  1.0000
  H   H393      1.0  0.01260  0.23978  0.54696  1.0000
  H   H394      1.0  0.43498  0.11560  0.73511  1.0000
  H   H395      1.0  0.01633  0.25025  0.62214  1.0000
  C   C231      1.0  0.47920  0.01835  0.69464  1.0000
  C   C232      1.0  0.42704  0.02607  0.51161  1.0000
  C   C233      1.0  0.40597  0.04576  0.59198  1.0000
  H   H396      1.0  0.43440  0.11586  0.57075  1.0000
  H   H397      1.0  0.34544  0.10216  0.55503  1.0000
  H   H398      1.0  0.02649  0.42247  0.57230  1.0000
  C   C234      1.0  0.07944  0.16685  0.50060  1.0000
  C   C235      1.0  0.47514  0.20135  0.71010  1.0000
  H   H399      1.0  0.01208  0.47770  0.57748  1.0000
  C   C236      1.0  0.37895  0.10864  0.54890  1.0000
  H   H400      1.0  0.02655  0.48565  0.72236  1.0000
  S   S50       1.0  0.48179  0.05232  0.55369  1.0000
  H   H401      1.0  0.01661  0.31851  0.59424  1.0000
  C   C237      1.0  0.02243  0.34679  0.60341  1.0000
  H   H402      1.0  0.23061  0.05875  0.53053  1.0000
  H   H403      1.0  0.35904  0.10020  0.52872  1.0000
  H   H404      1.0  0.00607  0.28678  0.59866  1.0000
  C   C238      1.0  0.48032  0.06787  0.57283  1.0000
  C   C239      1.0  0.02735  0.39362  0.52049  1.0000
  H   H405      1.0  0.24455  0.06269  0.58167  1.0000
  C   C240      1.0  0.43202  0.07898  0.52632  1.0000
  H   H406      1.0  0.11502  0.08652  0.52078  1.0000
  H   H407      1.0  0.28209  0.02008  0.53765  1.0000
  C   C241      1.0  0.24405  0.03199  0.50306  1.0000
  H   H408      1.0  0.03918  0.31962  0.64349  1.0000
  H   H409      1.0  0.07189  0.10108  0.50170  1.0000
  H   H410      1.0  0.23721  0.01680  0.51133  1.0000
  H   H411      1.0  0.00672  0.41430  0.56030  1.0000
  S   S51       1.0  0.19736  0.99859  0.52505  1.0000
  H   H412      1.0  0.01456  0.44458  0.59865  1.0000
  C   C242      1.0  0.41299  0.00552  0.70403  1.0000
  H   H413      1.0  0.41659  0.07991  0.51992  1.0000
  C   C243      1.0  0.02407  0.31264  0.50063  1.0000
  H   H414      1.0  0.04269  0.40065  0.51501  1.0000
  C   C244      1.0  0.41145  0.09231  0.58234  1.0000
  H   H415      1.0  0.04298  0.36841  0.58154  1.0000
  H   H416      1.0  0.39001  0.04352  0.58853  1.0000
  N   N10       1.0  0.00107  0.31627  0.62658  1.0000
  H   H417      1.0  0.40296  0.05505  0.60469  1.0000
  S   S52       1.0  0.31630  0.03341  0.55530  1.0000
  S   S53       1.0  0.36941  0.03264  0.55126  1.0000
  S   S54       1.0  0.14811  0.00143  0.55181  1.0000
  H   H418      1.0  0.05643  0.34063  0.58952  1.0000
  C   C245      1.0  0.23649  0.06005  0.56886  1.0000
  H   H419      1.0  0.28460  0.00712  0.49510  1.0000
  H   H420      1.0  0.39657  0.17926  0.71976  1.0000
  C   C246      1.0  0.48986  0.00067  0.68574  1.0000
  H   H421      1.0  0.46996  0.00859  0.54977  1.0000
  C   C247      1.0  0.42815  0.09006  0.54553  1.0000
  H   H422      1.0  0.37581  0.11801  0.56163  1.0000
  C   C248      1.0  0.25357  0.04992  0.55299  1.0000
  H   H423      1.0  0.38908  0.07493  0.54579  1.0000
  C   C249      1.0  0.44785  0.08998  0.50833  1.0000
  C   C250      1.0  0.01501  0.46099  0.63000  1.0000
  H   H424      1.0  0.07992  0.19134  0.53069  1.0000
  H   H425      1.0  0.05360  0.45718  0.70959  1.0000
  H   H426      1.0  0.03779  0.36735  0.50400  1.0000
  C   C251      1.0  0.08635  0.12674  0.50912  1.0000
  H   H427      1.0  0.44424  0.08813  0.55119  1.0000
  H   H428      1.0  0.41560  0.02291  0.69932  1.0000
  N   N11       1.0  0.41178  0.08159  0.56395  1.0000
  H   H429      1.0  0.42230  0.11485  0.60932  1.0000
  S   S55       1.0  0.47700  0.05013  0.71663  1.0000
  H   H430      1.0  0.43435  0.02443  0.60460  1.0000
  H   H431      1.0  0.43645  0.05396  0.57335  1.0000
  H   H432      1.0  0.37544  0.00428  0.72880  1.0000
  H   H433      1.0  0.39537  0.09230  0.59248  1.0000
  S   S56       1.0  0.33729  0.06510  0.59189  1.0000
  H   H434      1.0  0.44818  0.15555  0.69238  1.0000
  H   H435      1.0  0.44452  0.99727  0.72983  1.0000
  C   C252      1.0  0.42826  0.00533  0.73597  1.0000
  H   H436      1.0  0.45340  0.23271  0.70469  1.0000
  H   H437      1.0  0.44956  0.15047  0.64480  1.0000
  C   C253      1.0  0.49009  0.02739  0.70644  1.0000
  H   H438      1.0  0.02857  0.38263  0.53645  1.0000
  C   C254      1.0  0.45961  0.21999  0.71817  1.0000
  H   H439      1.0  0.43443  0.00924  0.54293  1.0000
  H   H440      1.0  0.41144  0.03470  0.51843  1.0000
  S   S57       1.0  0.00410  0.42459  0.69182  1.0000
  H   H441      1.0  0.45848  0.20362  0.68342  1.0000
  H   H442      1.0  0.06032  0.20603  0.51285  1.0000
  H   H443      1.0  0.02782  0.29647  0.66039  1.0000
  H   H444      1.0  0.42547  0.15679  0.66303  1.0000
  H   H445      1.0  0.01348  0.40708  0.52197  1.0000
  H   H446      1.0  0.09557  0.16638  0.50554  1.0000
  N   N12       1.0  0.47669  0.17066  0.68970  1.0000
  C   C255      1.0  0.48843  0.08775  0.56756  1.0000
  C   C256      1.0  0.27006  0.05640  0.50583  1.0000
  C   C257      1.0  0.40868  0.16806  0.72866  1.0000
  C   C258      1.0  0.41479  0.14668  0.72555  1.0000
  S   S58       1.0  0.01445  0.21001  0.49934  1.0000
  C   C259      1.0  0.01571  0.25255  0.53232  1.0000
  C   C260      1.0  0.09765  0.08570  0.52041  1.0000
  H   H447      1.0  0.01209  0.31970  0.68731  1.0000
  H   H448      1.0  0.06125  0.00679  0.53909  1.0000
  C   C261      1.0  0.09316  0.03231  0.49697  1.0000
  C   C262      1.0  0.26087  0.99556  0.59008  1.0000
  H   H449      1.0  0.01314  0.46519  0.66240  1.0000
  H   H450      1.0  0.25993  0.07240  0.50747  1.0000
  H   H451      1.0  0.47145  0.12461  0.71073  1.0000
  H   H452      1.0  0.01054  0.40166  0.58757  1.0000
  H   H453      1.0  0.03693  0.34724  0.57059  1.0000
  H   H454      1.0  0.47334  0.15604  0.72357  1.0000
  H   H455      1.0  0.99909  0.42527  0.61554  1.0000
  H   H456      1.0  0.22914  0.01212  0.60042  1.0000
  H   H457      1.0  0.43947  0.03712  0.50798  1.0000
  S   S59       1.0  0.19803  0.99640  0.58300  1.0000
  H   H458      1.0  0.10219  0.12783  0.51386  1.0000
  H   H459      1.0  0.42439  0.02227  0.49662  1.0000
  H   H460      1.0  0.46379  0.08892  0.51395  1.0000
  C   C263      1.0  0.00228  0.29170  0.63153  1.0000
  S   S60       1.0  0.34370  0.00156  0.59273  1.0000
  H   H461      1.0  0.00755  0.35768  0.59811  1.0000
  C   C264      1.0  0.43037  0.13222  0.73729  1.0000
  H   H462      1.0  0.04862  0.46902  0.68249  1.0000
  N   N13       1.0  0.41043  0.99802  0.72795  1.0000
  H   H463      1.0  0.09674  0.06970  0.51703  1.0000
  C   C265      1.0  0.99890  0.48967  0.58359  1.0000
  H   H464      1.0  0.42858  0.02316  0.72949  1.0000
  H   H465      1.0  0.99426  0.25068  0.60772  1.0000
  H   H466      1.0  0.45063  0.08153  0.49492  1.0000
  C   C266      1.0  0.02531  0.31461  0.65542  1.0000
  H   H467      1.0  0.02540  0.34166  0.67029  1.0000
  C   C267      1.0  0.01926  0.32239  0.60912  1.0000
  H   H468      1.0  0.48253  0.00669  0.58329  1.0000
  C   C268      1.0  0.99900  0.25708  0.62036  1.0000
  H   H469      1.0  0.02662  0.35167  0.61720  1.0000
  H   H470      1.0  0.44113  0.10746  0.50246  1.0000
  H   H471      1.0  0.03833  0.47014  0.64581  1.0000
  C   C269      1.0  0.38813  0.00795  0.73678  1.0000
  Fe  Fe28      1.0  0.00428  0.41716  0.72711  1.0000
  C   C270      1.0  0.48770  0.12964  0.70882  1.0000
  C   C271      1.0  0.43426  0.00497  0.52750  1.0000
  H   H472      1.0  0.31435  0.00052  0.63674  1.0000
  C   C272      1.0  0.23805  0.00044  0.59130  1.0000
  H   H473      1.0  0.49099  0.11656  0.57830  1.0000
  Fe  Fe29      1.0  0.37142  0.99704  0.56705  1.0000
  H   H474      1.0  0.22899  0.06640  0.49170  1.0000
  Fe  Fe30      1.0  0.32274  0.99743  0.57003  1.0000
  H   H475      1.0  0.37573  0.00110  0.50221  1.0000
  C   C273      1.0  0.99484  0.26850  0.52761  1.0000
  H   H476      1.0  0.42169  0.99436  0.52960  1.0000
  H   H477      1.0  0.48150  0.99378  0.67644  1.0000
  C   C274      1.0  0.45698  0.99354  0.51921  1.0000
  H   H478      1.0  0.00488  0.49256  0.68912  1.0000
  C   C275      1.0  0.32244  0.99377  0.65132  1.0000
  S   S61       1.0  0.34686  0.31485  0.94495  1.0000
  S   S62       1.0  0.44847  0.17198  0.76932  1.0000
  C   C276      1.0  0.46938  0.23385  0.97533  1.0000
  H   H479      1.0  0.22704  0.49061  0.93188  1.0000
  H   H480      1.0  0.10024  0.43327  0.87320  1.0000
  H   H481      1.0  0.40324  0.19519  0.80992  1.0000
  H   H482      1.0  0.22660  0.44715  0.94318  1.0000
  H   H483      1.0  0.44665  0.34946  0.84789  1.0000
  Fe  Fe31      1.0  0.35675  0.47072  0.89652  1.0000
  S   S63       1.0  0.34520  0.43859  0.91088  1.0000
  N   N14       1.0  0.15927  0.48906  0.92992  1.0000
  S   S64       1.0  0.36962  0.47312  0.92564  1.0000
  S   S65       1.0  0.38905  0.45595  0.88175  1.0000
  S   S66       1.0  0.36971  0.25289  0.93696  1.0000
  Fe  Fe32      1.0  0.42079  0.27212  0.94742  1.0000
  S   S67       1.0  0.40292  0.28929  0.91990  1.0000
  C   C277      1.0  0.03367  0.43810  0.80230  1.0000
  Fe  Fe33      1.0  0.37275  0.28532  0.94301  1.0000
  Fe  Fe34      1.0  0.40154  0.25573  0.91582  1.0000
  S   S68       1.0  0.40697  0.25097  0.88215  1.0000
  S   S69       1.0  0.42280  0.23855  0.94130  1.0000
  H   H484      1.0  0.47205  0.27172  0.80833  1.0000
  S   S70       1.0  0.03535  0.41604  0.74033  1.0000
  C   C278      1.0  0.07420  0.44495  0.94667  1.0000
  C   C279      1.0  0.47212  0.43784  0.92166  1.0000
  H   H485      1.0  0.02021  0.47017  0.78573  1.0000
  H   H486      1.0  0.24098  0.41153  0.93291  1.0000
  Fe  Fe35      1.0  0.45581  0.10446  0.82766  1.0000
  S   S71       1.0  0.48114  0.12010  0.80336  1.0000
  S   S72       1.0  0.44325  0.07405  0.82670  1.0000
  Fe  Fe36      1.0  0.44343  0.14329  0.84876  1.0000
  S   S73       1.0  0.46718  0.16287  0.82628  1.0000
  S   S74       1.0  0.42102  0.15156  0.87715  1.0000
  Fe  Fe37      1.0  0.45635  0.15048  0.80083  1.0000
  C   C280      1.0  0.24639  0.35627  0.91922  1.0000
  N   N15       1.0  0.28634  0.39618  0.92121  1.0000
  S   S75       1.0  0.03228  0.44450  0.82731  1.0000
  S   S76       1.0  0.43040  0.13420  0.82308  1.0000
  S   S77       1.0  0.46717  0.11223  0.85510  1.0000
  H   H487      1.0  0.49162  0.36165  0.80839  1.0000
  C   C281      1.0  0.45421  0.04894  0.84222  1.0000
  C   C282      1.0  0.44923  0.02949  0.83919  1.0000
  H   H488      1.0  0.45173  0.23849  0.98039  1.0000
  H   H489      1.0  0.12418  0.46437  0.94629  1.0000
  H   H490      1.0  0.43811  0.03018  0.82806  1.0000
  C   C283      1.0  0.47934  0.07631  0.90663  1.0000
  H   H491      1.0  0.43807  0.03054  0.76228  1.0000
  C   C284      1.0  0.03155  0.43769  0.93173  1.0000
  C   C285      1.0  0.48091  0.30561  0.92694  1.0000
  H   H492      1.0  0.29606  0.39923  0.87649  1.0000
  H   H493      1.0  0.46847  0.09393  0.96080  1.0000
  C   C286      1.0  0.47279  0.09623  0.91743  1.0000
  H   H494      1.0  0.40379  0.16749  0.78892  1.0000
  H   H495      1.0  0.04784  0.39310  0.78063  1.0000
  C   C287      1.0  0.40913  0.22349  0.88064  1.0000
  C   C288      1.0  0.40590  0.20724  0.89907  1.0000
  C   C289      1.0  0.40900  0.18520  0.89776  1.0000
  C   C290      1.0  0.41610  0.17931  0.87815  1.0000
  C   C291      1.0  0.41915  0.19554  0.85966  1.0000
  C   C292      1.0  0.41519  0.21764  0.86086  1.0000
  H   H496      1.0  0.40108  0.21163  0.91436  1.0000
  H   H497      1.0  0.40631  0.17270  0.91204  1.0000
  H   H498      1.0  0.42429  0.19107  0.84446  1.0000
  H   H499      1.0  0.41726  0.23021  0.84652  1.0000
  C   C293      1.0  0.46519  0.29206  0.92967  1.0000
  C   C294      1.0  0.46431  0.28115  0.91380  1.0000
  H   H500      1.0  0.31791  0.38123  0.90846  1.0000
  H   H501      1.0  0.27345  0.46303  0.88721  1.0000
  H   H502      1.0  0.30091  0.36899  0.94398  1.0000
  C   C295      1.0  0.45117  0.07172  0.76912  1.0000
  H   H503      1.0  0.37788  0.20983  0.80054  1.0000
  C   C296      1.0  0.46346  0.26622  0.82447  1.0000
  H   H504      1.0  0.38576  0.40944  0.97920  1.0000
  C   C297      1.0  0.44009  0.43077  0.94685  1.0000
  C   C298      1.0  0.33948  0.16357  0.78677  1.0000
  C   C299      1.0  0.38243  0.13353  0.79506  1.0000
  H   H505      1.0  0.42281  0.43460  0.95178  1.0000
  H   H506      1.0  0.09040  0.44938  0.94683  1.0000
  C   C300      1.0  0.36078  0.37582  0.91921  1.0000
  C   C301      1.0  0.35151  0.35812  0.93252  1.0000
  H   H507      1.0  0.35884  0.39104  0.92429  1.0000
  H   H508      1.0  0.34247  0.35978  0.94778  1.0000
  H   H509      1.0  0.49069  0.21560  0.87170  1.0000
  H   H510      1.0  0.10447  0.41043  0.89567  1.0000
  H   H511      1.0  0.46360  0.25431  0.86772  1.0000
  H   H512      1.0  0.04711  0.40448  0.81428  1.0000
  S   S78       1.0  0.03867  0.47574  0.86547  1.0000
  C   C302      1.0  0.30124  0.47901  0.88498  1.0000
  S   S79       1.0  0.24311  0.47009  0.97418  1.0000
  H   H513      1.0  0.44432  0.07404  0.75400  1.0000
  C   C303      1.0  0.35515  0.33789  0.92668  1.0000
  H   H514      1.0  0.41897  0.99450  0.90852  1.0000
  C   C304      1.0  0.06022  0.44787  0.96801  1.0000
  C   C305      1.0  0.36673  0.33589  0.90684  1.0000
  C   C306      1.0  0.02609  0.45337  0.78465  1.0000
  C   C307      1.0  0.02557  0.44658  0.76575  1.0000
  C   C308      1.0  0.03342  0.42477  0.76427  1.0000
  C   C309      1.0  0.04151  0.40986  0.78174  1.0000
  C   C310      1.0  0.04126  0.41637  0.80074  1.0000
  C   C311      1.0  0.39113  0.10437  0.77321  1.0000
  H   H515      1.0  0.48558  0.33786  0.84453  1.0000
  C   C312      1.0  0.47377  0.00806  0.86415  1.0000
  C   C313      1.0  0.13996  0.43452  0.96421  1.0000
  H   H516      1.0  0.31065  0.15003  0.78524  1.0000
  H   H517      1.0  0.39242  0.47918  0.96180  1.0000
  H   H518      1.0  0.32078  0.39895  0.94544  1.0000
  H   H519      1.0  0.45035  0.08801  0.77273  1.0000
  C   C314      1.0  0.47827  0.02753  0.86767  1.0000
  C   C315      1.0  0.37310  0.37350  0.89974  1.0000
  H   H520      1.0  0.35315  0.47466  0.97056  1.0000
  C   C316      1.0  0.10809  0.42716  0.88799  1.0000
  N   N16       1.0  0.45229  0.09655  0.93327  1.0000
  C   C317      1.0  0.43521  0.08579  0.92791  1.0000
  H   H521      1.0  0.45203  0.12830  0.76086  1.0000
  C   C318      1.0  0.44243  0.12009  0.93354  1.0000
  C   C319      1.0  0.44925  0.30713  0.81896  1.0000
  H   H522      1.0  0.33444  0.15706  0.82083  1.0000
  C   C320      1.0  0.42570  0.09731  0.90687  1.0000
  C   C321      1.0  0.45695  0.13398  0.93994  1.0000
  H   H523      1.0  0.42401  0.32512  0.89007  1.0000
  H   H524      1.0  0.16954  0.45979  0.86816  1.0000
  H   H525      1.0  0.12599  0.42624  0.88355  1.0000
  C   C322      1.0  0.41664  0.08149  0.89767  1.0000
  C   C323      1.0  0.44778  0.15840  0.93461  1.0000
  H   H526      1.0  0.42116  0.08495  0.94085  1.0000
  H   H527      1.0  0.44147  0.06849  0.92726  1.0000
  C   C324      1.0  0.48503  0.42128  0.93471  1.0000
  H   H528      1.0  0.01474  0.41325  0.87279  1.0000
  H   H529      1.0  0.42682  0.12081  0.94454  1.0000
  H   H530      1.0  0.43810  0.12900  0.91755  1.0000
  H   H531      1.0  0.46754  0.38191  0.91109  1.0000
  C   C325      1.0  0.38802  0.17748  0.79321  1.0000
  H   H532      1.0  0.44272  0.28336  0.84780  1.0000
  C   C326      1.0  0.30750  0.45689  0.95500  1.0000
  H   H533      1.0  0.41224  0.11069  0.90988  1.0000
  H   H534      1.0  0.43816  0.10473  0.89466  1.0000
  C   C327      1.0  0.38588  0.46984  0.97755  1.0000
  H   H535      1.0  0.18318  0.48074  0.88851  1.0000
  C   C328      1.0  0.43991  0.13936  0.75191  1.0000
  H   H536      1.0  0.48051  0.17283  0.96604  1.0000
  H   H537      1.0  0.44104  0.06178  0.78208  1.0000
  H   H538      1.0  0.44442  0.31248  0.87189  1.0000
  C   C329      1.0  0.48993  0.20944  0.79530  1.0000
  C   C330      1.0  0.43130  0.32662  0.87317  1.0000
  H   H539      1.0  0.31827  0.46040  0.94036  1.0000
  C   C331      1.0  0.48277  0.24233  0.98811  1.0000
  H   H540      1.0  0.00349  0.44552  0.95471  1.0000
  H   H541      1.0  0.41019  0.09037  0.88260  1.0000
  H   H542      1.0  0.42969  0.06803  0.89400  1.0000
  H   H543      1.0  0.43068  0.16143  0.94229  1.0000
  H   H544      1.0  0.13614  0.48404  0.91098  1.0000
  H   H545      1.0  0.44835  0.16452  0.91712  1.0000
  N   N17       1.0  0.36808  0.14390  0.81213  1.0000
  C   C332      1.0  0.37582  0.16458  0.81362  1.0000
  C   C333      1.0  0.36987  0.12773  0.83319  1.0000
  H   H546      1.0  0.38260  0.14494  0.77923  1.0000
  C   C334      1.0  0.10001  0.44269  0.90313  1.0000
  C   C335      1.0  0.35723  0.13581  0.85314  1.0000
  H   H547      1.0  0.12817  0.42441  0.96238  1.0000
  H   H548      1.0  0.47285  0.24112  0.95806  1.0000
  C   C336      1.0  0.32885  0.40601  0.86998  1.0000
  C   C337      1.0  0.36487  0.12103  0.87359  1.0000
  H   H549      1.0  0.36199  0.17623  0.81955  1.0000
  H   H550      1.0  0.38738  0.16084  0.82566  1.0000
  H   H551      1.0  0.38733  0.12248  0.83563  1.0000
  H   H552      1.0  0.36363  0.11251  0.83336  1.0000
  H   H553      1.0  0.42632  0.36163  0.86631  1.0000
  H   H554      1.0  0.38152  0.31444  0.98094  1.0000
  C   C338      1.0  0.45663  0.28628  0.83502  1.0000
  C   C339      1.0  0.28531  0.46552  0.95548  1.0000
  H   H555      1.0  0.33954  0.13557  0.85391  1.0000
  H   H556      1.0  0.35933  0.15269  0.85309  1.0000
  C   C340      1.0  0.41874  0.17536  0.74254  1.0000
  H   H557      1.0  0.45023  0.34769  0.89467  1.0000
  H   H558      1.0  0.39259  0.34334  0.94308  1.0000
  C   C341      1.0  0.45909  0.00909  0.85002  1.0000
  H   H559      1.0  0.47037  0.33428  0.87835  1.0000
  H   H560      1.0  0.44966  0.15574  0.98740  1.0000
  H   H561      1.0  0.41841  0.32606  0.86374  1.0000
  C   C342      1.0  0.04063  0.45945  0.92821  1.0000
  H   H562      1.0  0.35468  0.12631  0.88760  1.0000
  H   H563      1.0  0.36353  0.10369  0.87451  1.0000
  H   H564      1.0  0.38205  0.12236  0.87427  1.0000
  C   C343      1.0  0.45727  0.08542  0.95550  1.0000
  C   C344      1.0  0.34449  0.14875  0.80850  1.0000
  H   H565      1.0  0.32741  0.41324  0.85292  1.0000
  H   H566      1.0  0.46963  0.41553  0.85362  1.0000
  S   S80       1.0  0.34299  0.43132  0.97230  1.0000
  H   H567      1.0  0.47380  0.13173  0.93174  1.0000
  C   C345      1.0  0.46947  0.05105  0.98248  1.0000
  C   C346      1.0  0.44234  0.42977  0.87275  1.0000
  H   H568      1.0  0.35885  0.05968  0.74044  1.0000
  C   C347      1.0  0.24106  0.44529  0.93105  1.0000
  H   H569      1.0  0.38415  0.00028  0.75390  1.0000
  S   S81       1.0  0.39084  0.27037  0.97105  1.0000
  H   H570      1.0  0.47217  0.41023  0.88150  1.0000
  H   H571      1.0  0.39513  0.36912  0.94846  1.0000
  H   H572      1.0  0.03458  0.47038  0.91357  1.0000
  H   H573      1.0  0.31732  0.40810  0.91199  1.0000
  H   H574      1.0  0.45760  0.16780  0.94056  1.0000
  C   C348      1.0  0.42762  0.00051  0.76048  1.0000
  C   C349      1.0  0.00706  0.44058  0.93916  1.0000
  H   H575      1.0  0.38841  0.45226  0.97696  1.0000
  H   H576      1.0  0.45900  0.05097  0.95326  1.0000
  C   C350      1.0  0.46816  0.06113  0.95894  1.0000
  C   C351      1.0  0.47960  0.28324  0.89552  1.0000
  C   C352      1.0  0.30402  0.39823  0.95380  1.0000
  H   H577      1.0  0.47457  0.01600  0.80058  1.0000
  C   C353      1.0  0.47473  0.06013  0.76690  1.0000
  H   H578      1.0  0.44691  0.22313  0.90008  1.0000
  H   H579      1.0  0.26412  0.39209  0.90090  1.0000
  H   H580      1.0  0.47252  0.06288  0.85903  1.0000
  H   H581      1.0  0.23512  0.36884  0.90956  1.0000
  H   H582      1.0  0.47311  0.21573  0.97787  1.0000
  H   H583      1.0  0.07188  0.41607  0.98751  1.0000
  C   C354      1.0  0.15781  0.47045  0.87742  1.0000
  C   C355      1.0  0.47877  0.36675  0.90887  1.0000
  H   H584      1.0  0.31282  0.46413  0.88550  1.0000
  H   H585      1.0  0.25595  0.41692  0.95192  1.0000
  C   C356      1.0  0.27114  0.46130  0.97443  1.0000
  H   H586      1.0  0.03415  0.43215  0.91651  1.0000
  H   H587      1.0  0.99654  0.42036  0.83966  1.0000
  H   H588      1.0  0.49171  0.36418  0.93816  1.0000
  H   H589      1.0  0.46291  0.31137  0.80634  1.0000
  H   H590      1.0  0.00097  0.42489  0.94107  1.0000
  C   C357      1.0  0.40370  0.35243  0.94766  1.0000
  H   H591      1.0  0.44190  0.38640  0.88919  1.0000
  C   C358      1.0  0.47850  0.22722  0.82706  1.0000
  H   H592      1.0  0.33781  0.13329  0.81068  1.0000
  H   H593      1.0  0.47030  0.35258  0.91647  1.0000
  H   H594      1.0  0.40248  0.20717  0.78206  1.0000
  H   H595      1.0  0.48134  0.31421  0.93913  1.0000
  H   H596      1.0  0.41438  0.19217  0.74421  1.0000
  C   C359      1.0  0.15866  0.46762  0.94603  1.0000
  H   H597      1.0  0.28422  0.43047  0.92155  1.0000
  H   H598      1.0  0.23657  0.34539  0.93154  1.0000
  H   H599      1.0  0.34883  0.15665  0.77332  1.0000
  H   H600      1.0  0.46994  0.20289  0.90732  1.0000
  C   C360      1.0  0.45812  0.34930  0.87807  1.0000
  C   C361      1.0  0.25972  0.36712  0.92996  1.0000
  C   C362      1.0  0.29134  0.38570  0.94357  1.0000
  C   C363      1.0  0.46427  0.24117  0.85908  1.0000
  H   H601      1.0  0.41126  0.00573  0.76858  1.0000
  C   C364      1.0  0.46491  0.21923  0.89725  1.0000
  H   H602      1.0  0.44705  0.24086  0.85792  1.0000
  H   H603      1.0  0.39516  0.03799  0.74356  1.0000
  H   H604      1.0  0.46653  0.37738  0.83739  1.0000
  H   H605      1.0  0.33946  0.41511  0.87533  1.0000
  Fe  Fe38      1.0  0.40087  0.45504  0.91243  1.0000
  C   C365      1.0  0.44970  0.44263  0.92776  1.0000
  C   C366      1.0  0.14052  0.45436  0.94558  1.0000
  H   H606      1.0  0.43080  0.43197  0.86103  1.0000
  C   C367      1.0  0.07487  0.44505  0.90904  1.0000
  H   H607      1.0  0.48517  0.07420  0.78924  1.0000
  C   C368      1.0  0.46861  0.04796  0.85662  1.0000
  Fe  Fe39      1.0  0.39106  0.23813  0.96287  1.0000
  Fe  Fe40      1.0  0.37873  0.42381  0.89890  1.0000
  H   H608      1.0  0.04403  0.44284  0.96962  1.0000
  S   S82       1.0  0.43396  0.46368  0.91152  1.0000
  S   S83       1.0  0.44716  0.28819  0.95322  1.0000
  H   H609      1.0  0.44810  0.26168  0.82171  1.0000
  H   H610      1.0  0.45232  0.27048  0.91589  1.0000
  C   C369      1.0  0.37565  0.35368  0.89337  1.0000
  H   H611      1.0  0.36883  0.32057  0.90187  1.0000
  H   H612      1.0  0.19380  0.48130  0.91876  1.0000
  H   H613      1.0  0.39966  0.13003  0.79828  1.0000
  H   H614      1.0  0.31386  0.36935  0.97818  1.0000
  H   H615      1.0  0.25218  0.45645  0.93205  1.0000
  H   H616      1.0  0.38742  0.08843  0.77194  1.0000
  H   H617      1.0  0.47940  0.44697  0.90682  1.0000
  C   C370      1.0  0.25253  0.42156  0.93516  1.0000
  C   C371      1.0  0.99851  0.41729  0.88191  1.0000
  Fe  Fe41      1.0  0.36027  0.43982  0.93912  1.0000
  S   S84       1.0  0.38589  0.39501  0.88355  1.0000
  H   H618      1.0  0.34330  0.18017  0.78537  1.0000
  H   H619      1.0  0.27615  0.38329  0.95464  1.0000
  H   H620      1.0  0.42936  0.19392  0.98245  1.0000
  H   H621      1.0  0.44410  0.00756  0.78399  1.0000
  H   H622      1.0  0.03978  0.42459  0.94368  1.0000
  C   C372      1.0  0.30629  0.40771  0.88300  1.0000
  H   H623      1.0  0.99635  0.40967  0.81077  1.0000
  N   N18       1.0  0.47674  0.24659  0.83707  1.0000
  H   H624      1.0  0.23559  0.45028  0.91503  1.0000
  H   H625      1.0  0.38479  0.35196  0.87815  1.0000
  C   C373      1.0  0.47270  0.21915  0.87379  1.0000
  H   H626      1.0  0.10493  0.45869  0.89470  1.0000
  N   N19       1.0  0.46901  0.36944  0.87119  1.0000
  H   H627      1.0  0.36728  0.34092  0.97286  1.0000
  S   S85       1.0  0.39285  0.42171  0.92860  1.0000
  H   H628      1.0  0.41665  0.32231  0.96686  1.0000
  H   H629      1.0  0.25731  0.34618  0.90883  1.0000
  H   H630      1.0  0.28983  0.38739  0.98669  1.0000
  C   C374      1.0  0.39313  0.19872  0.79674  1.0000
  H   H631      1.0  0.42694  0.34462  0.97084  1.0000
  H   H632      1.0  0.05769  0.46507  0.96947  1.0000
  H   H633      1.0  0.47355  0.05040  0.80100  1.0000
  H   H634      1.0  0.48411  0.24402  0.79319  1.0000
  H   H635      1.0  0.47210  0.23146  0.90230  1.0000
  C   C375      1.0  0.46092  0.41111  0.86991  1.0000
  H   H636      1.0  0.29931  0.42537  0.88046  1.0000
  H   H637      1.0  0.47143  0.11102  0.90413  1.0000
  H   H638      1.0  0.30507  0.17361  0.79729  1.0000
  C   C376      1.0  0.37679  0.11183  0.79224  1.0000
  H   H639      1.0  0.26890  0.42562  0.90337  1.0000
  H   H640      1.0  0.07092  0.42811  0.91355  1.0000
  H   H641      1.0  0.31642  0.39498  0.98364  1.0000
  H   H642      1.0  0.33664  0.38862  0.87160  1.0000
  H   H643      1.0  0.06763  0.45303  0.89415  1.0000
  H   H644      1.0  0.08924  0.47927  0.91624  1.0000
  H   H645      1.0  0.40326  0.07447  0.90905  1.0000
  H   H646      1.0  0.24822  0.37631  0.94063  1.0000
  H   H647      1.0  0.45774  0.12932  0.95729  1.0000
  H   H648      1.0  0.28601  0.37021  0.90496  1.0000
  H   H649      1.0  0.47014  0.28916  0.84237  1.0000
  H   H650      1.0  0.01933  0.45816  0.75228  1.0000
  H   H651      1.0  0.14298  0.46270  0.88349  1.0000
  C   C377      1.0  0.45207  0.38923  0.87336  1.0000
  C   C378      1.0  0.07129  0.47996  0.91911  1.0000
  H   H652      1.0  0.43357  0.36503  0.93308  1.0000
  H   H653      1.0  0.43541  0.30494  0.81160  1.0000
  C   C379      1.0  0.27374  0.41903  0.91959  1.0000
  C   C380      1.0  0.45299  0.41430  0.95993  1.0000
  H   H654      1.0  0.17325  0.45711  0.90588  1.0000
  C   C381      1.0  0.44024  0.34824  0.86493  1.0000
  N   N20       1.0  0.06512  0.45732  0.92638  1.0000
  C   C382      1.0  0.30779  0.39777  0.90701  1.0000
  C   C383      1.0  0.42269  0.35469  0.92996  1.0000
  C   C384      1.0  0.43455  0.16118  0.75403  1.0000
  C   C385      1.0  0.47927  0.37219  0.84829  1.0000
  H   H655      1.0  0.14347  0.44810  0.93078  1.0000
  H   H656      1.0  0.44893  0.44528  0.87033  1.0000
  C   C386      1.0  0.30611  0.38671  0.97698  1.0000
  H   H657      1.0  0.47946  0.27412  0.88369  1.0000
  H   H658      1.0  0.43196  0.33824  0.92883  1.0000
  H   H659      1.0  0.47876  0.06045  0.91809  1.0000
  H   H660      1.0  0.44563  0.40530  0.97483  1.0000
  C   C387      1.0  0.27429  0.38192  0.91322  1.0000
  H   H661      1.0  0.44030  0.39205  0.86169  1.0000
  H   H662      1.0  0.07726  0.42699  0.94738  1.0000
  H   H663      1.0  0.03248  0.46778  0.94113  1.0000
  H   H664      1.0  0.43344  0.42629  0.88910  1.0000
  H   H665      1.0  0.27009  0.35381  0.93995  1.0000
  H   H666      1.0  0.37971  0.09847  0.80643  1.0000
  H   H667      1.0  0.29554  0.41517  0.95362  1.0000
  H   H668      1.0  0.17436  0.45638  0.94397  1.0000
  H   H669      1.0  0.41638  0.36263  0.91461  1.0000
  H   H670      1.0  0.15735  0.47047  0.96237  1.0000
  H   H671      1.0  0.44201  0.08649  0.96693  1.0000
  H   H672      1.0  0.15627  0.42422  0.96484  1.0000
  C   C388      1.0  0.27896  0.47838  0.88586  1.0000
  S   S86       1.0  0.49122  0.38963  0.97111  1.0000
  H   H673      1.0  0.37861  0.18163  0.77955  1.0000
  H   H674      1.0  0.46813  0.07725  0.89498  1.0000
  H   H675      1.0  0.13455  0.43984  0.97945  1.0000
  C   C389      1.0  0.41163  0.33939  0.96896  1.0000
  C   C390      1.0  0.47546  0.40964  0.95394  1.0000
  H   H676      1.0  0.35960  0.11375  0.78945  1.0000
  H   H677      1.0  0.46190  0.22360  0.82691  1.0000
  C   C391      1.0  0.31552  0.44355  0.97330  1.0000
  H   H678      1.0  0.31212  0.17705  0.76890  1.0000
  C   C392      1.0  0.31533  0.16616  0.78451  1.0000
  H   H679      1.0  0.19510  0.47978  0.95621  1.0000
  C   C393      1.0  0.48665  0.36694  0.88499  1.0000
  H   H680      1.0  0.46647  0.20556  0.86996  1.0000
  C   C394      1.0  0.16825  0.47344  0.89575  1.0000
  H   H681      1.0  0.10851  0.43630  0.91744  1.0000
  H   H682      1.0  0.08821  0.43700  0.98573  1.0000
  H   H683      1.0  0.27912  0.47544  0.94113  1.0000
  H   H684      1.0  0.35678  0.03403  0.75936  1.0000
  Fe  Fe42      1.0  0.03035  0.47829  0.83292  1.0000
  H   H685      1.0  0.47277  0.20793  0.79479  1.0000
  C   C395      1.0  0.44350  0.01258  0.76656  1.0000
  H   H686      1.0  0.44378  0.32092  0.82714  1.0000
  H   H687      1.0  0.06525  0.48791  0.90355  1.0000
  C   C396      1.0  0.36091  0.04164  0.74229  1.0000
  H   H688      1.0  0.48686  0.09743  0.92510  1.0000
  H   H689      1.0  0.48719  0.21217  0.83670  1.0000
  H   H690      1.0  0.00072  0.42506  0.89471  1.0000
  H   H691      1.0  0.40862  0.10226  0.77515  1.0000
  C   C397      1.0  0.07133  0.43372  0.98690  1.0000
  H   H692      1.0  0.15341  0.48651  0.86653  1.0000
  H   H693      1.0  0.48479  0.45797  0.96696  1.0000
  H   H694      1.0  0.45554  0.99417  0.84722  1.0000
  H   H695      1.0  0.37567  0.37219  0.97930  1.0000
  C   C398      1.0  0.42058  0.18014  0.98640  1.0000
  Fe  Fe43      1.0  0.49010  0.13105  0.83065  1.0000
  C   C399      1.0  0.36154  0.47781  0.98278  1.0000
  H   H696      1.0  0.48511  0.05990  0.95070  1.0000
  C   C400      1.0  0.49095  0.22914  0.80431  1.0000
  H   H697      1.0  0.47717  0.03361  0.98450  1.0000
  H   H698      1.0  0.41480  0.37967  0.97320  1.0000
  H   H699      1.0  0.99824  0.45323  0.92725  1.0000
  C   C401      1.0  0.15255  0.48865  0.90890  1.0000
  H   H700      1.0  0.07352  0.49183  0.94726  1.0000
  H   H701      1.0  0.33170  0.32824  0.98812  1.0000
  H   H702      1.0  0.48954  0.02676  0.87868  1.0000
  H   H703      1.0  0.46083  0.49196  0.96012  1.0000
  N   N21       1.0  0.39510  0.34007  0.98842  1.0000
  C   C402      1.0  0.49153  0.00728  0.80081  1.0000
  H   H704      1.0  0.48376  0.07041  0.75337  1.0000
  H   H705      1.0  0.46011  0.00872  0.75814  1.0000
  H   H706      1.0  0.48997  0.11797  0.74277  1.0000
  C   C403      1.0  0.37596  0.33025  0.98602  1.0000
  C   C404      1.0  0.48503  0.05735  0.78738  1.0000
  H   H707      1.0  0.38804  0.11651  0.75820  1.0000
  H   H708      1.0  0.43343  0.48873  0.95857  1.0000
  H   H709      1.0  0.47453  0.04415  0.76321  1.0000
  H   H710      1.0  0.48916  0.38570  0.84408  1.0000
  H   H711      1.0  0.47766  0.26029  0.98563  1.0000
  C   C405      1.0  0.32226  0.50351  0.00785  1.0000
  H   H712      1.0  0.38229  0.83121  0.04733  1.0000
  H   H713      1.0  0.48185  0.85980  0.10554  1.0000
  H   H714      1.0  0.41163  0.65451  0.03062  1.0000
  C   C406      1.0  0.34296  0.54299  0.00234  1.0000
  H   H715      1.0  0.09930  0.58881  0.06134  1.0000
  H   H716      1.0  0.40154  0.69775  0.99736  1.0000
  H   H717      1.0  0.01625  0.53583  0.12482  1.0000
  H   H718      1.0  0.11123  0.52179  0.02539  1.0000
  Fe  Fe44      1.0  0.04423  0.52282  0.03850  1.0000
  H   H719      1.0  0.22909  0.61239  0.00118  1.0000
  C   C407      1.0  0.40363  0.95163  0.08249  1.0000
  C   C408      1.0  0.13101  0.52335  0.99524  1.0000
  H   H720      1.0  0.38539  0.93554  0.03642  1.0000
  H   H721      1.0  0.04449  0.60267  0.19019  1.0000
  H   H722      1.0  0.47002  0.94328  0.10169  1.0000
  C   C409      1.0  0.03332  0.55930  0.07051  1.0000
  Fe  Fe45      1.0  0.45307  0.89819  0.07654  1.0000
  H   H723      1.0  0.48386  0.83405  0.09781  1.0000
  S   S87       1.0  0.43744  0.89680  0.11052  1.0000
  Fe  Fe46      1.0  0.44998  0.88701  0.03403  1.0000
  C   C410      1.0  0.01831  0.58091  0.09700  1.0000
  S   S88       1.0  0.44166  0.87197  0.00918  1.0000
  C   C411      1.0  0.45729  0.79477  0.03055  1.0000
  Fe  Fe47      1.0  0.45999  0.93168  0.03581  1.0000
  H   H724      1.0  0.42241  0.97735  0.06906  1.0000
  S   S89       1.0  0.46797  0.86957  0.06171  1.0000
  S   S90       1.0  0.43215  0.91353  0.05045  1.0000
  H   H725      1.0  0.36553  0.50365  0.99658  1.0000
  C   C412      1.0  0.42198  0.85491  0.01220  1.0000
  H   H726      1.0  0.47827  0.79979  0.99176  1.0000
  H   H727      1.0  0.41403  0.92330  0.00897  1.0000
  Fe  Fe48      1.0  0.46022  0.95980  0.21602  1.0000
  C   C413      1.0  0.03838  0.49910  0.11751  1.0000
  C   C414      1.0  0.40846  0.84916  0.03131  1.0000
  H   H728      1.0  0.06167  0.64662  0.17473  1.0000
  N   N22       1.0  0.12188  0.55576  0.04035  1.0000
  C   C415      1.0  0.04144  0.62076  0.18502  1.0000
  H   H729      1.0  0.41004  0.85510  0.04503  1.0000
  H   H730      1.0  0.43109  0.73751  0.03126  1.0000
  C   C416      1.0  0.38570  0.60913  0.99575  1.0000
  H   H731      1.0  0.38959  0.96213  0.08956  1.0000
  C   C417      1.0  0.45808  0.81619  0.05845  1.0000
  C   C418      1.0  0.21248  0.61135  0.99835  1.0000
  H   H732      1.0  0.12563  0.60266  0.03227  1.0000
  H   H733      1.0  0.33390  0.49866  0.01984  1.0000
  H   H734      1.0  0.04037  0.51437  0.10525  1.0000
  C   C419      1.0  0.40437  0.67958  0.00192  1.0000
  C   C420      1.0  0.44310  0.89861  0.15066  1.0000
  C   C421      1.0  0.45325  0.89779  0.12997  1.0000
  H   H735      1.0  0.42569  0.89879  0.15443  1.0000
  C   C422      1.0  0.44797  0.79853  0.05317  1.0000
  H   H736      1.0  0.03437  0.62550  0.16984  1.0000
  H   H737      1.0  0.45223  0.81073  0.01961  1.0000
  H   H738      1.0  0.48335  0.71233  0.04507  1.0000
  C   C423      1.0  0.11763  0.53460  0.01238  1.0000
  H   H739      1.0  0.43010  0.80419  0.05406  1.0000
  H   H740      1.0  0.38889  0.67527  0.03545  1.0000
  H   H741      1.0  0.45578  0.74015  0.06002  1.0000
  H   H742      1.0  0.32041  0.57318  0.00421  1.0000
  H   H743      1.0  0.42115  0.67463  0.99437  1.0000
  H   H744      1.0  0.14335  0.58985  0.01297  1.0000
  H   H745      1.0  0.41457  0.97056  0.11068  1.0000
  H   H746      1.0  0.07180  0.62381  0.19511  1.0000
  H   H747      1.0  0.48361  0.89710  0.10931  1.0000
  H   H748      1.0  0.10292  0.53036  0.05765  1.0000
  C   C424      1.0  0.13809  0.56804  0.04508  1.0000
  H   H749      1.0  0.07114  0.49356  0.08382  1.0000
  H   H750      1.0  0.43706  0.68165  0.02466  1.0000
  C   C425      1.0  0.39055  0.82803  0.01474  1.0000
  H   H751      1.0  0.99451  0.52691  0.14346  1.0000
  C   C426      1.0  0.44940  0.97665  0.12390  1.0000
  H   H752      1.0  0.38594  0.76342  0.04267  1.0000
  C   C427      1.0  0.26735  0.57095  0.03101  1.0000
  S   S91       1.0  0.26320  0.52755  0.03966  1.0000
  C   C428      1.0  0.42965  0.96273  0.10215  1.0000
  H   H753      1.0  0.41538  0.75797  0.01302  1.0000
  H   H754      1.0  0.36845  0.70562  0.01557  1.0000
  H   H755      1.0  0.40147  0.74249  0.06093  1.0000
  H   H756      1.0  0.39065  0.63913  0.01559  1.0000
  C   C429      1.0  0.46531  0.98477  0.02734  1.0000
  H   H757      1.0  0.32357  0.70156  0.00601  1.0000
  C   C430      1.0  0.48087  0.84217  0.11142  1.0000
  H   H758      1.0  0.47580  0.81079  0.05912  1.0000
  H   H759      1.0  0.39169  0.73556  0.03948  1.0000
  H   H760      1.0  0.09503  0.51646  0.09573  1.0000
  C   C431      1.0  0.99826  0.52041  0.09612  1.0000
  H   H761      1.0  0.17515  0.58834  0.03161  1.0000
  S   S92       1.0  0.05328  0.53889  0.06211  1.0000
  H   H762      1.0  0.41421  0.70243  0.02967  1.0000
  C   C432      1.0  0.45747  0.84026  0.12176  1.0000
  H   H763      1.0  0.00546  0.55101  0.20514  1.0000
  C   C433      1.0  0.45538  0.89910  0.16656  1.0000
  H   H764      1.0  0.43586  0.79702  0.99728  1.0000
  H   H765      1.0  0.26299  0.56985  0.04793  1.0000
  Fe  Fe49      1.0  0.23726  0.51567  0.02778  1.0000
  H   H766      1.0  0.33600  0.53495  0.01844  1.0000
  H   H767      1.0  0.42100  0.67887  0.05053  1.0000
  C   C434      1.0  0.33821  0.56765  0.00111  1.0000
  H   H768      1.0  0.01882  0.58489  0.11205  1.0000
  S   S93       1.0  0.48022  0.91762  0.06259  1.0000
  S   S94       1.0  0.06181  0.52439  0.00550  1.0000
  C   C435      1.0  0.39275  0.83569  0.03256  1.0000
  H   H769      1.0  0.11291  0.51898  0.11350  1.0000
  H   H770      1.0  0.47147  0.94585  0.13492  1.0000
  C   C436      1.0  0.44915  0.78284  0.00032  1.0000
  C   C437      1.0  0.11214  0.51735  0.09713  1.0000
  H   H771      1.0  0.04217  0.51408  0.15377  1.0000
  H   H772      1.0  0.13710  0.53700  0.08299  1.0000
  H   H773      1.0  0.20061  0.62310  0.00623  1.0000
  H   H774      1.0  0.03492  0.62488  0.21708  1.0000
  H   H775      1.0  0.46494  0.74334  0.01943  1.0000
  S   S95       1.0  0.44991  0.96733  0.02148  1.0000
  N   N23       1.0  0.38806  0.67054  0.99349  1.0000
  C   C438      1.0  0.47110  0.74513  0.05068  1.0000
  C   C439      1.0  0.33470  0.70536  0.01560  1.0000
  H   H776      1.0  0.99998  0.62226  0.17608  1.0000
  N   N24       1.0  0.45080  0.77597  0.02383  1.0000
  C   C440      1.0  0.42863  0.77145  0.03515  1.0000
  H   H777      1.0  0.47686  0.75658  0.05803  1.0000
  C   C441      1.0  0.46799  0.75593  0.02731  1.0000
  C   C442      1.0  0.41941  0.75301  0.02953  1.0000
  H   H778      1.0  0.44476  0.76948  0.99444  1.0000
  C   C443      1.0  0.39836  0.74838  0.04411  1.0000
  C   C444      1.0  0.47574  0.89755  0.12523  1.0000
  H   H779      1.0  0.41645  0.78664  0.03188  1.0000
  H   H780      1.0  0.42855  0.76714  0.05264  1.0000
  H   H781      1.0  0.01694  0.56705  0.04265  1.0000
  C   C445      1.0  0.11992  0.53701  0.08101  1.0000
  S   S96       1.0  0.20203  0.52815  0.03656  1.0000
  S   S97       1.0  0.37113  0.81084  0.01653  1.0000
  C   C446      1.0  0.46919  0.96083  0.09338  1.0000
  C   C447      1.0  0.06359  0.62854  0.18053  1.0000
  H   H782      1.0  0.16113  0.61578  0.02332  1.0000
  H   H783      1.0  0.07416  0.62087  0.16806  1.0000
  C   C448      1.0  0.08842  0.58088  0.05504  1.0000
  H   H784      1.0  0.13148  0.52149  0.05504  1.0000
  H   H785      1.0  0.40036  0.95080  0.06657  1.0000
  H   H786      1.0  0.46844  0.66577  0.99494  1.0000
  H   H787      1.0  0.46951  0.97081  0.15986  1.0000
  H   H788      1.0  0.14793  0.53787  0.02223  1.0000
  C   C449      1.0  0.02645  0.63080  0.20266  1.0000
  H   H789      1.0  0.48420  0.76006  0.01934  1.0000
  H   H790      1.0  0.43252  0.94558  0.11157  1.0000
  H   H791      1.0  0.10359  0.54564  0.00534  1.0000
  C   C450      1.0  0.26869  0.55246  0.02266  1.0000
  H   H792      1.0  0.33020  0.72294  0.01620  1.0000
  H   H793      1.0  0.00860  0.55447  0.16040  1.0000
  C   C451      1.0  0.00663  0.56194  0.21564  1.0000
  C   C452      1.0  0.27675  0.59257  0.99553  1.0000
  H   H794      1.0  0.44294  0.94444  0.14287  1.0000
  C   C453      1.0  0.40402  0.83401  0.99571  1.0000
  H   H795      1.0  0.15444  0.55756  0.04529  1.0000
  H   H796      1.0  0.38022  0.60466  0.01309  1.0000
  H   H797      1.0  0.45315  0.84868  0.13525  1.0000
  H   H798      1.0  0.02284  0.55730  0.22136  1.0000
  C   C454      1.0  0.01725  0.57079  0.05785  1.0000
  C   C455      1.0  0.45559  0.95508  0.14022  1.0000
  H   H799      1.0  0.05110  0.49733  0.12791  1.0000
  C   C456      1.0  0.00346  0.60164  0.21802  1.0000
  H   H800      1.0  0.00554  0.66244  0.17289  1.0000
  S   S98       1.0  0.01133  0.52536  0.02869  1.0000
  C   C457      1.0  0.01212  0.52205  0.13811  1.0000
  H   H801      1.0  0.26950  0.60541  0.02391  1.0000
  Fe  Fe50      1.0  0.20056  0.53569  0.00170  1.0000
  H   H802      1.0  0.33245  0.69533  0.03206  1.0000
  H   H803      1.0  0.36247  0.66645  0.02034  1.0000
  H   H804      1.0  0.10992  0.55199  0.08515  1.0000
  H   H805      1.0  0.08873  0.56062  0.03337  1.0000
  H   H806      1.0  0.07523  0.61224  0.03584  1.0000
  H   H807      1.0  0.01637  0.58746  0.18959  1.0000
  H   H808      1.0  0.44747  0.89952  0.18253  1.0000
  C   C458      1.0  0.10038  0.57017  0.03656  1.0000
  H   H809      1.0  0.13385  0.57164  0.06114  1.0000
  H   H810      1.0  0.03468  0.55431  0.14392  1.0000
  N   N25       1.0  0.00350  0.62568  0.20759  1.0000
  H   H811      1.0  0.02636  0.64882  0.19849  1.0000
  H   H812      1.0  0.10246  0.58321  0.02186  1.0000
  S   S99       1.0  0.44614  0.92987  0.21679  1.0000
  C   C459      1.0  0.15970  0.59965  0.03431  1.0000
  H   H813      1.0  0.12278  0.50194  0.09458  1.0000
  C   C460      1.0  0.06928  0.59831  0.04787  1.0000
  C   C461      1.0  0.39368  0.64590  0.99816  1.0000
  C   C462      1.0  0.13155  0.54795  0.02021  1.0000
  H   H814      1.0  0.99726  0.53671  0.09967  1.0000
  C   C463      1.0  0.14056  0.59062  0.02992  1.0000
  H   H815      1.0  0.37056  0.95377  0.01605  1.0000
  H   H816      1.0  0.49213  0.97033  0.11059  1.0000
  C   C464      1.0  0.27101  0.59105  0.01743  1.0000
  H   H817      1.0  0.03341  0.54482  0.17237  1.0000
  H   H818      1.0  0.46902  0.96087  0.07640  1.0000
  N   N26       1.0  0.44861  0.97422  0.10167  1.0000
  H   H819      1.0  0.01734  0.59518  0.22748  1.0000
  H   H820      1.0  0.01738  0.51305  0.17173  1.0000
  H   H821      1.0  0.40341  0.60307  0.99263  1.0000
  H   H822      1.0  0.15728  0.60181  0.05094  1.0000
  H   H823      1.0  0.34619  0.57165  0.01325  1.0000
  C   C465      1.0  0.42031  0.68457  0.03316  1.0000
  H   H824      1.0  0.05993  0.60454  0.06174  1.0000
  C   C466      1.0  0.36518  0.67669  0.00396  1.0000
  H   H825      1.0  0.39730  0.95818  0.01926  1.0000
  H   H826      1.0  0.30935  0.51620  0.01350  1.0000
  C   C467      1.0  0.00217  0.58787  0.06445  1.0000
  H   H827      1.0  0.20890  0.59452  0.00562  1.0000
  Fe  Fe51      1.0  0.19581  0.49484  0.03605  1.0000
  C   C468      1.0  0.35836  0.70102  0.00553  1.0000
  H   H828      1.0  0.08169  0.56827  0.06814  1.0000
  C   C469      1.0  0.03399  0.56453  0.08996  1.0000
  S   S100      1.0  0.47619  0.90674  0.01712  1.0000
  C   C470      1.0  0.41978  0.84721  0.99450  1.0000
  H   H829      1.0  0.04659  0.55584  0.09963  1.0000
  C   C471      1.0  0.00256  0.59279  0.08413  1.0000
  H   H830      1.0  0.38774  0.91765  0.00690  1.0000
  C   C472      1.0  0.02504  0.52204  0.15634  1.0000
  H   H831      1.0  0.47530  0.79290  0.02924  1.0000
  H   H832      1.0  0.49070  0.82377  0.01767  1.0000
  C   C473      1.0  0.42461  0.96115  0.08018  1.0000
  C   C474      1.0  0.11874  0.53561  0.05787  1.0000
  H   H833      1.0  0.45532  0.82281  0.12756  1.0000
  H   H834      1.0  0.05810  0.59128  0.04090  1.0000
  H   H835      1.0  0.14490  0.51165  0.00173  1.0000
  C   C475      1.0  0.38704  0.94559  0.01992  1.0000
  C   C476      1.0  0.45746  0.95965  0.16161  1.0000
  C   C477      1.0  0.40519  0.67226  0.02624  1.0000
  C   C478      1.0  0.27426  0.55403  0.00074  1.0000
  Fe  Fe52      1.0  0.48086  0.91510  0.20820  1.0000
  H   H836      1.0  0.35309  0.67310  0.99519  1.0000
  H   H837      1.0  0.43326  0.98439  0.13067  1.0000
  H   H838      1.0  0.45029  0.81942  0.07417  1.0000
  S   S101      1.0  0.23617  0.52540  0.99267  1.0000
  H   H839      1.0  0.40517  0.93482  0.09267  1.0000
  C   C479      1.0  0.02540  0.54537  0.15835  1.0000
  H   H840      1.0  0.44316  0.49370  0.01244  1.0000
  H   H841      1.0  0.43803  0.95034  0.07274  1.0000
  C   C480      1.0  0.00348  0.58574  0.20340  1.0000
  Fe  Fe53      1.0  0.02936  0.52296  0.99639  1.0000
  H   H842      1.0  0.44139  0.96698  0.16885  1.0000
  H   H843      1.0  0.13442  0.56185  0.00666  1.0000
  S   S102      1.0  0.37171  0.75741  0.99789  1.0000
  H   H844      1.0  0.44606  0.84814  0.10988  1.0000
  S   S103      1.0  0.19208  0.50331  0.00144  1.0000
  C   C481      1.0  0.48599  0.97669  0.03355  1.0000
  H   H845      1.0  0.48621  0.98373  0.21947  1.0000
  H   H846      1.0  0.45097  0.78341  0.06560  1.0000
  H   H847      1.0  0.45557  0.83170  0.04627  1.0000
  H   H848      1.0  0.41142  0.64061  0.99376  1.0000
  N   N27       1.0  0.01600  0.50109  0.13020  1.0000
  C   C482      1.0  0.49079  0.96863  0.09442  1.0000
  H   H849      1.0  0.01311  0.51747  0.08474  1.0000
  C   C483      1.0  0.39767  0.93089  0.00452  1.0000
  C   C484      1.0  0.47795  0.89836  0.16192  1.0000
  H   H850      1.0  0.46078  0.98808  0.12373  1.0000
  H   H851      1.0  0.36092  0.53809  0.00070  1.0000
  H   H852      1.0  0.37805  0.88042  0.99138  1.0000
  H   H853      1.0  0.46311  0.94401  0.17245  1.0000
  H   H854      1.0  0.49055  0.71721  0.06887  1.0000
  H   H855      1.0  0.39632  0.96759  0.23583  1.0000
  C   C485      1.0  0.99855  0.50202  0.11670  1.0000
  C   C486      1.0  0.48806  0.89763  0.14122  1.0000
  C   C487      1.0  0.48838  0.72462  0.05198  1.0000
  H   H856      1.0  0.27569  0.53973  0.99425  1.0000
  H   H857      1.0  0.49204  0.98473  0.08338  1.0000
  H   H858      1.0  0.49284  0.84109  0.14043  1.0000
  H   H859      1.0  0.49291  0.95972  0.03413  1.0000
  H   H860      1.0  0.49337  0.85828  0.02629  1.0000
  Fe  Fe54      1.0  0.49344  0.89040  0.04530  1.0000
  H   H861      1.0  0.12067  0.51402  0.98986  1.0000
  S   S104      1.0  0.18015  0.56795  0.99022  1.0000
  H   H862      1.0  0.36313  0.63906  0.99072  1.0000
  Fe  Fe55      1.0  0.37494  0.79313  0.98972  1.0000
  H   H863      1.0  0.49327  0.81498  0.13546  1.0000
  H   H864      1.0  0.36005  0.71208  0.98960  1.0000
  H   H865      1.0  0.26035  0.93853  0.28777  1.0000
  C   C488      1.0  0.44348  0.97473  0.46406  1.0000
  H   H866      1.0  0.03197  0.79231  0.47485  1.0000
  H   H867      1.0  0.02005  0.52905  0.41160  1.0000
  H   H868      1.0  0.04674  0.53703  0.40536  1.0000
  Fe  Fe56      1.0  0.38287  0.97286  0.36089  1.0000
  S   S105      1.0  0.37872  0.94107  0.35401  1.0000
  S   S106      1.0  0.39427  0.98354  0.43194  1.0000
  C   C489      1.0  0.08542  0.98681  0.35264  1.0000
  N   N28       1.0  0.07568  0.97547  0.37437  1.0000
  C   C490      1.0  0.08418  0.82677  0.37310  1.0000
  H   H869      1.0  0.45826  0.98403  0.31528  1.0000
  H   H870      1.0  0.46032  0.98504  0.36055  1.0000
  H   H871      1.0  0.30320  0.91338  0.29772  1.0000
  Fe  Fe57      1.0  0.20289  0.95399  0.37539  1.0000
  H   H872      1.0  0.02480  0.94266  0.37130  1.0000
  S   S107      1.0  0.19724  0.92032  0.39351  1.0000
  H   H873      1.0  0.00247  0.60209  0.42782  1.0000
  C   C491      1.0  0.15851  0.84798  0.47460  1.0000
  H   H874      1.0  0.23034  0.96601  0.42134  1.0000
  H   H875      1.0  0.33784  0.94824  0.47507  1.0000
  C   C492      1.0  0.15927  0.76448  0.31762  1.0000
  C   C493      1.0  0.20773  0.90326  0.44993  1.0000
  S   S108      1.0  0.06431  0.69378  0.42829  1.0000
  H   H876      1.0  0.19888  0.89468  0.44219  1.0000
  H   H877      1.0  0.35779  0.91975  0.30147  1.0000
  S   S109      1.0  0.08160  0.75290  0.42528  1.0000
  Fe  Fe58      1.0  0.08467  0.89644  0.42387  1.0000
  S   S110      1.0  0.10213  0.90405  0.39062  1.0000
  H   H878      1.0  0.36322  0.99200  0.29838  1.0000
  S   S111      1.0  0.04918  0.89350  0.42877  1.0000
  H   H879      1.0  0.16602  0.74949  0.40491  1.0000
  Fe  Fe59      1.0  0.05770  0.86620  0.45651  1.0000
  S   S112      1.0  0.43075  0.90268  0.27650  1.0000
  H   H880      1.0  0.37173  0.98228  0.24733  1.0000
  C   C494      1.0  0.08948  0.99149  0.46190  1.0000
  H   H881      1.0  0.05083  0.58727  0.36449  1.0000
  H   H882      1.0  0.09381  0.97439  0.34330  1.0000
  C   C495      1.0  0.06223  0.99239  0.38584  1.0000
  C   C496      1.0  0.32304  0.92745  0.32833  1.0000
  C   C497      1.0  0.10387  0.80951  0.36897  1.0000
  H   H883      1.0  0.00944  0.67345  0.38343  1.0000
  C   C498      1.0  0.00185  0.66871  0.35383  1.0000
  C   C499      1.0  0.07150  0.77551  0.43732  1.0000
  C   C500      1.0  0.08136  0.79449  0.43083  1.0000
  C   C501      1.0  0.07270  0.81306  0.43940  1.0000
  C   C502      1.0  0.05445  0.81251  0.45493  1.0000
  C   C503      1.0  0.04539  0.79317  0.46218  1.0000
  C   C504      1.0  0.05371  0.77486  0.45331  1.0000
  H   H884      1.0  0.09546  0.79506  0.41891  1.0000
  H   H885      1.0  0.08000  0.82782  0.43387  1.0000
  S   S113      1.0  0.05482  0.68247  0.37397  1.0000
  C   C505      1.0  0.27162  0.98775  0.43953  1.0000
  C   C506      1.0  0.15224  0.74032  0.41188  1.0000
  C   C507      1.0  0.17120  0.91525  0.39208  1.0000
  C   C508      1.0  0.16051  0.90199  0.40952  1.0000
  C   C509      1.0  0.13928  0.89855  0.40918  1.0000
  C   C510      1.0  0.12908  0.90749  0.39090  1.0000
  C   C511      1.0  0.14017  0.91998  0.37303  1.0000
  C   C512      1.0  0.16099  0.92436  0.37382  1.0000
  H   H886      1.0  0.16856  0.89468  0.42341  1.0000
  H   H887      1.0  0.13092  0.88878  0.42297  1.0000
  H   H888      1.0  0.13246  0.92677  0.35877  1.0000
  H   H889      1.0  0.16927  0.93450  0.36022  1.0000
  H   H890      1.0  0.11708  0.73401  0.36755  1.0000
  C   C513      1.0  0.30231  0.93061  0.29907  1.0000
  C   C514      1.0  0.00915  0.80534  0.42032  1.0000
  C   C515      1.0  0.44815  0.90462  0.34521  1.0000
  S   S114      1.0  0.02689  0.72950  0.44813  1.0000
  Fe  Fe60      1.0  0.04597  0.91572  0.45121  1.0000
  C   C516      1.0  0.33378  0.97116  0.44456  1.0000
  H   H891      1.0  0.09967  0.71765  0.34495  1.0000
  H   H892      1.0  0.49183  0.88395  0.33165  1.0000
  H   H893      1.0  0.16724  0.77859  0.31764  1.0000
  C   C517      1.0  0.00307  0.61195  0.41116  1.0000
  N   N29       1.0  0.02431  0.60481  0.39801  1.0000
  H   H894      1.0  0.03075  0.53867  0.43091  1.0000
  H   H895      1.0  0.07242  0.73012  0.33963  1.0000
  C   C518      1.0  0.16627  0.94090  0.46742  1.0000
  C   C519      1.0  0.39161  0.93238  0.33083  1.0000
  C   C520      1.0  0.40275  0.94589  0.31384  1.0000
  C   C521      1.0  0.41448  0.93729  0.29654  1.0000
  C   C522      1.0  0.41476  0.91531  0.29624  1.0000
  C   C523      1.0  0.39099  0.91088  0.32981  1.0000
  H   H896      1.0  0.40265  0.96274  0.31429  1.0000
  H   H897      1.0  0.42368  0.94743  0.28374  1.0000
  H   H898      1.0  0.38212  0.90049  0.34273  1.0000
  H   H899      1.0  0.30985  0.93854  0.33588  1.0000
  S   S115      1.0  0.05137  0.88833  0.47970  1.0000
  N   N30       1.0  0.17792  0.89985  0.48334  1.0000
  H   H900      1.0  0.34039  0.98614  0.43541  1.0000
  H   H901      1.0  0.11083  0.93454  0.48486  1.0000
  H   H902      1.0  0.05115  0.60273  0.32586  1.0000
  H   H903      1.0  0.07500  0.82138  0.38899  1.0000
  H   H904      1.0  0.01445  0.62645  0.36920  1.0000
  H   H905      1.0  0.07277  0.94649  0.36395  1.0000
  H   H906      1.0  0.15925  0.97329  0.44772  1.0000
  C   C524      1.0  0.30559  0.98782  0.34109  1.0000
  H   H907      1.0  0.04087  0.81600  0.41142  1.0000
  H   H908      1.0  0.06011  0.68105  0.33053  1.0000
  C   C525      1.0  0.32622  0.95793  0.29761  1.0000
  C   C526      1.0  0.34766  0.92509  0.27021  1.0000
  C   C527      1.0  0.34732  0.96395  0.30236  1.0000
  C   C528      1.0  0.36906  0.91160  0.26276  1.0000
  C   C529      1.0  0.34801  0.98843  0.29453  1.0000
  H   H909      1.0  0.31198  0.96793  0.30509  1.0000
  H   H910      1.0  0.32572  0.96418  0.28031  1.0000
  H   H911      1.0  0.34928  0.94254  0.26370  1.0000
  H   H912      1.0  0.33458  0.92092  0.26322  1.0000
  H   H913      1.0  0.34842  0.96013  0.31963  1.0000
  H   H914      1.0  0.36198  0.95513  0.29430  1.0000
  H   H915      1.0  0.28826  0.96290  0.28160  1.0000
  H   H916      1.0  0.37185  0.91503  0.24510  1.0000
  H   H917      1.0  0.38295  0.91601  0.26836  1.0000
  H   H918      1.0  0.36868  0.89379  0.26883  1.0000
  Fe  Fe61      1.0  0.38680  0.99301  0.39804  1.0000
  H   H919      1.0  0.13222  0.94712  0.40583  1.0000
  H   H920      1.0  0.23579  0.90158  0.42581  1.0000
  H   H921      1.0  0.03502  0.96144  0.39679  1.0000
  H   H922      1.0  0.44060  0.98926  0.42046  1.0000
  H   H923      1.0  0.03639  0.67373  0.30756  1.0000
  C   C530      1.0  0.03633  0.67813  0.35844  1.0000
  H   H924      1.0  0.30145  0.91094  0.36863  1.0000
  H   H925      1.0  0.00437  0.76947  0.48669  1.0000
  C   C531      1.0  0.01968  0.56414  0.40423  1.0000
  H   H926      1.0  0.43211  0.94814  0.33941  1.0000
  C   C532      1.0  0.42849  0.87322  0.36602  1.0000
  C   C533      1.0  0.13802  0.74099  0.39491  1.0000
  H   H927      1.0  0.13891  0.95608  0.44996  1.0000
  H   H928      1.0  0.07317  0.82986  0.36075  1.0000
  S   S116      1.0  0.02127  0.94641  0.45124  1.0000
  H   H929      1.0  0.26537  0.97203  0.44185  1.0000
  C   C534      1.0  0.21448  0.96521  0.47366  1.0000
  H   H930      1.0  0.26727  0.95018  0.25995  1.0000
  H   H931      1.0  0.33360  0.89175  0.33440  1.0000
  H   H932      1.0  0.42067  0.87273  0.35219  1.0000
  H   H933      1.0  0.43635  0.97716  0.48020  1.0000
  C   C535      1.0  0.16662  0.87010  0.46788  1.0000
  H   H934      1.0  0.23660  0.87846  0.44814  1.0000
  H   H935      1.0  0.31308  0.97188  0.33872  1.0000
  C   C536      1.0  0.30048  0.96832  0.41786  1.0000
  H   H936      1.0  0.05312  0.61607  0.35741  1.0000
  H   H937      1.0  0.39345  0.96916  0.26327  1.0000
  H   H938      1.0  0.03750  0.79444  0.39944  1.0000
  H   H939      1.0  0.04598  0.91978  0.37907  1.0000
  H   H940      1.0  0.14625  0.91538  0.47459  1.0000
  C   C537      1.0  0.03302  0.58114  0.40673  1.0000
  C   C538      1.0  0.22303  0.97192  0.43535  1.0000
  S   S117      1.0  0.41126  0.97907  0.37378  1.0000
  H   H941      1.0  0.14239  0.74751  0.42502  1.0000
  H   H942      1.0  0.05699  0.96885  0.41722  1.0000
  H   H943      1.0  0.09767  0.75751  0.33459  1.0000
  H   H944      1.0  0.11737  0.77040  0.39925  1.0000
  C   C539      1.0  0.31928  0.90362  0.33890  1.0000
  H   H945      1.0  0.30584  0.94663  0.26471  1.0000
  H   H946      1.0  0.48766  0.91789  0.28932  1.0000
  C   C540      1.0  0.00933  0.64920  0.48031  1.0000
  H   H947      1.0  0.48684  0.89739  0.36177  1.0000
  H   H948      1.0  0.30332  0.96040  0.45947  1.0000
  H   H949      1.0  0.02571  0.59323  0.33752  1.0000
  C   C541      1.0  0.44408  0.97540  0.31769  1.0000
  H   H950      1.0  0.23138  0.94078  0.45661  1.0000
  H   H951      1.0  0.07412  0.76128  0.35405  1.0000
  N   N31       1.0  0.32373  0.93401  0.30440  1.0000
  C   C542      1.0  0.05679  0.63612  0.42336  1.0000
  H   H952      1.0  0.34218  0.97581  0.47399  1.0000
  S   S118      1.0  0.08098  0.92087  0.44424  1.0000
  Fe  Fe62      1.0  0.08677  0.89161  0.47079  1.0000
  H   H953      1.0  0.43833  0.91467  0.35624  1.0000
  H   H954      1.0  0.47010  0.92229  0.36485  1.0000
  H   H955      1.0  0.17068  0.83523  0.48291  1.0000
  H   H956      1.0  0.31764  0.96709  0.41009  1.0000
  H   H957      1.0  0.30969  0.95205  0.38100  1.0000
  C   C543      1.0  0.29347  0.94599  0.27894  1.0000
  H   H958      1.0  0.13789  0.78825  0.34642  1.0000
  C   C544      1.0  0.02130  0.60899  0.37484  1.0000
  H   H959      1.0  0.20965  0.90990  0.48000  1.0000
  C   C545      1.0  0.26286  0.97762  0.48075  1.0000
  Fe  Fe63      1.0  0.23459  0.98177  0.34503  1.0000
  C   C546      1.0  0.34272  0.91968  0.29476  1.0000
  H   H960      1.0  0.19743  0.99315  0.48572  1.0000
  H   H961      1.0  0.33851  0.92908  0.33334  1.0000
  H   H962      1.0  0.45849  0.87940  0.37284  1.0000
  H   H963      1.0  0.05711  0.93905  0.40294  1.0000
  H   H964      1.0  0.11905  0.78168  0.33287  1.0000
  H   H965      1.0  0.14815  0.73292  0.38261  1.0000
  H   H966      1.0  0.10341  0.94990  0.37697  1.0000
  H   H967      1.0  0.04612  0.65207  0.41879  1.0000
  H   H968      1.0  0.06041  0.63451  0.43978  1.0000
  H   H969      1.0  0.20361  0.92107  0.44317  1.0000
  H   H970      1.0  0.03533  0.63606  0.39228  1.0000
  C   C547      1.0  0.45071  0.88069  0.35849  1.0000
  H   H971      1.0  0.46742  0.97999  0.42655  1.0000
  S   S119      1.0  0.18019  0.98318  0.38372  1.0000
  H   H972      1.0  0.14803  0.76948  0.30530  1.0000
  H   H973      1.0  0.04659  0.76010  0.45921  1.0000
  H   H974      1.0  0.15896  0.72306  0.41865  1.0000
  H   H975      1.0  0.07814  0.71995  0.36667  1.0000
  C   C548      1.0  0.40248  0.90240  0.31262  1.0000
  H   H976      1.0  0.05097  0.96804  0.35881  1.0000
  H   H977      1.0  0.02325  0.92700  0.39823  1.0000
  C   C549      1.0  0.04534  0.61728  0.42267  1.0000
  H   H978      1.0  0.99811  0.75564  0.34250  1.0000
  C   C550      1.0  0.03040  0.67354  0.32411  1.0000
  H   H979      1.0  0.05608  0.60166  0.42834  1.0000
  H   H980      1.0  0.11165  0.96054  0.42327  1.0000
  H   H981      1.0  0.07230  0.63609  0.41238  1.0000
  S   S120      1.0  0.02501  0.66945  0.47993  1.0000
  H   H982      1.0  0.01873  0.56505  0.38725  1.0000
  C   C551      1.0  0.09418  0.96212  0.38601  1.0000
  C   C552      1.0  0.06204  0.95986  0.37080  1.0000
  H   H983      1.0  0.18364  0.94250  0.46598  1.0000
  H   H984      1.0  0.11447  0.80747  0.38145  1.0000
  Fe  Fe64      1.0  0.45375  0.92002  0.25051  1.0000
  H   H985      1.0  0.09434  0.74467  0.38372  1.0000
  H   H986      1.0  0.43785  0.90566  0.33266  1.0000
  H   H987      1.0  0.45443  0.93427  0.30836  1.0000
  H   H988      1.0  0.18200  0.86785  0.45712  1.0000
  C   C553      1.0  0.11118  0.97517  0.38949  1.0000
  H   H989      1.0  0.02453  0.82216  0.38985  1.0000
  H   H990      1.0  0.01964  0.73593  0.35435  1.0000
  H   H991      1.0  0.08691  0.79125  0.35534  1.0000
  C   C554      1.0  0.04730  0.94893  0.39034  1.0000
  H   H992      1.0  0.15401  0.88179  0.45920  1.0000
  H   H993      1.0  0.13512  0.97318  0.41019  1.0000
  C   C555      1.0  0.22371  0.95761  0.45534  1.0000
  S   S121      1.0  0.01284  0.69756  0.42156  1.0000
  H   H994      1.0  0.13985  0.74206  0.33863  1.0000
  H   H995      1.0  0.31405  0.88280  0.37044  1.0000
  C   C556      1.0  0.00382  0.64629  0.46150  1.0000
  C   C557      1.0  0.00951  0.66871  0.33237  1.0000
  H   H996      1.0  0.00627  0.55470  0.27018  1.0000
  H   H997      1.0  0.00306  0.56675  0.41285  1.0000
  C   C558      1.0  0.01522  0.67362  0.36686  1.0000
  S   S122      1.0  0.35888  0.98355  0.38727  1.0000
  S   S123      1.0  0.04175  0.83574  0.46502  1.0000
  C   C559      1.0  0.15666  0.95638  0.44837  1.0000
  H   H998      1.0  0.24194  0.90451  0.45083  1.0000
  S   S124      1.0  0.20643  0.96726  0.34006  1.0000
  Fe  Fe65      1.0  0.03173  0.69351  0.44870  1.0000
  H   H999      1.0  0.14103  0.77515  0.38131  1.0000
  Fe  Fe66      1.0  0.04464  0.70013  0.40102  1.0000
  C   C560      1.0  0.38966  0.97833  0.24723  1.0000
  C   C561      1.0  0.44824  0.95305  0.33289  1.0000
  H   H1000     1.0  0.08513  0.78306  0.38351  1.0000
  H   H1001     1.0  0.39490  0.97878  0.47652  1.0000
  Fe  Fe67      1.0  0.01099  0.73340  0.41910  1.0000
  C   C562      1.0  0.06131  0.97028  0.48660  1.0000
  H   H1002     1.0  0.28885  0.93807  0.39875  1.0000
  H   H1003     1.0  0.05681  0.61383  0.39076  1.0000
  H   H1004     1.0  0.08803  0.95210  0.40149  1.0000
  H   H1005     1.0  0.12495  0.73109  0.40277  1.0000
  H   H1006     1.0  0.05012  0.57686  0.39952  1.0000
  H   H1007     1.0  0.43056  0.85650  0.37634  1.0000
  H   H1008     1.0  0.16624  0.91387  0.45270  1.0000
  C   C563      1.0  0.30871  0.97602  0.45006  1.0000
  S   S125      1.0  0.46456  0.95146  0.25061  1.0000
  C   C564      1.0  0.29222  0.95374  0.38782  1.0000
  H   H1009     1.0  0.03395  0.57837  0.42407  1.0000
  H   H1010     1.0  0.28892  0.93308  0.31226  1.0000
  Fe  Fe68      1.0  0.05763  0.73041  0.42542  1.0000
  H   H1011     1.0  0.28225  0.95710  0.37460  1.0000
  H   H1012     1.0  0.03030  0.61796  0.43418  1.0000
  C   C565      1.0  0.27353  0.93862  0.27410  1.0000
  S   S126      1.0  0.04124  0.73671  0.39610  1.0000
  H   H1013     1.0  0.15902  0.75119  0.35097  1.0000
  C   C566      1.0  0.03609  0.60566  0.33701  1.0000
  C   C567      1.0  0.46291  0.93579  0.32140  1.0000
  C   C568      1.0  0.34460  0.96275  0.46488  1.0000
  C   C569      1.0  0.02924  0.80985  0.40424  1.0000
  H   H1014     1.0  0.46065  0.86906  0.34915  1.0000
  H   H1015     1.0  0.42979  0.98567  0.32467  1.0000
  H   H1016     1.0  0.08975  0.84239  0.37278  1.0000
  H   H1017     1.0  0.11290  0.81621  0.35335  1.0000
  S   S127      1.0  0.09360  0.86723  0.44976  1.0000
  H   H1018     1.0  0.07349  0.98862  0.41681  1.0000
  H   H1019     1.0  0.34009  0.90230  0.29929  1.0000
  C   C570      1.0  0.16366  0.91683  0.46903  1.0000
  C   C571      1.0  0.04382  0.67780  0.33712  1.0000
  H   H1020     1.0  0.33860  0.95827  0.43520  1.0000
  H   H1021     1.0  0.29859  0.95174  0.42792  1.0000
  C   C572      1.0  0.08475  0.72823  0.35050  1.0000
  H   H1022     1.0  0.44065  0.97379  0.30208  1.0000
  S   S128      1.0  0.23296  0.96544  0.37943  1.0000
  H   H1023     1.0  0.33065  0.90347  0.36868  1.0000
  C   C573      1.0  0.04199  0.60400  0.35914  1.0000
  H   H1024     1.0  0.14282  0.84917  0.48529  1.0000
  H   H1025     1.0  0.17210  0.75110  0.31339  1.0000
  H   H1026     1.0  0.40243  0.88550  0.31235  1.0000
  H   H1027     1.0  0.30459  0.89973  0.33428  1.0000
  C   C574      1.0  0.99858  0.82588  0.42914  1.0000
  H   H1028     1.0  0.99879  0.61606  0.25341  1.0000
  H   H1029     1.0  0.36236  0.95777  0.46075  1.0000
  C   C575      1.0  0.31619  0.90006  0.36315  1.0000
  C   C576      1.0  0.00242  0.74378  0.35728  1.0000
  H   H1030     1.0  0.10358  0.99151  0.39223  1.0000
  H   H1031     1.0  0.05983  0.96144  0.47426  1.0000
  H   H1032     1.0  0.02722  0.62223  0.33082  1.0000
  C   C577      1.0  0.04069  0.61857  0.39974  1.0000
  H   H1033     1.0  0.41761  0.88447  0.37528  1.0000
  C   C578      1.0  0.00986  0.53653  0.27487  1.0000
  N   N32       1.0  0.11492  0.76861  0.36694  1.0000
  C   C579      1.0  0.10459  0.74876  0.36807  1.0000
  C   C580      1.0  0.12783  0.76487  0.38547  1.0000
  C   C581      1.0  0.09670  0.78754  0.36879  1.0000
  C   C582      1.0  0.12915  0.77477  0.34608  1.0000
  C   C583      1.0  0.14692  0.75639  0.33954  1.0000
  C   C584      1.0  0.08987  0.75066  0.35073  1.0000
  H   H1034     1.0  0.09067  0.98086  0.45049  1.0000
  H   H1035     1.0  0.15575  0.84292  0.46030  1.0000
  H   H1036     1.0  0.45583  0.95515  0.34619  1.0000
  C   C585      1.0  0.23205  0.89652  0.44338  1.0000
  H   H1037     1.0  0.21079  0.88183  0.48108  1.0000
  H   H1038     1.0  0.45928  0.96358  0.46519  1.0000
  H   H1039     1.0  0.00949  0.65619  0.44645  1.0000
  C   C586      1.0  0.20187  0.89830  0.47453  1.0000
  H   H1040     1.0  0.16487  0.95168  0.43333  1.0000
  H   H1041     1.0  0.00192  0.62929  0.41241  1.0000
  C   C587      1.0  0.03461  0.93368  0.38425  1.0000
  H   H1042     1.0  0.27783  0.92199  0.27069  1.0000
  H   H1043     1.0  0.01098  0.82928  0.43764  1.0000
  C   C588      1.0  0.12322  0.96318  0.40840  1.0000
  H   H1044     1.0  0.99676  0.84019  0.41550  1.0000
  H   H1045     1.0  0.99726  0.86109  0.44853  1.0000
  H   H1046     1.0  0.47801  0.97633  0.39366  1.0000
  H   H1047     1.0  0.01629  0.52978  0.26051  1.0000
  H   H1048     1.0  0.00909  0.59961  0.37254  1.0000
  C   C589      1.0  0.48203  0.89789  0.32168  1.0000
  C   C590      1.0  0.06691  0.99320  0.47489  1.0000
  H   H1049     1.0  0.30563  0.98716  0.46120  1.0000
  N   N33       1.0  0.29576  0.98506  0.43158  1.0000
  S   S129      1.0  0.26917  0.97970  0.32856  1.0000
  C   C591      1.0  0.05906  0.98611  0.41061  1.0000
  N   N34       1.0  0.46904  0.91340  0.33518  1.0000
  C   C592      1.0  0.99876  0.63356  0.24547  1.0000
  H   H1050     1.0  0.15771  0.94643  0.48195  1.0000
  H   H1051     1.0  0.02257  0.53198  0.28573  1.0000
  C   C593      1.0  0.28634  0.97250  0.39956  1.0000
  H   H1052     1.0  0.47084  0.89038  0.31506  1.0000
  H   H1053     1.0  0.43212  0.96693  0.45813  1.0000
  H   H1054     1.0  0.47752  0.94302  0.31318  1.0000
  S   S130      1.0  0.48759  0.90268  0.24216  1.0000
  H   H1055     1.0  0.26871  0.97371  0.40552  1.0000
  C   C594      1.0  0.03004  0.54082  0.41364  1.0000
  H   H1056     1.0  0.12356  0.97757  0.37516  1.0000
  H   H1057     1.0  0.99850  0.91482  0.44125  1.0000
  C   C595      1.0  0.47697  0.98841  0.36037  1.0000
  H   H1058     1.0  0.02236  0.97652  0.47640  1.0000
  H   H1059     1.0  0.01544  0.63738  0.24420  1.0000
  C   C596      1.0  0.99732  0.94918  0.43971  1.0000
  H   H1060     1.0  0.99786  0.79994  0.41211  1.0000
  H   H1061     1.0  0.25805  0.96281  0.47797  1.0000
  H   H1062     1.0  0.10229  0.98471  0.47256  1.0000
  H   H1063     1.0  0.28902  0.98786  0.38785  1.0000
  H   H1064     1.0  0.01467  0.79175  0.43338  1.0000
  H   H1065     1.0  0.48877  0.97417  0.35664  1.0000
  C   C597      1.0  0.47977  0.99193  0.38196  1.0000
  C   C598      1.0  0.20475  0.98707  0.47189  1.0000
  H   H1066     1.0  0.99709  0.80896  0.46890  1.0000
  H   H1067     1.0  0.27874  0.97282  0.48698  1.0000
  C   C599      1.0  0.17034  0.87790  0.48743  1.0000
  H   H1068     1.0  0.00097  0.75270  0.37018  1.0000
  H   H1069     1.0  0.01186  0.99184  0.36999  1.0000
  C   C600      1.0  0.48121  0.91424  0.35288  1.0000
  N   N35       1.0  0.46559  0.97193  0.53298  1.0000
  C   C601      1.0  0.26097  0.96920  0.56901  1.0000
  C   C602      1.0  0.06308  0.97494  0.53133  1.0000
  C   C603      1.0  0.45912  0.93144  0.54459  1.0000
  H   H1070     1.0  0.30952  0.98598  0.53317  1.0000
  H   H1071     1.0  0.18129  0.92178  0.50290  1.0000
  S   S131      1.0  0.11819  0.95097  0.55312  1.0000
  H   H1072     1.0  0.02807  0.94151  0.50102  1.0000
  H   H1073     1.0  0.44047  0.91669  0.52816  1.0000
  N   N36       1.0  0.00326  0.52334  0.69826  1.0000
  S   S132      1.0  0.18014  0.95358  0.55448  1.0000
  H   H1074     1.0  0.29318  0.89428  0.64685  1.0000
  H   H1075     1.0  0.26973  0.95669  0.56080  1.0000
  C   C604      1.0  0.17479  0.90633  0.50455  1.0000
  Fe  Fe69      1.0  0.45636  0.93846  0.67292  1.0000
  H   H1076     1.0  0.44464  0.93571  0.63193  1.0000
  H   H1077     1.0  0.22954  0.96646  0.56173  1.0000
  H   H1078     1.0  0.31587  0.97998  0.50714  1.0000
  C   C605      1.0  0.37620  0.90709  0.64990  1.0000
  H   H1079     1.0  0.43719  0.94511  0.59440  1.0000
  H   H1080     1.0  0.44862  0.97637  0.56366  1.0000
  H   H1081     1.0  0.38832  0.93245  0.58715  1.0000
  C   C606      1.0  0.18559  0.88929  0.52262  1.0000
  H   H1082     1.0  0.36518  0.94753  0.57398  1.0000
  S   S133      1.0  0.48400  0.94869  0.64825  1.0000
  H   H1083     1.0  0.34192  0.92124  0.59869  1.0000
  H   H1084     1.0  0.30842  0.89491  0.62059  1.0000
  C   C607      1.0  0.11187  0.92821  0.50165  1.0000
  H   H1085     1.0  0.31737  0.94914  0.66271  1.0000
  H   H1086     1.0  0.47496  0.92478  0.53645  1.0000
  H   H1087     1.0  0.38792  0.98084  0.64787  1.0000
  S   S134      1.0  0.42114  0.95097  0.66907  1.0000
  C   C608      1.0  0.27237  0.97983  0.57903  1.0000
  N   N37       1.0  0.34157  0.93501  0.63993  1.0000
  C   C609      1.0  0.49178  0.95949  0.50147  1.0000
  H   H1088     1.0  0.38273  0.89445  0.68282  1.0000
  H   H1089     1.0  0.02527  0.50776  0.67514  1.0000
  S   S135      1.0  0.15907  0.97906  0.51010  1.0000
  C   C610      1.0  0.41661  0.95753  0.64239  1.0000
  H   H1090     1.0  0.07581  0.96111  0.49409  1.0000
  C   C611      1.0  0.44269  0.91661  0.54467  1.0000
  C   C612      1.0  0.35696  0.92424  0.60348  1.0000
  Fe  Fe70      1.0  0.14714  0.96887  0.54454  1.0000
  H   H1091     1.0  0.39474  0.96953  0.70959  1.0000
  H   H1092     1.0  0.25068  0.98336  0.49341  1.0000
  C   C613      1.0  0.47717  0.99219  0.55826  1.0000
  H   H1093     1.0  0.06510  0.92539  0.49961  1.0000
  H   H1094     1.0  0.06898  0.93302  0.52314  1.0000
  C   C614      1.0  0.30650  0.92447  0.63238  1.0000
  H   H1095     1.0  0.00880  0.55633  0.69615  1.0000
  H   H1096     1.0  0.37456  0.91922  0.57307  1.0000
  H   H1097     1.0  0.34712  0.96794  0.66352  1.0000
  H   H1098     1.0  0.35195  0.92339  0.67116  1.0000
  S   S136      1.0  0.30065  0.97172  0.57921  1.0000
  C   C615      1.0  0.30247  0.98563  0.51888  1.0000
  C   C616      1.0  0.11633  0.93388  0.53618  1.0000
  C   C617      1.0  0.11454  0.91192  0.54511  1.0000
  H   H1099     1.0  0.48393  0.97728  0.59071  1.0000
  H   H1100     1.0  0.30948  0.93470  0.61614  1.0000
  H   H1101     1.0  0.06427  0.95784  0.54059  1.0000
  H   H1102     1.0  0.30986  0.99021  0.66526  1.0000
  H   H1103     1.0  0.11528  0.90556  0.56195  1.0000
  H   H1104     1.0  0.42671  0.92213  0.55346  1.0000
  S   S137      1.0  0.48764  0.88527  0.73578  1.0000
  H   H1105     1.0  0.20291  0.88354  0.51724  1.0000
  H   H1106     1.0  0.15710  0.90992  0.51039  1.0000
  H   H1107     1.0  0.42932  0.96557  0.73020  1.0000
  C   C618      1.0  0.40837  0.96844  0.59986  1.0000
  C   C619      1.0  0.37218  0.93138  0.58318  1.0000
  H   H1108     1.0  0.38635  0.91164  0.63435  1.0000
  C   C620      1.0  0.39600  0.96302  0.72675  1.0000
  C   C621      1.0  0.05022  0.90713  0.52886  1.0000
  S   S138      1.0  0.40331  0.97527  0.57321  1.0000
  C   C622      1.0  0.42645  0.95299  0.60600  1.0000
  H   H1109     1.0  0.31492  0.96216  0.63565  1.0000
  H   H1110     1.0  0.40066  0.91305  0.66688  1.0000
  H   H1111     1.0  0.11148  0.88087  0.53939  1.0000
  C   C623      1.0  0.39854  0.97284  0.63627  1.0000
  H   H1112     1.0  0.02840  0.97891  0.53295  1.0000
  C   C624      1.0  0.45119  0.95543  0.53336  1.0000
  H   H1113     1.0  0.19480  0.91246  0.53773  1.0000
  C   C625      1.0  0.04228  0.98154  0.52013  1.0000
  H   H1114     1.0  0.11648  0.95904  0.50736  1.0000
  H   H1115     1.0  0.47368  0.95840  0.56497  1.0000
  C   C626      1.0  0.35933  0.92711  0.65417  1.0000
  H   H1116     1.0  0.16772  0.90570  0.54750  1.0000
  H   H1117     1.0  0.33693  0.90267  0.63784  1.0000
  H   H1118     1.0  0.05030  0.55037  0.73232  1.0000
  H   H1119     1.0  0.45553  0.99133  0.50321  1.0000
  H   H1120     1.0  0.29078  0.97375  0.52347  1.0000
  N   N38       1.0  0.04111  0.97011  0.50271  1.0000
  C   C627      1.0  0.18477  0.89909  0.54191  1.0000
  H   H1121     1.0  0.44759  0.99217  0.69746  1.0000
  C   C628      1.0  0.11221  0.89799  0.53235  1.0000
  H   H1122     1.0  0.03594  0.56946  0.71213  1.0000
  H   H1123     1.0  0.44870  0.89955  0.55274  1.0000
  H   H1124     1.0  0.07774  0.98448  0.55472  1.0000
  H   H1125     1.0  0.36934  0.94015  0.65263  1.0000
  H   H1126     1.0  0.03151  0.53939  0.68527  1.0000
  C   C629      1.0  0.11520  0.94202  0.51433  1.0000
  H   H1127     1.0  0.42967  0.97544  0.69420  1.0000
  C   C630      1.0  0.46556  0.97391  0.55551  1.0000
  C   C631      1.0  0.33867  0.97308  0.64908  1.0000
  H   H1128     1.0  0.17681  0.87497  0.52799  1.0000
  C   C632      1.0  0.39176  0.89963  0.66677  1.0000
  H   H1129     1.0  0.40396  0.88554  0.66316  1.0000
  H   H1130     1.0  0.36830  0.89294  0.65008  1.0000
  H   H1131     1.0  0.04387  0.90896  0.54535  1.0000
  S   S139      1.0  0.46789  0.90241  0.67749  1.0000
  H   H1132     1.0  0.41837  0.93419  0.72022  1.0000
  H   H1133     1.0  0.19143  0.88630  0.55509  1.0000
  C   C633      1.0  0.01801  0.53933  0.69870  1.0000
  H   H1134     1.0  0.28154  0.91054  0.62352  1.0000
  H   H1135     1.0  0.00332  0.56136  0.66131  1.0000
  H   H1136     1.0  0.35084  0.97727  0.63506  1.0000
  H   H1137     1.0  0.36597  0.94953  0.61604  1.0000
  C   C634      1.0  0.29690  0.90475  0.63081  1.0000
  C   C635      1.0  0.02801  0.53638  0.71959  1.0000
  H   H1138     1.0  0.29395  0.93435  0.64179  1.0000
  C   C636      1.0  0.32763  0.91736  0.64322  1.0000
  C   C637      1.0  0.39463  0.97847  0.61501  1.0000
  S   S140      1.0  0.47190  0.94252  0.69995  1.0000
  H   H1139     1.0  0.15465  0.87803  0.49827  1.0000
  H   H1140     1.0  0.32253  0.91133  0.66053  1.0000
  H   H1141     1.0  0.48634  0.96910  0.72593  1.0000
  C   C638      1.0  0.35117  0.94207  0.61695  1.0000
  Fe  Fe71      1.0  0.48541  0.90695  0.70292  1.0000
  Fe  Fe72      1.0  0.19210  0.96644  0.52028  1.0000
  H   H1142     1.0  0.00635  0.63800  0.51439  1.0000
  H   H1143     1.0  0.04851  0.98690  0.55993  1.0000
  C   C639      1.0  0.43068  0.94766  0.62723  1.0000
  H   H1144     1.0  0.38143  0.99121  0.61028  1.0000
  C   C640      1.0  0.32706  0.95449  0.64696  1.0000
  H   H1145     1.0  0.36495  0.90838  0.61213  1.0000
  H   H1146     1.0  0.03757  0.90208  0.52199  1.0000
  C   C641      1.0  0.41241  0.97346  0.73482  1.0000
  H   H1147     1.0  0.33974  0.95534  0.60809  1.0000
  C   C642      1.0  0.40265  0.93821  0.73015  1.0000
  H   H1148     1.0  0.02594  0.94581  0.52724  1.0000
  H   H1149     1.0  0.46099  0.93024  0.56141  1.0000
  C   C643      1.0  0.03688  0.94681  0.51186  1.0000
  C   C644      1.0  0.06250  0.98921  0.54719  1.0000
  H   H1150     1.0  0.06464  0.89400  0.52949  1.0000
  H   H1151     1.0  0.05813  0.54888  0.70477  1.0000
  C   C645      1.0  0.01606  0.50321  0.69118  1.0000
  S   S141      1.0  0.35089  0.99013  0.54545  1.0000
  H   H1152     1.0  0.43472  0.96003  0.54170  1.0000
  C   C646      1.0  0.05691  0.92858  0.51526  1.0000
  H   H1153     1.0  0.01144  0.53581  0.65302  1.0000
  C   C647      1.0  0.99755  0.54635  0.66012  1.0000
  H   H1154     1.0  0.00666  0.63674  0.57396  1.0000
  C   C648      1.0  0.11054  0.90606  0.51068  1.0000
  H   H1155     1.0  0.00221  0.59884  0.73070  1.0000
  C   C649      1.0  0.04410  0.55227  0.71693  1.0000
  C   C650      1.0  0.00203  0.63592  0.49978  1.0000
  C   C651      1.0  0.23822  0.97468  0.56955  1.0000
  H   H1156     1.0  0.45101  0.91965  0.73890  1.0000
  H   H1157     1.0  0.44842  0.95554  0.51698  1.0000
  H   H1158     1.0  0.00819  0.51662  0.55813  1.0000
  H   H1159     1.0  0.99757  0.98701  0.51883  1.0000
  H   H1160     1.0  0.48598  0.97412  0.48948  1.0000
  Fe  Fe73      1.0  0.18248  0.98716  0.55845  1.0000
  H   H1161     1.0  0.07801  0.97701  0.51982  1.0000
  C   C652      1.0  0.22666  0.99011  0.58097  1.0000
  C   C653      1.0  0.02210  0.98246  0.49112  1.0000
  C   C654      1.0  0.48868  0.96474  0.52386  1.0000
  C   C655      1.0  0.43206  0.99258  0.69174  1.0000
  H   H1162     1.0  0.00020  0.50892  0.73228  1.0000
  H   H1163     1.0  0.04755  0.49739  0.70300  1.0000
  S   S142      1.0  0.21539  0.94778  0.49881  1.0000
  H   H1164     1.0  0.03655  0.51962  0.72503  1.0000
  H   H1165     1.0  0.99570  0.96392  0.50832  1.0000
  C   C656      1.0  0.99910  0.98102  0.50401  1.0000
  S   S143      1.0  0.10945  0.88716  0.49534  1.0000
  H   H1166     1.0  0.44736  0.99237  0.65940  1.0000
  C   C657      1.0  0.47526  0.99271  0.58174  1.0000
  H   H1167     1.0  0.39012  0.93101  0.72526  1.0000
  H   H1168     1.0  0.00484  0.49662  0.59514  1.0000
  H   H1169     1.0  0.48289  0.94608  0.50146  1.0000
  H   H1170     1.0  0.37952  0.96636  0.73564  1.0000
  H   H1171     1.0  0.01505  0.53988  0.73260  1.0000
  H   H1172     1.0  0.18205  0.86471  0.49597  1.0000
  Fe  Fe74      1.0  0.21709  0.52990  0.87152  1.0000
  S   S144      1.0  0.18200  0.52980  0.87039  1.0000
  C   C658      1.0  0.06533  0.51944  0.92205  1.0000
  Fe  Fe75      1.0  0.21339  0.57856  0.85467  1.0000
  S   S145      1.0  0.17787  0.58299  0.85153  1.0000
  S   S146      1.0  0.22981  0.60843  0.84680  1.0000
  Fe  Fe76      1.0  0.17547  0.56004  0.88328  1.0000
  S   S147      1.0  0.14561  0.56791  0.90580  1.0000
  Fe  Fe77      1.0  0.18627  0.55263  0.83866  1.0000
  S   S148      1.0  0.16751  0.54806  0.81403  1.0000
  S   S149      1.0  0.21036  0.55807  0.88783  1.0000
  S   S150      1.0  0.22246  0.55027  0.83828  1.0000
  H   H1173     1.0  0.39592  0.98080  0.91051  1.0000
  H   H1174     1.0  0.33076  0.56403  0.75293  1.0000
  H   H1175     1.0  0.26331  0.53731  0.80555  1.0000
  H   H1176     1.0  0.40599  0.95910  0.98059  1.0000
  C   C659      1.0  0.46111  0.92464  0.78691  1.0000
  H   H1177     1.0  0.41369  0.51404  0.92967  1.0000
  Fe  Fe78      1.0  0.02360  0.52726  0.82363  1.0000
  C   C660      1.0  0.31652  0.55529  0.75582  1.0000
  S   S151      1.0  0.01655  0.56034  0.80202  1.0000
  H   H1178     1.0  0.43144  0.72830  0.90401  1.0000
  H   H1179     1.0  0.11525  0.52517  0.87613  1.0000
  H   H1180     1.0  0.43800  0.94224  0.76578  1.0000
  H   H1181     1.0  0.44308  0.56068  0.87870  1.0000
  S   S152      1.0  0.03185  0.52884  0.85526  1.0000
  S   S153      1.0  0.34154  0.62306  0.95779  1.0000
  H   H1182     1.0  0.08149  0.53117  0.77504  1.0000
  C   C661      1.0  0.45212  0.73577  0.96533  1.0000
  H   H1183     1.0  0.48067  0.80253  0.95255  1.0000
  C   C662      1.0  0.22607  0.59974  0.96339  1.0000
  Fe  Fe79      1.0  0.38850  0.79397  0.94280  1.0000
  S   S154      1.0  0.38724  0.75826  0.94704  1.0000
  S   S155      1.0  0.39904  0.81314  0.90992  1.0000
  C   C663      1.0  0.00874  0.58113  0.76206  1.0000
  C   C664      1.0  0.27741  0.52610  0.81223  1.0000
  C   C665      1.0  0.44648  0.73364  0.89423  1.0000
  H   H1184     1.0  0.48873  0.98833  0.77807  1.0000
  C   C666      1.0  0.32983  0.52151  0.94573  1.0000
  C   C667      1.0  0.00418  0.56380  0.77907  1.0000
  S   S156      1.0  0.43077  0.72700  0.98412  1.0000
  H   H1185     1.0  0.41603  0.90099  0.95561  1.0000
  Fe  Fe80      1.0  0.32522  0.60834  0.90906  1.0000
  S   S157      1.0  0.32335  0.58573  0.94125  1.0000
  S   S158      1.0  0.31974  0.59700  0.88075  1.0000
  Fe  Fe81      1.0  0.34186  0.64269  0.92432  1.0000
  C   C668      1.0  0.26911  0.50527  0.82552  1.0000
  S   S159      1.0  0.35516  0.67436  0.91287  1.0000
  Fe  Fe82      1.0  0.35577  0.59442  0.94288  1.0000
  S   S160      1.0  0.38379  0.56889  0.95453  1.0000
  Fe  Fe83      1.0  0.30927  0.61617  0.95312  1.0000
  Fe  Fe84      1.0  0.01102  0.50274  0.86864  1.0000
  S   S161      1.0  0.35881  0.61461  0.90967  1.0000
  S   S162      1.0  0.30837  0.63834  0.92065  1.0000
  S   S163      1.0  0.43589  0.89844  0.91098  1.0000
  C   C669      1.0  0.33556  0.72612  0.95293  1.0000
  C   C670      1.0  0.32467  0.70790  0.95795  1.0000
  C   C671      1.0  0.33067  0.69156  0.94600  1.0000
  C   C672      1.0  0.34713  0.69383  0.92866  1.0000
  C   C673      1.0  0.35757  0.71222  0.92345  1.0000
  C   C674      1.0  0.35196  0.72810  0.93567  1.0000
  C   C675      1.0  0.46382  0.58009  0.90073  1.0000
  H   H1186     1.0  0.32236  0.67744  0.94998  1.0000
  H   H1187     1.0  0.37003  0.71421  0.90984  1.0000
  H   H1188     1.0  0.35968  0.74239  0.93106  1.0000
  C   C676      1.0  0.42611  0.87468  0.91013  1.0000
  C   C677      1.0  0.42578  0.86895  0.89087  1.0000
  C   C678      1.0  0.41755  0.84994  0.89085  1.0000
  C   C679      1.0  0.40965  0.83669  0.91006  1.0000
  C   C680      1.0  0.41010  0.84245  0.92924  1.0000
  C   C681      1.0  0.41840  0.86132  0.92927  1.0000
  H   H1189     1.0  0.41771  0.50868  0.89529  1.0000
  H   H1190     1.0  0.41706  0.84567  0.87594  1.0000
  H   H1191     1.0  0.40382  0.83251  0.94405  1.0000
  H   H1192     1.0  0.41898  0.86552  0.94416  1.0000
  H   H1193     1.0  0.29539  0.86012  0.86117  1.0000
  H   H1194     1.0  0.29885  0.53375  0.87912  1.0000
  S   S164      1.0  0.05305  0.50244  0.81698  1.0000
  H   H1195     1.0  0.06805  0.54799  0.87605  1.0000
  H   H1196     1.0  0.00939  0.53828  0.89494  1.0000
  C   C682      1.0  0.40628  0.58179  0.95378  1.0000
  H   H1197     1.0  0.13738  0.53558  0.98148  1.0000
  H   H1198     1.0  0.09153  0.55968  0.87786  1.0000
  H   H1199     1.0  0.02808  0.62962  0.77085  1.0000
  S   S165      1.0  0.45269  0.94269  0.80429  1.0000
  C   C683      1.0  0.30011  0.56196  0.77406  1.0000
  C   C684      1.0  0.48370  0.66775  0.94044  1.0000
  H   H1200     1.0  0.46788  0.84526  0.88600  1.0000
  C   C685      1.0  0.41330  0.97833  0.91297  1.0000
  H   H1201     1.0  0.10734  0.53680  0.77874  1.0000
  H   H1202     1.0  0.43011  0.85173  0.97965  1.0000
  C   C686      1.0  0.45866  0.91615  0.75317  1.0000
  H   H1203     1.0  0.32220  0.53733  0.75951  1.0000
  C   C687      1.0  0.47796  0.90691  0.79061  1.0000
  C   C688      1.0  0.01006  0.53151  0.94816  1.0000
  C   C689      1.0  0.01259  0.54105  0.92636  1.0000
  C   C690      1.0  0.00699  0.53092  0.91169  1.0000
  H   H1204     1.0  0.42490  0.67672  0.92331  1.0000
  H   H1205     1.0  0.45029  0.93105  0.93388  1.0000
  H   H1206     1.0  0.01955  0.55602  0.92075  1.0000
  C   C691      1.0  0.21483  0.50365  0.93746  1.0000
  H   H1207     1.0  0.45168  0.90374  0.95010  1.0000
  H   H1208     1.0  0.21510  0.63370  0.96806  1.0000
  Fe  Fe85      1.0  0.48097  0.95271  0.86796  1.0000
  H   H1209     1.0  0.48034  0.90979  0.96784  1.0000
  C   C692      1.0  0.40613  0.90964  0.96773  1.0000
  C   C693      1.0  0.46434  0.76038  0.93274  1.0000
  H   H1210     1.0  0.32925  0.53210  0.84034  1.0000
  C   C694      1.0  0.38888  0.68005  0.96989  1.0000
  C   C695      1.0  0.47933  0.67629  0.96128  1.0000
  C   C696      1.0  0.14457  0.53594  0.82705  1.0000
  C   C697      1.0  0.13419  0.52478  0.81662  1.0000
  C   C698      1.0  0.11667  0.51404  0.82759  1.0000
  C   C699      1.0  0.11008  0.51388  0.84918  1.0000
  C   C700      1.0  0.12036  0.52513  0.85949  1.0000
  C   C701      1.0  0.13687  0.53690  0.84820  1.0000
  C   C702      1.0  0.12017  0.50679  0.94365  1.0000
  S   S166      1.0  0.28076  0.61798  0.97875  1.0000
  H   H1211     1.0  0.34747  0.51597  0.94174  1.0000
  H   H1212     1.0  0.14347  0.54692  0.85588  1.0000
  C   C703      1.0  0.15404  0.56713  0.93005  1.0000
  C   C704      1.0  0.17311  0.55337  0.93571  1.0000
  C   C705      1.0  0.18081  0.55317  0.95457  1.0000
  C   C706      1.0  0.16980  0.56742  0.96737  1.0000
  C   C707      1.0  0.15076  0.58145  0.96169  1.0000
  C   C708      1.0  0.14262  0.58100  0.94316  1.0000
  H   H1213     1.0  0.18185  0.54288  0.92545  1.0000
  H   H1214     1.0  0.19558  0.54243  0.95893  1.0000
  H   H1215     1.0  0.14230  0.59256  0.97159  1.0000
  H   H1216     1.0  0.12795  0.59185  0.93863  1.0000
  C   C709      1.0  0.25342  0.60579  0.85868  1.0000
  C   C710      1.0  0.26180  0.58584  0.87126  1.0000
  C   C711      1.0  0.28157  0.58366  0.87930  1.0000
  C   C712      1.0  0.29299  0.60136  0.87477  1.0000
  C   C713      1.0  0.28440  0.62145  0.86256  1.0000
  C   C714      1.0  0.26457  0.62369  0.85462  1.0000
  H   H1217     1.0  0.25339  0.57194  0.87429  1.0000
  H   H1218     1.0  0.28849  0.56805  0.88839  1.0000
  H   H1219     1.0  0.29343  0.63504  0.85862  1.0000
  H   H1220     1.0  0.25818  0.63913  0.84480  1.0000
  H   H1221     1.0  0.38221  0.95031  0.97729  1.0000
  H   H1222     1.0  0.06025  0.53078  0.93308  1.0000
  H   H1223     1.0  0.36484  0.56935  0.88497  1.0000
  H   H1224     1.0  0.28954  0.52120  0.79914  1.0000
  H   H1225     1.0  0.30725  0.82056  0.94070  1.0000
  S   S167      1.0  0.32827  0.74676  0.96766  1.0000
  H   H1226     1.0  0.44033  0.78835  0.87750  1.0000
  C   C715      1.0  0.48530  0.89395  0.77539  1.0000
  H   H1227     1.0  0.26514  0.63146  0.78743  1.0000
  C   C716      1.0  0.37590  0.88645  0.97430  1.0000
  H   H1228     1.0  0.29763  0.56326  0.84646  1.0000
  H   H1229     1.0  0.29420  0.57974  0.76908  1.0000
  C   C717      1.0  0.06329  0.49599  0.93414  1.0000
  H   H1230     1.0  0.41318  0.54041  0.86169  1.0000
  C   C718      1.0  0.44445  0.56773  0.90884  1.0000
  H   H1231     1.0  0.37598  0.67489  0.96335  1.0000
  H   H1232     1.0  0.34206  0.55146  0.81964  1.0000
  C   C719      1.0  0.42958  0.52034  0.88909  1.0000
  H   H1233     1.0  0.44290  0.74093  0.87769  1.0000
  H   H1234     1.0  0.32998  0.55421  0.86657  1.0000
  H   H1235     1.0  0.34455  0.57674  0.98521  1.0000
  C   C720      1.0  0.45031  0.79915  0.86528  1.0000
  C   C721      1.0  0.31079  0.55707  0.79484  1.0000
  S   S168      1.0  0.01845  0.54424  0.96583  1.0000
  H   H1236     1.0  0.47844  0.66638  0.86597  1.0000
  H   H1237     1.0  0.28169  0.60665  0.81726  1.0000
  C   C722      1.0  0.39912  0.94409  0.98112  1.0000
  H   H1238     1.0  0.15079  0.50545  0.89857  1.0000
  H   H1239     1.0  0.44531  0.49865  0.85630  1.0000
  H   H1240     1.0  0.99607  0.58891  0.97108  1.0000
  H   H1241     1.0  0.47310  0.96761  0.75274  1.0000
  H   H1242     1.0  0.44026  0.94471  0.96961  1.0000
  H   H1243     1.0  0.31659  0.54594  0.98384  1.0000
  H   H1244     1.0  0.34946  0.54889  0.90127  1.0000
  H   H1245     1.0  0.38570  0.63745  0.96996  1.0000
  N   N39       1.0  0.22934  0.60535  0.93934  1.0000
  C   C723      1.0  0.24548  0.58693  0.93217  1.0000
  C   C724      1.0  0.23840  0.62674  0.93232  1.0000
  H   H1246     1.0  0.46882  0.66105  0.94000  1.0000
  C   C725      1.0  0.20762  0.60771  0.93164  1.0000
  C   C726      1.0  0.20784  0.61302  0.90721  1.0000
  C   C727      1.0  0.23758  0.56438  0.93690  1.0000
  H   H1247     1.0  0.37062  0.92029  0.97525  1.0000
  C   C728      1.0  0.25336  0.63063  0.91073  1.0000
  C   C729      1.0  0.25644  0.65464  0.90317  1.0000
  C   C730      1.0  0.18578  0.61192  0.90124  1.0000
  C   C731      1.0  0.25613  0.54658  0.93150  1.0000
  H   H1248     1.0  0.41971  0.53749  0.93595  1.0000
  H   H1249     1.0  0.26081  0.58481  0.93932  1.0000
  H   H1250     1.0  0.25047  0.59079  0.91480  1.0000
  H   H1251     1.0  0.22486  0.64083  0.93187  1.0000
  H   H1252     1.0  0.37900  0.91490  0.94909  1.0000
  H   H1253     1.0  0.46295  0.58941  0.88408  1.0000
  H   H1254     1.0  0.05461  0.52458  0.90932  1.0000
  H   H1255     1.0  0.20003  0.59274  0.93868  1.0000
  H   H1256     1.0  0.19595  0.62111  0.93737  1.0000
  H   H1257     1.0  0.22019  0.60143  0.89962  1.0000
  H   H1258     1.0  0.21121  0.62996  0.90035  1.0000
  H   H1259     1.0  0.18273  0.50780  0.95375  1.0000
  H   H1260     1.0  0.22445  0.56518  0.92727  1.0000
  H   H1261     1.0  0.30185  0.52413  0.83156  1.0000
  C   C732      1.0  0.26388  0.49773  0.88414  1.0000
  H   H1262     1.0  0.26964  0.62049  0.91257  1.0000
  H   H1263     1.0  0.24689  0.62616  0.89798  1.0000
  H   H1264     1.0  0.26230  0.66031  0.91567  1.0000
  H   H1265     1.0  0.26865  0.65656  0.88871  1.0000
  H   H1266     1.0  0.24853  0.62835  0.94415  1.0000
  H   H1267     1.0  0.17262  0.62321  0.90844  1.0000
  H   H1268     1.0  0.18624  0.61658  0.88366  1.0000
  H   H1269     1.0  0.18204  0.59501  0.90670  1.0000
  H   H1270     1.0  0.25030  0.53051  0.93560  1.0000
  H   H1271     1.0  0.26216  0.55018  0.91427  1.0000
  H   H1272     1.0  0.26967  0.54532  0.94081  1.0000
  C   C733      1.0  0.44753  0.75154  0.94695  1.0000
  C   C734      1.0  0.46499  0.71427  0.89432  1.0000
  H   H1273     1.0  0.18313  0.50967  0.91343  1.0000
  N   N40       1.0  0.32831  0.78810  0.89173  1.0000
  C   C735      1.0  0.31068  0.77716  0.88763  1.0000
  C   C736      1.0  0.32877  0.80991  0.87618  1.0000
  C   C737      1.0  0.34988  0.77392  0.88695  1.0000
  C   C738      1.0  0.32570  0.79087  0.91441  1.0000
  C   C739      1.0  0.30202  0.79515  0.92579  1.0000
  C   C740      1.0  0.31030  0.75310  0.90022  1.0000
  C   C741      1.0  0.37057  0.78213  0.88990  1.0000
  C   C742      1.0  0.30820  0.82740  0.87762  1.0000
  S   S169      1.0  0.23636  0.49685  0.88348  1.0000
  C   C743      1.0  0.28850  0.74575  0.90077  1.0000
  C   C744      1.0  0.39086  0.76495  0.88768  1.0000
  H   H1274     1.0  0.31237  0.77698  0.87042  1.0000
  H   H1275     1.0  0.29430  0.78658  0.89095  1.0000
  H   H1276     1.0  0.34223  0.81785  0.87834  1.0000
  H   H1277     1.0  0.33224  0.80740  0.85956  1.0000
  H   H1278     1.0  0.35196  0.77145  0.87037  1.0000
  H   H1279     1.0  0.35028  0.75734  0.89732  1.0000
  H   H1280     1.0  0.33388  0.77603  0.92476  1.0000
  H   H1281     1.0  0.33440  0.80428  0.91519  1.0000
  H   H1282     1.0  0.29525  0.77957  0.93127  1.0000
  H   H1283     1.0  0.29085  0.80666  0.91540  1.0000
  H   H1284     1.0  0.32311  0.74186  0.89253  1.0000
  H   H1285     1.0  0.31342  0.75091  0.91684  1.0000
  H   H1286     1.0  0.36896  0.78573  0.90588  1.0000
  H   H1287     1.0  0.37361  0.79712  0.87771  1.0000
  H   H1288     1.0  0.29327  0.82120  0.87651  1.0000
  H   H1289     1.0  0.30635  0.83294  0.89274  1.0000
  H   H1290     1.0  0.47961  0.78583  0.87950  1.0000
  Fe  Fe86      1.0  0.05901  0.50178  0.85000  1.0000
  C   C745      1.0  0.35722  0.50235  0.98334  1.0000
  H   H1291     1.0  0.27516  0.75567  0.90936  1.0000
  H   H1292     1.0  0.28490  0.74727  0.88437  1.0000
  H   H1293     1.0  0.28923  0.72830  0.90929  1.0000
  S   S170      1.0  0.48725  0.98275  0.87703  1.0000
  H   H1294     1.0  0.38925  0.74963  0.89992  1.0000
  H   H1295     1.0  0.19367  0.61735  0.97253  1.0000
  H   H1296     1.0  0.09034  0.55671  0.76102  1.0000
  C   C746      1.0  0.48358  0.81827  0.85861  1.0000
  H   H1297     1.0  0.41529  0.93541  0.93069  1.0000
  H   H1298     1.0  0.29994  0.51875  0.93437  1.0000
  H   H1299     1.0  0.22050  0.50801  0.95080  1.0000
  S   S171      1.0  0.46151  0.61781  0.95610  1.0000
  N   N41       1.0  0.29575  0.55842  0.81524  1.0000
  C   C747      1.0  0.47605  0.89899  0.75634  1.0000
  H   H1300     1.0  0.46028  0.54032  0.89460  1.0000
  H   H1301     1.0  0.39362  0.76123  0.87162  1.0000
  H   H1302     1.0  0.44242  0.53806  0.85749  1.0000
  H   H1303     1.0  0.32287  0.49830  0.92915  1.0000
  C   C748      1.0  0.44136  0.60315  0.95395  1.0000
  H   H1304     1.0  0.46314  0.80853  0.88928  1.0000
  C   C749      1.0  0.42997  0.51032  0.85385  1.0000
  C   C750      1.0  0.47120  0.65918  0.98032  1.0000
  H   H1305     1.0  0.39037  0.94843  0.94173  1.0000
  C   C751      1.0  0.00082  0.51228  0.95533  1.0000
  H   H1306     1.0  0.26121  0.60891  0.77708  1.0000
  H   H1307     1.0  0.08231  0.52080  0.91455  1.0000
  H   H1308     1.0  0.32177  0.52593  0.91376  1.0000
  H   H1309     1.0  0.42965  0.51686  0.83651  1.0000
  H   H1310     1.0  0.25614  0.50921  0.83839  1.0000
  H   H1311     1.0  0.38226  0.52947  0.91833  1.0000
  H   H1312     1.0  0.40657  0.97893  0.94619  1.0000
  H   H1313     1.0  0.41027  0.89905  0.98319  1.0000
  H   H1314     1.0  0.44591  0.55946  0.92562  1.0000
  N   N42       1.0  0.33369  0.51292  0.98609  1.0000
  H   H1315     1.0  0.23128  0.55891  0.95380  1.0000
  H   H1316     1.0  0.38562  0.53098  0.89015  1.0000
  H   H1317     1.0  0.11358  0.50154  0.93146  1.0000
  N   N43       1.0  0.41234  0.93200  0.96482  1.0000
  C   C752      1.0  0.47367  0.72795  0.96896  1.0000
  H   H1318     1.0  0.48734  0.91809  0.93925  1.0000
  C   C753      1.0  0.34062  0.55641  0.85106  1.0000
  S   S172      1.0  0.44835  0.94674  0.86352  1.0000
  C   C754      1.0  0.41610  0.96771  0.93618  1.0000
  S   S173      1.0  0.40745  0.78855  0.97007  1.0000
  S   S174      1.0  0.47324  0.89861  0.85413  1.0000
  Fe  Fe87      1.0  0.46630  0.93317  0.83558  1.0000
  C   C755      1.0  0.48577  0.75332  0.93688  1.0000
  C   C756      1.0  0.42855  0.52917  0.86491  1.0000
  H   H1319     1.0  0.43986  0.81514  0.86032  1.0000
  H   H1320     1.0  0.32244  0.56896  0.79173  1.0000
  H   H1321     1.0  0.45559  0.65507  0.97796  1.0000
  H   H1322     1.0  0.46058  0.77350  0.91924  1.0000
  H   H1323     1.0  0.32113  0.54062  0.79660  1.0000
  H   H1324     1.0  0.46926  0.83301  0.92377  1.0000
  H   H1325     1.0  0.46366  0.59185  0.91083  1.0000
  H   H1326     1.0  0.24083  0.66506  0.89912  1.0000
  C   C757      1.0  0.10725  0.52932  0.94552  1.0000
  C   C758      1.0  0.38431  0.54062  0.90245  1.0000
  H   H1327     1.0  0.38610  0.87487  0.96507  1.0000
  H   H1328     1.0  0.06490  0.57021  0.88948  1.0000
  H   H1329     1.0  0.10660  0.54030  0.92949  1.0000
  H   H1330     1.0  0.45539  0.81707  0.96346  1.0000
  C   C759      1.0  0.45123  0.92887  0.76841  1.0000
  H   H1331     1.0  0.40524  0.56378  0.88380  1.0000
  C   C760      1.0  0.40554  0.60405  0.94441  1.0000
  S   S175      1.0  0.08981  0.49903  0.86410  1.0000
  H   H1332     1.0  0.29592  0.60062  0.79281  1.0000
  C   C761      1.0  0.99776  0.51174  0.91876  1.0000
  H   H1333     1.0  0.42212  0.63195  0.93742  1.0000
  H   H1334     1.0  0.34303  0.54433  0.96929  1.0000
  H   H1335     1.0  0.09039  0.52761  0.95325  1.0000
  Fe  Fe88      1.0  0.40285  0.75359  0.97624  1.0000
  H   H1336     1.0  0.38495  0.69822  0.96667  1.0000
  C   C762      1.0  0.44411  0.55099  0.89525  1.0000
  H   H1337     1.0  0.14962  0.50934  0.95332  1.0000
  H   H1338     1.0  0.26588  0.57205  0.80127  1.0000
  H   H1339     1.0  0.11479  0.53722  0.95518  1.0000
  H   H1340     1.0  0.45380  0.69606  0.92513  1.0000
  C   C763      1.0  0.28819  0.53674  0.82583  1.0000
  N   N44       1.0  0.42600  0.53734  0.90231  1.0000
  C   C764      1.0  0.27587  0.57570  0.81200  1.0000
  H   H1341     1.0  0.30399  0.51839  0.97198  1.0000
  C   C765      1.0  0.46978  0.80219  0.87472  1.0000
  C   C766      1.0  0.29331  0.51831  0.88100  1.0000
  H   H1342     1.0  0.34315  0.57379  0.84577  1.0000
  H   H1343     1.0  0.21902  0.58445  0.96969  1.0000
  C   C767      1.0  0.44758  0.51219  0.93208  1.0000
  H   H1344     1.0  0.40966  0.96842  0.75247  1.0000
  H   H1345     1.0  0.47942  0.56854  0.90154  1.0000
  H   H1346     1.0  0.31133  0.79308  0.95695  1.0000
  C   C768      1.0  0.40905  0.68146  0.93259  1.0000
  C   C769      1.0  0.19269  0.49590  0.94489  1.0000
  C   C770      1.0  0.31784  0.51576  0.92988  1.0000
  H   H1347     1.0  0.02060  0.59105  0.76274  1.0000
  C   C771      1.0  0.30126  0.80454  0.94533  1.0000
  C   C772      1.0  0.48022  0.65176  0.87926  1.0000
  H   H1348     1.0  0.10889  0.50515  0.81962  1.0000
  H   H1349     1.0  0.31136  0.58109  0.82550  1.0000
  S   S176      1.0  0.33641  0.50059  0.87950  1.0000
  C   C773      1.0  0.47641  0.65859  0.90058  1.0000
  H   H1350     1.0  0.36040  0.56609  0.91359  1.0000
  C   C774      1.0  0.43606  0.92916  0.96769  1.0000
  H   H1351     1.0  0.39690  0.67294  0.92879  1.0000
  H   H1352     1.0  0.40411  0.69945  0.92774  1.0000
  N   N45       1.0  0.08037  0.58524  0.81412  1.0000
  C   C775      1.0  0.09099  0.57269  0.79727  1.0000
  C   C776      1.0  0.09337  0.60321  0.81291  1.0000
  C   C777      1.0  0.07997  0.56966  0.83556  1.0000
  C   C778      1.0  0.05726  0.59547  0.81075  1.0000
  C   C779      1.0  0.05391  0.60915  0.78807  1.0000
  C   C780      1.0  0.07893  0.55459  0.79477  1.0000
  C   C781      1.0  0.07056  0.58002  0.85499  1.0000
  C   C782      1.0  0.11635  0.59569  0.82020  1.0000
  C   C783      1.0  0.12821  0.61521  0.81728  1.0000
  C   C784      1.0  0.03043  0.62093  0.78743  1.0000
  C   C785      1.0  0.09030  0.54425  0.77623  1.0000
  C   C786      1.0  0.07397  0.56339  0.87583  1.0000
  H   H1353     1.0  0.10758  0.56437  0.80067  1.0000
  H   H1354     1.0  0.09356  0.58406  0.78148  1.0000
  H   H1355     1.0  0.09586  0.61287  0.79628  1.0000
  H   H1356     1.0  0.08420  0.61526  0.82227  1.0000
  H   H1357     1.0  0.09652  0.56060  0.83784  1.0000
  H   H1358     1.0  0.06995  0.55680  0.83647  1.0000
  H   H1359     1.0  0.04642  0.58274  0.81490  1.0000
  H   H1360     1.0  0.05060  0.60652  0.82190  1.0000
  H   H1361     1.0  0.05729  0.59849  0.77642  1.0000
  H   H1362     1.0  0.06474  0.62178  0.78277  1.0000
  H   H1363     1.0  0.07855  0.54129  0.80931  1.0000
  H   H1364     1.0  0.06200  0.56121  0.79163  1.0000
  H   H1365     1.0  0.05275  0.58552  0.85506  1.0000
  H   H1366     1.0  0.07833  0.59423  0.85492  1.0000
  H   H1367     1.0  0.11535  0.58740  0.83729  1.0000
  H   H1368     1.0  0.12663  0.58428  0.81084  1.0000
  H   H1369     1.0  0.14466  0.60932  0.82231  1.0000
  H   H1370     1.0  0.13022  0.62394  0.80031  1.0000
  H   H1371     1.0  0.02676  0.63315  0.79759  1.0000
  H   H1372     1.0  0.39134  0.61329  0.93738  1.0000
  C   C787      1.0  0.99826  0.58562  0.74394  1.0000
  H   H1373     1.0  0.21393  0.51837  0.92429  1.0000
  H   H1374     1.0  0.35661  0.54594  0.85348  1.0000
  C   C788      1.0  0.42483  0.57004  0.96290  1.0000
  C   C789      1.0  0.33346  0.53702  0.98442  1.0000
  C   C790      1.0  0.32138  0.51088  0.96891  1.0000
  H   H1375     1.0  0.45373  0.49927  0.92291  1.0000
  H   H1376     1.0  0.47731  0.71557  0.98304  1.0000
  C   C791      1.0  0.36354  0.55731  0.90043  1.0000
  C   C792      1.0  0.26208  0.61424  0.79182  1.0000
  C   C793      1.0  0.45277  0.92095  0.94993  1.0000
  H   H1377     1.0  0.47053  0.86189  0.91699  1.0000
  H   H1378     1.0  0.11913  0.62676  0.82717  1.0000
  H   H1379     1.0  0.42939  0.58003  0.90835  1.0000
  H   H1380     1.0  0.43103  0.75756  0.94387  1.0000
  H   H1381     1.0  0.45119  0.74648  0.90054  1.0000
  C   C794      1.0  0.30793  0.56399  0.83077  1.0000
  C   C795      1.0  0.30847  0.49903  0.88236  1.0000
  C   C796      1.0  0.47592  0.92187  0.95321  1.0000
  H   H1382     1.0  0.42323  0.68391  0.95921  1.0000
  C   C797      1.0  0.46521  0.80066  0.96333  1.0000
  H   H1383     1.0  0.26480  0.57540  0.82728  1.0000
  C   C798      1.0  0.27103  0.51767  0.88200  1.0000
  H   H1384     1.0  0.31155  0.84333  0.84387  1.0000
  H   H1385     1.0  0.45597  0.79108  0.95699  1.0000
  C   C799      1.0  0.46914  0.70241  0.91739  1.0000
  H   H1386     1.0  0.40529  0.77133  0.88997  1.0000
  H   H1387     1.0  0.31164  0.70638  0.97105  1.0000
  C   C800      1.0  0.28040  0.59965  0.80362  1.0000
  H   H1388     1.0  0.32689  0.53957  0.94330  1.0000
  C   C801      1.0  0.99428  0.50267  0.94067  1.0000
  H   H1389     1.0  0.01878  0.60904  0.79306  1.0000
  C   C802      1.0  0.31014  0.84764  0.85957  1.0000
  H   H1390     1.0  0.32461  0.85496  0.86019  1.0000
  C   C803      1.0  0.40450  0.55222  0.89962  1.0000
  C   C804      1.0  0.27855  0.57398  0.98721  1.0000
  H   H1391     1.0  0.41771  0.65707  0.96000  1.0000
  H   H1392     1.0  0.45968  0.66772  0.90269  1.0000
  H   H1393     1.0  0.47750  0.93852  0.95458  1.0000
  H   H1394     1.0  0.43158  0.87928  0.87602  1.0000
  H   H1395     1.0  0.14001  0.52406  0.80022  1.0000
  C   C805      1.0  0.44247  0.58069  0.96282  1.0000
  H   H1396     1.0  0.42320  0.96791  0.90232  1.0000
  H   H1397     1.0  0.40431  0.93070  0.74715  1.0000
  H   H1398     1.0  0.25942  0.53261  0.88081  1.0000
  C   C806      1.0  0.42565  0.52569  0.92540  1.0000
  H   H1399     1.0  0.47034  0.71507  0.92606  1.0000
  H   H1400     1.0  0.27646  0.53858  0.84030  1.0000
  C   C807      1.0  0.42298  0.61468  0.94456  1.0000
  H   H1401     1.0  0.43358  0.96632  0.93770  1.0000
  H   H1402     1.0  0.45588  0.79148  0.85137  1.0000
  H   H1403     1.0  0.40092  0.56296  0.91128  1.0000
  H   H1404     1.0  0.47286  0.83439  0.85481  1.0000
  H   H1405     1.0  0.24615  0.61363  0.80206  1.0000
  H   H1406     1.0  0.44585  0.51008  0.89048  1.0000
  H   H1407     1.0  0.28599  0.55346  0.77580  1.0000
  H   H1408     1.0  0.26210  0.49750  0.81530  1.0000
  C   C808      1.0  0.33045  0.54967  0.83452  1.0000
  Fe  Fe89      1.0  0.45812  0.91285  0.88246  1.0000
  H   H1409     1.0  0.28278  0.57508  0.97031  1.0000
  C   C809      1.0  0.41112  0.67475  0.95631  1.0000
  H   H1410     1.0  0.99842  0.50503  0.97217  1.0000
  S   S177      1.0  0.00034  0.50316  0.83738  1.0000
  Fe  Fe90      1.0  0.35596  0.76460  0.96811  1.0000
  H   H1411     1.0  0.14700  0.52345  0.92668  1.0000
  H   H1412     1.0  0.47288  0.84365  0.98154  1.0000
  S   S178      1.0  0.35578  0.80107  0.96186  1.0000
  H   H1413     1.0  0.42542  0.55285  0.97028  1.0000
  H   H1414     1.0  0.46663  0.69099  0.95992  1.0000
  H   H1415     1.0  0.47723  0.64335  0.91320  1.0000
  H   H1416     1.0  0.43243  0.98270  0.76682  1.0000
  C   C810      1.0  0.14487  0.50777  0.93828  1.0000
  H   H1417     1.0  0.47373  0.86498  0.95770  1.0000
  H   H1418     1.0  0.46027  0.52275  0.92966  1.0000
  H   H1419     1.0  0.45656  0.57174  0.97028  1.0000
  C   C811      1.0  0.21089  0.61703  0.97449  1.0000
  C   C812      1.0  0.40814  0.94511  0.94294  1.0000
  H   H1420     1.0  0.36621  0.51140  0.96871  1.0000
  H   H1421     1.0  0.24210  0.59655  0.96944  1.0000
  H   H1422     1.0  0.28423  0.80702  0.95326  1.0000
  H   H1423     1.0  0.41589  0.50138  0.86021  1.0000
  C   C813      1.0  0.49379  0.67223  0.90215  1.0000
  C   C814      1.0  0.38096  0.63393  0.98746  1.0000
  C   C815      1.0  0.48362  0.84503  0.89143  1.0000
  H   H1424     1.0  0.48724  0.81244  0.84349  1.0000
  C   C816      1.0  0.38192  0.90941  0.96600  1.0000
  H   H1425     1.0  0.46807  0.64131  0.87906  1.0000
  H   H1426     1.0  0.46014  0.70302  0.88607  1.0000
  H   H1427     1.0  0.48562  0.90352  0.80490  1.0000
  H   H1428     1.0  0.48864  0.83760  0.95762  1.0000
  C   C817      1.0  0.48343  0.85043  0.96694  1.0000
  H   H1429     1.0  0.43938  0.91721  0.98276  1.0000
  H   H1430     1.0  0.35859  0.88681  0.97269  1.0000
  C   C818      1.0  0.48907  0.96786  0.74252  1.0000
  H   H1431     1.0  0.48340  0.64402  0.98259  1.0000
  H   H1432     1.0  0.48204  0.77386  0.98432  1.0000
  H   H1433     1.0  0.47959  0.72048  0.88467  1.0000
  H   H1434     1.0  0.11707  0.49523  0.95920  1.0000
  H   H1435     1.0  0.40204  0.82885  0.98175  1.0000
  H   H1436     1.0  0.47938  0.97677  0.80516  1.0000
  H   H1437     1.0  0.49010  0.86016  0.88282  1.0000
  C   C819      1.0  0.47936  0.84563  0.91493  1.0000
  S   S179      1.0  0.48956  0.91975  0.88921  1.0000
  H   H1438     1.0  0.37681  0.60086  0.98755  1.0000
  C   C820      1.0  0.47022  0.78895  0.98570  1.0000
  H   H1439     1.0  0.43857  0.51294  0.96566  1.0000
  N   N46       1.0  0.48854  0.68433  0.92001  1.0000
  H   H1440     1.0  0.49276  0.50020  0.88880  1.0000
  C   C821      1.0  0.18232  0.49414  0.92558  1.0000
  H   H1441     1.0  0.04607  0.49589  0.94106  1.0000
  H   H1442     1.0  0.99620  0.57411  0.84084  1.0000
  C   C822      1.0  0.49054  0.73648  0.95444  1.0000
  C   C823      1.0  0.44483  0.50079  0.95559  1.0000
  H   H1443     1.0  0.49114  0.52156  0.86499  1.0000
  C   C824      1.0  0.49215  0.98557  0.79464  1.0000
  H   H1444     1.0  0.30869  0.55957  0.74103  1.0000
  H   H1445     1.0  0.32086  0.49351  0.96924  1.0000
  H   H1446     1.0  0.28255  0.49334  0.83276  1.0000
  C   C825      1.0  0.83016  0.47889  0.13782  1.0000
  Fe  Fe91      1.0  0.70040  0.47136  0.00507  1.0000
  C   C826      1.0  0.49913  0.39329  0.02878  1.0000
  Fe  Fe92      1.0  0.69223  0.47591  0.05057  1.0000
  H   H1447     1.0  0.54494  0.22764  0.06100  1.0000
  H   H1448     1.0  0.54009  0.44444  0.01597  1.0000
  Fe  Fe93      1.0  0.66052  0.45604  0.03332  1.0000
  S   S180      1.0  0.63920  0.42944  0.04471  1.0000
  C   C827      1.0  0.96188  0.38326  0.13341  1.0000
  S   S181      1.0  0.69628  0.44696  0.03578  1.0000
  H   H1449     1.0  0.50133  0.27277  0.00080  1.0000
  Fe  Fe94      1.0  0.85901  0.46384  0.05738  1.0000
  H   H1450     1.0  0.87335  0.47136  0.14452  1.0000
  S   S182      1.0  0.87218  0.42781  0.06647  1.0000
  S   S183      1.0  0.51772  0.05042  0.20110  1.0000
  H   H1451     1.0  0.60520  0.04223  0.17538  1.0000
  H   H1452     1.0  0.54526  0.00024  0.13495  1.0000
  C   C828      1.0  0.73277  0.48268  0.10323  1.0000
  H   H1453     1.0  0.60483  0.09487  0.22550  1.0000
  C   C829      1.0  0.82575  0.44050  0.13619  1.0000
  Fe  Fe95      1.0  0.91867  0.44405  0.19072  1.0000
  H   H1454     1.0  0.50327  0.23704  0.02321  1.0000
  S   S184      1.0  0.70468  0.47193  0.08178  1.0000
  S   S185      1.0  0.89862  0.38690  0.15929  1.0000
  C   C830      1.0  0.59021  0.08692  0.23228  1.0000
  C   C831      1.0  0.75193  0.48935  0.10558  1.0000
  H   H1455     1.0  0.51778  0.22342  0.05969  1.0000
  C   C832      1.0  0.84157  0.43055  0.02159  1.0000
  H   H1456     1.0  0.51943  0.02881  0.16528  1.0000
  C   C833      1.0  0.52366  0.45477  0.01536  1.0000
  C   C834      1.0  0.76954  0.42886  0.02476  1.0000
  C   C835      1.0  0.53298  0.00283  0.14878  1.0000
  C   C836      1.0  0.74504  0.48501  0.06573  1.0000
  H   H1457     1.0  0.83455  0.42359  0.13649  1.0000
  H   H1458     1.0  0.92562  0.46498  0.03828  1.0000
  H   H1459     1.0  0.52264  0.21473  0.01727  1.0000
  H   H1460     1.0  0.97292  0.36949  0.14206  1.0000
  C   C837      1.0  0.93018  0.35289  0.07331  1.0000
  H   H1461     1.0  0.94479  0.38105  0.13983  1.0000
  H   H1462     1.0  0.87049  0.48745  0.11871  1.0000
  H   H1463     1.0  0.95834  0.47082  0.08941  1.0000
  C   C838      1.0  0.62451  0.42436  0.02620  1.0000
  C   C839      1.0  0.60435  0.41708  0.03339  1.0000
  C   C840      1.0  0.59091  0.41578  0.01879  1.0000
  H   H1464     1.0  0.58133  0.04305  0.16328  1.0000
  S   S186      1.0  0.50261  0.08504  0.05908  1.0000
  C   C841      1.0  0.80698  0.45417  0.00882  1.0000
  H   H1465     1.0  0.59857  0.41367  0.05023  1.0000
  N   N47       1.0  0.51068  0.44765  0.00142  1.0000
  C   C842      1.0  0.77187  0.47687  0.00177  1.0000
  H   H1466     1.0  0.74225  0.48347  0.05035  1.0000
  H   H1467     1.0  0.52658  0.01017  0.10785  1.0000
  C   C843      1.0  0.89126  0.39929  0.13365  1.0000
  C   C844      1.0  0.89261  0.42131  0.12410  1.0000
  C   C845      1.0  0.88635  0.43044  0.10366  1.0000
  C   C846      1.0  0.87882  0.41756  0.09267  1.0000
  C   C847      1.0  0.87775  0.39555  0.10219  1.0000
  C   C848      1.0  0.88373  0.38654  0.12260  1.0000
  H   H1468     1.0  0.89820  0.43139  0.13248  1.0000
  H   H1469     1.0  0.88762  0.44736  0.09639  1.0000
  H   H1470     1.0  0.87217  0.38541  0.09378  1.0000
  H   H1471     1.0  0.88263  0.36953  0.12984  1.0000
  H   H1472     1.0  0.54042  0.10438  0.14382  1.0000
  N   N48       1.0  0.68775  0.40095  0.09871  1.0000
  C   C849      1.0  0.69322  0.38361  0.08567  1.0000
  C   C850      1.0  0.68372  0.39052  0.12221  1.0000
  C   C851      1.0  0.66685  0.41530  0.09236  1.0000
  C   C852      1.0  0.70507  0.41541  0.09450  1.0000
  C   C853      1.0  0.72862  0.40383  0.09729  1.0000
  C   C854      1.0  0.69759  0.39191  0.06121  1.0000
  C   C855      1.0  0.65723  0.43334  0.10511  1.0000
  C   C856      1.0  0.69689  0.36757  0.13020  1.0000
  C   C857      1.0  0.69396  0.36100  0.15450  1.0000
  C   C858      1.0  0.74463  0.42028  0.09032  1.0000
  C   C859      1.0  0.70430  0.37284  0.04996  1.0000
  C   C860      1.0  0.63420  0.44372  0.10023  1.0000
  H   H1473     1.0  0.67972  0.37372  0.08897  1.0000
  H   H1474     1.0  0.70788  0.37182  0.09024  1.0000
  H   H1475     1.0  0.68646  0.40165  0.13195  1.0000
  H   H1476     1.0  0.66631  0.38825  0.12693  1.0000
  H   H1477     1.0  0.65407  0.40502  0.09336  1.0000
  H   H1478     1.0  0.66921  0.42428  0.07549  1.0000
  H   H1479     1.0  0.70526  0.42595  0.07822  1.0000
  H   H1480     1.0  0.70108  0.42716  0.10520  1.0000
  H   H1481     1.0  0.73399  0.39125  0.08765  1.0000
  H   H1482     1.0  0.72983  0.39622  0.11429  1.0000
  H   H1483     1.0  0.68276  0.40181  0.05477  1.0000
  H   H1484     1.0  0.71098  0.40182  0.05690  1.0000
  H   H1485     1.0  0.66745  0.44655  0.10068  1.0000
  H   H1486     1.0  0.65627  0.42688  0.12253  1.0000
  H   H1487     1.0  0.69101  0.35505  0.12430  1.0000
  H   H1488     1.0  0.71453  0.36688  0.12467  1.0000
  H   H1489     1.0  0.70041  0.37255  0.16123  1.0000
  H   H1490     1.0  0.67647  0.36087  0.16083  1.0000
  H   H1491     1.0  0.76150  0.41164  0.09193  1.0000
  H   H1492     1.0  0.74388  0.42900  0.07345  1.0000
  H   H1493     1.0  0.74080  0.43257  0.10043  1.0000
  H   H1494     1.0  0.69121  0.36254  0.05337  1.0000
  H   H1495     1.0  0.70707  0.37935  0.03249  1.0000
  H   H1496     1.0  0.71963  0.36261  0.05507  1.0000
  S   S187      1.0  0.52018  0.11145  0.19515  1.0000
  H   H1497     1.0  0.53787  0.06566  0.15509  1.0000
  H   H1498     1.0  0.54498  0.07249  0.12656  1.0000
  H   H1499     1.0  0.51352  0.49075  0.00511  1.0000
  H   H1500     1.0  0.96498  0.39878  0.13631  1.0000
  H   H1501     1.0  0.50894  0.41729  0.99271  1.0000
  H   H1502     1.0  0.70305  0.34430  0.15973  1.0000
  C   C861      1.0  0.96602  0.38357  0.10970  1.0000
  S   S188      1.0  0.99301  0.42454  0.15026  1.0000
  C   C862      1.0  0.51639  0.40819  0.02529  1.0000
  S   S189      1.0  0.95181  0.43223  0.20079  1.0000
  H   H1503     1.0  0.52948  0.27431  0.99766  1.0000
  C   C863      1.0  0.84495  0.47530  0.18170  1.0000
  C   C864      1.0  0.52826  0.47876  0.00893  1.0000
  H   H1504     1.0  0.51559  0.45212  0.03210  1.0000
  C   C865      1.0  0.97345  0.45092  0.11633  1.0000
  H   H1505     1.0  0.76232  0.44180  0.99275  1.0000
  H   H1506     1.0  0.56057  0.06157  0.23018  1.0000
  S   S190      1.0  0.66505  0.47816  0.00103  1.0000
  C   C866      1.0  0.52614  0.09864  0.14034  1.0000
  H   H1507     1.0  0.57079  0.05373  0.19777  1.0000
  H   H1508     1.0  0.97179  0.43475  0.03460  1.0000
  H   H1509     1.0  0.83386  0.42773  0.03842  1.0000
  H   H1510     1.0  0.78756  0.42456  0.99415  1.0000
  C   C867      1.0  0.82455  0.43389  0.00654  1.0000
  H   H1511     1.0  0.51404  0.00578  0.21959  1.0000
  H   H1512     1.0  0.81731  0.41865  0.01030  1.0000
  H   H1513     1.0  0.49857  0.38287  0.04512  1.0000
  H   H1514     1.0  0.59551  0.49274  0.02803  1.0000
  H   H1515     1.0  0.56081  0.21011  0.00361  1.0000
  H   H1516     1.0  0.94372  0.34072  0.08006  1.0000
  H   H1517     1.0  0.83330  0.43603  0.99012  1.0000
  N   N49       1.0  0.51556  0.04272  0.13241  1.0000
  H   H1518     1.0  0.91456  0.34692  0.08053  1.0000
  H   H1519     1.0  0.92136  0.47972  0.05929  1.0000
  N   N50       1.0  0.78828  0.45795  0.99604  1.0000
  H   H1520     1.0  0.57475  0.41169  0.02443  1.0000
  H   H1521     1.0  0.54124  0.20582  0.04953  1.0000
  S   S191      1.0  0.95063  0.38753  0.18517  1.0000
  S   S192      1.0  0.53163  0.12793  0.01381  1.0000
  C   C868      1.0  0.93731  0.44623  0.06792  1.0000
  C   C869      1.0  0.75747  0.40951  0.02751  1.0000
  H   H1522     1.0  0.95358  0.45101  0.06257  1.0000
  H   H1523     1.0  0.83483  0.46275  0.18203  1.0000
  S   S193      1.0  0.50381  0.02935  0.04603  1.0000
  H   H1524     1.0  0.63408  0.45040  0.08289  1.0000
  H   H1525     1.0  0.60163  0.46742  0.99239  1.0000
  C   C870      1.0  0.53700  0.48491  0.02675  1.0000
  Fe  Fe96      1.0  0.50350  0.08243  0.20927  1.0000
  C   C871      1.0  0.52851  0.04388  0.11058  1.0000
  C   C872      1.0  0.84146  0.47978  0.20405  1.0000
  H   H1526     1.0  0.96544  0.37126  0.07226  1.0000
  S   S194      1.0  0.90005  0.47679  0.19433  1.0000
  H   H1527     1.0  0.81949  0.44700  0.12057  1.0000
  H   H1528     1.0  0.50978  0.03147  0.09191  1.0000
  H   H1529     1.0  0.53239  0.39751  0.02733  1.0000
  C   C873      1.0  0.49697  0.03549  0.20210  1.0000
  H   H1530     1.0  0.84778  0.44741  0.15453  1.0000
  H   H1531     1.0  0.93729  0.42438  0.04694  1.0000
  H   H1532     1.0  0.76715  0.47397  0.01927  1.0000
  H   H1533     1.0  0.86235  0.46848  0.17827  1.0000
  C   C874      1.0  0.92119  0.46364  0.05568  1.0000
  H   H1534     1.0  0.52428  0.06025  0.09997  1.0000
  H   H1535     1.0  0.92033  0.41949  0.07137  1.0000
  C   C875      1.0  0.52819  0.02744  0.14932  1.0000
  H   H1536     1.0  0.85511  0.45415  0.12627  1.0000
  H   H1537     1.0  0.98081  0.47713  0.15687  1.0000
  C   C876      1.0  0.77710  0.43804  0.00090  1.0000
  S   S195      1.0  0.92824  0.43541  0.15885  1.0000
  H   H1538     1.0  0.80083  0.45299  0.02599  1.0000
  H   H1539     1.0  0.52170  0.10851  0.12472  1.0000
  H   H1540     1.0  0.58909  0.00593  0.21704  1.0000
  H   H1541     1.0  0.54229  0.04273  0.06761  1.0000
  C   C877      1.0  0.49981  0.01327  0.21171  1.0000
  H   H1542     1.0  0.98350  0.38471  0.10433  1.0000
  H   H1543     1.0  0.57633  0.09639  0.22381  1.0000
  H   H1544     1.0  0.95875  0.45258  0.12727  1.0000
  Fe  Fe97      1.0  0.96040  0.42061  0.17034  1.0000
  H   H1545     1.0  0.81183  0.43984  0.14913  1.0000
  H   H1546     1.0  0.90451  0.45953  0.06055  1.0000
  S   S196      1.0  0.99104  0.47083  0.05321  1.0000
  C   C878      1.0  0.51708  0.26863  0.99090  1.0000
  H   H1547     1.0  0.52917  0.25540  0.03202  1.0000
  C   C879      1.0  0.53173  0.07437  0.13982  1.0000
  H   H1548     1.0  0.93192  0.35429  0.05585  1.0000
  H   H1549     1.0  0.93409  0.40255  0.10426  1.0000
  H   H1550     1.0  0.96276  0.36773  0.10777  1.0000
  H   H1551     1.0  0.85396  0.41603  0.01958  1.0000
  H   H1552     1.0  0.54427  0.03248  0.23093  1.0000
  H   H1553     1.0  0.92757  0.37285  0.09582  1.0000
  H   H1554     1.0  0.98899  0.39560  0.06897  1.0000
  N   N51       1.0  0.52261  0.24428  0.99239  1.0000
  H   H1555     1.0  0.74259  0.41479  0.01938  1.0000
  H   H1556     1.0  0.85006  0.44501  0.01808  1.0000
  C   C880      1.0  0.84135  0.45479  0.13920  1.0000
  Fe  Fe98      1.0  0.91770  0.40340  0.17535  1.0000
  C   C881      1.0  0.63193  0.42864  0.00440  1.0000
  S   S197      1.0  0.82613  0.47624  0.04624  1.0000
  H   H1557     1.0  0.54438  0.03225  0.14861  1.0000
  H   H1558     1.0  0.91574  0.38628  0.07186  1.0000
  C   C882      1.0  0.93002  0.37512  0.07827  1.0000
  H   H1559     1.0  0.93278  0.44652  0.08503  1.0000
  H   H1560     1.0  0.55220  0.23788  0.02190  1.0000
  C   C883      1.0  0.54351  0.02652  0.07892  1.0000
  C   C884      1.0  0.86733  0.48812  0.13583  1.0000
  H   H1561     1.0  0.59684  0.46394  0.03117  1.0000
  Fe  Fe99      1.0  0.93907  0.40064  0.21476  1.0000
  H   H1562     1.0  0.93717  0.47180  0.21678  1.0000
  C   C885      1.0  0.97329  0.46136  0.09483  1.0000
  H   H1563     1.0  0.50321  0.38238  0.01730  1.0000
  C   C886      1.0  0.53503  0.23856  0.02941  1.0000
  H   H1564     1.0  0.91135  0.47873  0.14398  1.0000
  H   H1565     1.0  0.81439  0.47876  0.14850  1.0000
  H   H1566     1.0  0.52432  0.48513  0.04077  1.0000
  H   H1567     1.0  0.62070  0.47633  0.01964  1.0000
  C   C887      1.0  0.60273  0.47872  0.02064  1.0000
  C   C888      1.0  0.51141  0.06531  0.13723  1.0000
  C   C889      1.0  0.52017  0.23282  0.01556  1.0000
  C   C890      1.0  0.58787  0.02353  0.21715  1.0000
  C   C891      1.0  0.59466  0.06321  0.22968  1.0000
  H   H1568     1.0  0.54617  0.04250  0.11169  1.0000
  H   H1569     1.0  0.59565  0.01702  0.17576  1.0000
  H   H1570     1.0  0.54072  0.48064  0.99465  1.0000
  C   C892      1.0  0.57603  0.03612  0.19773  1.0000
  C   C893      1.0  0.93677  0.42328  0.06427  1.0000
  S   S198      1.0  0.87573  0.48831  0.03212  1.0000
  H   H1571     1.0  0.84674  0.46445  0.21557  1.0000
  H   H1572     1.0  0.54142  0.01408  0.07045  1.0000
  C   C894      1.0  0.59054  0.03444  0.17679  1.0000
  C   C895      1.0  0.95137  0.40322  0.09722  1.0000
  C   C896      1.0  0.72911  0.48070  0.08333  1.0000
  H   H1573     1.0  0.60501  0.02667  0.21428  1.0000
  H   H1574     1.0  0.78361  0.42306  0.03393  1.0000
  S   S199      1.0  0.90514  0.41327  0.20652  1.0000
  H   H1575     1.0  0.75246  0.40307  0.04468  1.0000
  H   H1576     1.0  0.95187  0.38663  0.05059  1.0000
  C   C897      1.0  0.95142  0.38431  0.06806  1.0000
  H   H1577     1.0  0.62816  0.45737  0.10855  1.0000
  H   H1578     1.0  0.57770  0.48455  0.00106  1.0000
  C   C898      1.0  0.97664  0.41029  0.06437  1.0000
  H   H1579     1.0  0.56139  0.02877  0.19789  1.0000
  Fe  Fe100     1.0  0.50335  0.11015  0.02827  1.0000
  H   H1580     1.0  0.95519  0.41812  0.10093  1.0000
  H   H1581     1.0  0.75643  0.47817  0.99514  1.0000
  H   H1582     1.0  0.53526  0.42053  0.99531  1.0000
  C   C899      1.0  0.53465  0.22286  0.05122  1.0000
  N   N52       1.0  0.95403  0.40529  0.07348  1.0000
  H   H1583     1.0  0.75818  0.44145  0.03195  1.0000
  Fe  Fe101     1.0  0.51188  0.11845  0.22773  1.0000
  H   H1584     1.0  0.62295  0.43144  0.10566  1.0000
  H   H1585     1.0  0.86313  0.47518  0.98993  1.0000
  H   H1586     1.0  0.98084  0.42295  0.07142  1.0000
  C   C900      1.0  0.52437  0.14857  0.99190  1.0000
  H   H1587     1.0  0.76815  0.39615  0.02082  1.0000
  H   H1588     1.0  0.64760  0.43395  0.99874  1.0000
  H   H1589     1.0  0.51233  0.10138  0.15293  1.0000
  C   C901      1.0  0.59570  0.48229  0.99870  1.0000
  C   C902      1.0  0.52582  0.02699  0.09801  1.0000
  C   C903      1.0  0.59783  0.42115  0.99692  1.0000
  C   C904      1.0  0.98089  0.41807  0.03982  1.0000
  S   S200      1.0  0.65594  0.48356  0.05042  1.0000
  H   H1590     1.0  0.82540  0.48443  0.12148  1.0000
  S   S201      1.0  0.85312  0.48373  0.08196  1.0000
  H   H1591     1.0  0.59910  0.06367  0.21244  1.0000
  H   H1592     1.0  0.97582  0.40691  0.03163  1.0000
  C   C905      1.0  0.93616  0.48729  0.20535  1.0000
  H   H1593     1.0  0.50328  0.07758  0.12447  1.0000
  H   H1594     1.0  0.55996  0.02210  0.08413  1.0000
  H   H1595     1.0  0.81577  0.46854  0.00411  1.0000
  H   H1596     1.0  0.51299  0.41713  0.03829  1.0000
  C   C906      1.0  0.51798  0.42345  0.00260  1.0000
  H   H1597     1.0  0.55158  0.47306  0.03167  1.0000
  H   H1598     1.0  0.72057  0.47932  0.11688  1.0000
  H   H1599     1.0  0.98158  0.46353  0.19537  1.0000
  C   C907      1.0  0.99237  0.45982  0.08043  1.0000
  H   H1600     1.0  0.82399  0.48565  0.20882  1.0000
  H   H1601     1.0  0.75436  0.49114  0.12101  1.0000
  C   C908      1.0  0.99263  0.43861  0.12354  1.0000
  H   H1602     1.0  0.49988  0.06565  0.15210  1.0000
  C   C909      1.0  0.76462  0.49131  0.06819  1.0000
  N   N53       1.0  0.57690  0.02787  0.23839  1.0000
  H   H1603     1.0  0.85137  0.49221  0.20473  1.0000
  H   H1604     1.0  0.90927  0.49195  0.11637  1.0000
  H   H1605     1.0  0.55761  0.99479  0.17052  1.0000
  H   H1606     1.0  0.51812  0.99631  0.14806  1.0000
  H   H1607     1.0  0.49541  0.01977  0.12930  1.0000
  H   H1608     1.0  0.49510  0.14997  0.11214  1.0000
  H   H1609     1.0  0.60885  0.05458  0.23799  1.0000
  C   C910      1.0  0.61867  0.42683  0.98982  1.0000
  C   C911      1.0  0.99381  0.48121  0.16411  1.0000
  C   C912      1.0  0.57435  0.05184  0.23876  1.0000
  H   H1610     1.0  0.86391  0.17137  0.47273  1.0000
  S   S202      1.0  0.88769  0.23786  0.44356  1.0000
  H   H1611     1.0  0.82850  0.37586  0.48195  1.0000
  Fe  Fe102     1.0  0.89232  0.27183  0.44443  1.0000
  S   S203      1.0  0.91017  0.29189  0.41562  1.0000
  H   H1612     1.0  0.85439  0.01880  0.32808  1.0000
  H   H1613     1.0  0.69243  0.03573  0.27620  1.0000
  Fe  Fe103     1.0  0.83894  0.12009  0.43617  1.0000
  C   C913      1.0  0.96520  0.15659  0.44869  1.0000
  S   S204      1.0  0.81202  0.14865  0.43757  1.0000
  Fe  Fe104     1.0  0.86422  0.09490  0.40396  1.0000
  S   S205      1.0  0.87965  0.06814  0.42851  1.0000
  S   S206      1.0  0.87110  0.09478  0.36919  1.0000
  Fe  Fe105     1.0  0.84639  0.07015  0.44703  1.0000
  C   C914      1.0  0.93384  0.42357  0.25790  1.0000
  Fe  Fe106     1.0  0.88367  0.09495  0.44339  1.0000
  S   S207      1.0  0.91304  0.09087  0.46011  1.0000
  S   S208      1.0  0.83061  0.09500  0.42136  1.0000
  S   S209      1.0  0.87163  0.12201  0.41671  1.0000
  H   H1614     1.0  0.89808  0.36672  0.44397  1.0000
  H   H1615     1.0  0.55573  0.00298  0.47949  1.0000
  H   H1616     1.0  0.54039  0.08293  0.26107  1.0000
  H   H1617     1.0  0.98092  0.20004  0.38938  1.0000
  H   H1618     1.0  0.99044  0.46647  0.24311  1.0000
  H   H1619     1.0  0.92381  0.45499  0.26616  1.0000
  S   S210      1.0  0.56092  0.04855  0.47133  1.0000
  H   H1620     1.0  0.69356  0.13689  0.42141  1.0000
  Fe  Fe107     1.0  0.72632  0.04925  0.33293  1.0000
  S   S211      1.0  0.70630  0.05398  0.30621  1.0000
  Fe  Fe108     1.0  0.77032  0.05587  0.34258  1.0000
  S   S212      1.0  0.76199  0.04436  0.37785  1.0000
  S   S213      1.0  0.80092  0.06879  0.32528  1.0000
  Fe  Fe109     1.0  0.72922  0.06456  0.37244  1.0000
  S   S214      1.0  0.70971  0.08962  0.38979  1.0000
  S   S215      1.0  0.73863  0.07805  0.33790  1.0000
  H   H1621     1.0  0.84039  0.34800  0.35713  1.0000
  C   C915      1.0  0.95756  0.25283  0.42314  1.0000
  Fe  Fe110     1.0  0.74832  0.01815  0.36903  1.0000
  S   S216      1.0  0.96268  0.44980  0.35874  1.0000
  H   H1622     1.0  0.94693  0.18787  0.45213  1.0000
  H   H1623     1.0  0.82056  0.99682  0.36222  1.0000
  Fe  Fe111     1.0  0.56508  0.03858  0.34017  1.0000
  H   H1624     1.0  0.56434  0.15538  0.31913  1.0000
  S   S217      1.0  0.55268  0.07479  0.33536  1.0000
  H   H1625     1.0  0.97452  0.44702  0.45039  1.0000
  H   H1626     1.0  0.93294  0.35338  0.45807  1.0000
  H   H1627     1.0  0.59663  0.06125  0.28891  1.0000
  H   H1628     1.0  0.87119  0.32214  0.42668  1.0000
  S   S218      1.0  0.59473  0.02307  0.35651  1.0000
  S   S219      1.0  0.57386  0.02013  0.31417  1.0000
  S   S220      1.0  0.82380  0.23836  0.45631  1.0000
  S   S221      1.0  0.91066  0.44780  0.36215  1.0000
  H   H1629     1.0  0.74108  0.18308  0.41757  1.0000
  S   S222      1.0  0.94624  0.40350  0.35759  1.0000
  Fe  Fe112     1.0  0.94099  0.43881  0.34080  1.0000
  C   C916      1.0  0.92128  0.06589  0.38198  1.0000
  Fe  Fe113     1.0  0.91723  0.41315  0.38036  1.0000
  S   S223      1.0  0.88806  0.39542  0.39090  1.0000
  C   C917      1.0  0.92021  0.18022  0.38491  1.0000
  C   C918      1.0  0.80278  0.01805  0.48591  1.0000
  C   C919      1.0  0.86645  0.46141  0.41657  1.0000
  N   N54       1.0  0.86407  0.00799  0.35960  1.0000
  H   H1630     1.0  0.92654  0.42866  0.24331  1.0000
  H   H1631     1.0  0.54863  0.06108  0.29666  1.0000
  H   H1632     1.0  0.91482  0.18848  0.36920  1.0000
  C   C920      1.0  0.97923  0.34526  0.46518  1.0000
  C   C921      1.0  0.68632  0.03727  0.30924  1.0000
  C   C922      1.0  0.67366  0.03082  0.32882  1.0000
  C   C923      1.0  0.65715  0.01820  0.33031  1.0000
  H   H1633     1.0  0.94734  0.16532  0.41319  1.0000
  C   C924      1.0  0.96015  0.44930  0.44187  1.0000
  H   H1634     1.0  0.69519  0.14331  0.44640  1.0000
  C   C925      1.0  0.86837  0.44748  0.43900  1.0000
  S   S224      1.0  0.85892  0.28111  0.46117  1.0000
  H   H1635     1.0  0.81595  0.02204  0.42090  1.0000
  H   H1636     1.0  0.66472  0.01202  0.27923  1.0000
  C   C926      1.0  0.69889  0.07749  0.41538  1.0000
  C   C927      1.0  0.68068  0.08879  0.42571  1.0000
  C   C928      1.0  0.67236  0.07969  0.44658  1.0000
  C   C929      1.0  0.68249  0.05947  0.45724  1.0000
  C   C930      1.0  0.70056  0.04804  0.44680  1.0000
  C   C931      1.0  0.70862  0.05693  0.42574  1.0000
  H   H1637     1.0  0.67307  0.10464  0.41763  1.0000
  H   H1638     1.0  0.58631  0.08759  0.24935  1.0000
  H   H1639     1.0  0.98145  0.17172  0.39960  1.0000
  H   H1640     1.0  0.72262  0.04809  0.41770  1.0000
  C   C932      1.0  0.56311  0.03053  0.45438  1.0000
  C   C933      1.0  0.56859  0.03792  0.43243  1.0000
  C   C934      1.0  0.57097  0.02361  0.41864  1.0000
  H   H1641     1.0  0.72752  0.11109  0.42366  1.0000
  H   H1642     1.0  0.97484  0.22201  0.43744  1.0000
  H   H1643     1.0  0.82608  0.00765  0.31325  1.0000
  H   H1644     1.0  0.57098  0.05475  0.42615  1.0000
  H   H1645     1.0  0.57524  0.02936  0.40173  1.0000
  H   H1646     1.0  0.96680  0.29392  0.38557  1.0000
  H   H1647     1.0  0.64713  0.01347  0.34531  1.0000
  H   H1648     1.0  0.62235  0.02871  0.42009  1.0000
  S   S225      1.0  0.71455  0.03721  0.36727  1.0000
  H   H1649     1.0  0.66434  0.06585  0.38880  1.0000
  H   H1650     1.0  0.80670  0.00576  0.47641  1.0000
  H   H1651     1.0  0.91229  0.41386  0.48653  1.0000
  C   C935      1.0  0.85046  0.08823  0.35793  1.0000
  C   C936      1.0  0.85164  0.09295  0.33578  1.0000
  C   C937      1.0  0.83611  0.08715  0.32611  1.0000
  C   C938      1.0  0.81929  0.07648  0.33846  1.0000
  C   C939      1.0  0.81810  0.07157  0.36066  1.0000
  C   C940      1.0  0.83358  0.07763  0.37042  1.0000
  H   H1652     1.0  0.86471  0.10098  0.32603  1.0000
  H   H1653     1.0  0.83725  0.09079  0.30894  1.0000
  H   H1654     1.0  0.80559  0.06266  0.37025  1.0000
  H   H1655     1.0  0.83288  0.07336  0.38751  1.0000
  H   H1656     1.0  0.92725  0.36051  0.30697  1.0000
  N   N55       1.0  0.98441  0.05216  0.38444  1.0000
  Fe  Fe114     1.0  0.96518  0.41511  0.37780  1.0000
  H   H1657     1.0  0.66344  0.04513  0.42580  1.0000
  H   H1658     1.0  0.95956  0.40572  0.31058  1.0000
  C   C941      1.0  0.94124  0.43200  0.29007  1.0000
  H   H1659     1.0  0.93684  0.21967  0.42669  1.0000
  H   H1660     1.0  0.86745  0.37910  0.47334  1.0000
  H   H1661     1.0  0.54180  0.03755  0.26950  1.0000
  C   C942      1.0  0.93615  0.10028  0.44421  1.0000
  C   C943      1.0  0.95553  0.09708  0.45311  1.0000
  C   C944      1.0  0.93547  0.11094  0.42287  1.0000
  H   H1662     1.0  0.94932  0.19498  0.37827  1.0000
  H   H1663     1.0  0.92058  0.11342  0.41589  1.0000
  C   C945      1.0  0.82190  0.21355  0.44989  1.0000
  C   C946      1.0  0.71393  0.08275  0.48729  1.0000
  C   C947      1.0  0.79847  0.18857  0.44696  1.0000
  C   C948      1.0  0.81662  0.17365  0.44157  1.0000
  C   C949      1.0  0.83757  0.17889  0.43977  1.0000
  C   C950      1.0  0.84022  0.19891  0.44396  1.0000
  C   C951      1.0  0.62584  0.03355  0.45967  1.0000
  H   H1664     1.0  0.59166  0.16183  0.31300  1.0000
  H   H1665     1.0  0.85160  0.16753  0.43523  1.0000
  H   H1666     1.0  0.85632  0.20304  0.44264  1.0000
  H   H1667     1.0  0.90586  0.13835  0.47942  1.0000
  H   H1668     1.0  0.64787  0.01254  0.41600  1.0000
  C   C952      1.0  0.90373  0.32066  0.40990  1.0000
  C   C953      1.0  0.91927  0.33292  0.39718  1.0000
  C   C954      1.0  0.91478  0.35586  0.39192  1.0000
  C   C955      1.0  0.89429  0.36669  0.39850  1.0000
  C   C956      1.0  0.87853  0.35448  0.41100  1.0000
  C   C957      1.0  0.88336  0.33150  0.41701  1.0000
  H   H1669     1.0  0.93492  0.32459  0.39156  1.0000
  H   H1670     1.0  0.92710  0.36511  0.38253  1.0000
  H   H1671     1.0  0.86262  0.36277  0.41616  1.0000
  C   C958      1.0  0.80109  0.20840  0.45101  1.0000
  C   C959      1.0  0.94220  0.05235  0.38990  1.0000
  H   H1672     1.0  0.77896  0.02618  0.44793  1.0000
  C   C960      1.0  0.82595  0.38811  0.46688  1.0000
  C   C961      1.0  0.97428  0.10430  0.44069  1.0000
  C   C962      1.0  0.97342  0.11546  0.41953  1.0000
  H   H1673     1.0  0.91674  0.04154  0.34597  1.0000
  H   H1674     1.0  0.96180  0.48413  0.45848  1.0000
  H   H1675     1.0  0.96204  0.06660  0.36129  1.0000
  H   H1676     1.0  0.80659  0.02248  0.33035  1.0000
  C   C963      1.0  0.54173  0.02200  0.26483  1.0000
  H   H1677     1.0  0.91403  0.34434  0.33048  1.0000
  H   H1678     1.0  0.94608  0.28577  0.45573  1.0000
  H   H1679     1.0  0.94272  0.25271  0.43498  1.0000
  H   H1680     1.0  0.49661  0.99524  0.38098  1.0000
  C   C964      1.0  0.76728  0.05749  0.45669  1.0000
  C   C965      1.0  0.68272  0.03075  0.29137  1.0000
  H   H1681     1.0  0.49517  0.00018  0.41545  1.0000
  C   C966      1.0  0.98384  0.04038  0.40747  1.0000
  H   H1682     1.0  0.67625  0.03608  0.34259  1.0000
  H   H1683     1.0  0.63611  0.04664  0.45690  1.0000
  H   H1684     1.0  0.73172  0.01577  0.29231  1.0000
  C   C967      1.0  0.95214  0.41062  0.29606  1.0000
  C   C968      1.0  0.89508  0.00915  0.41828  1.0000
  C   C969      1.0  0.49699  0.11201  0.35033  1.0000
  C   C970      1.0  0.71912  0.11599  0.43854  1.0000
  C   C971      1.0  0.54443  0.11221  0.30532  1.0000
  H   H1685     1.0  0.90740  0.05677  0.38847  1.0000
  S   S226      1.0  0.85133  0.09503  0.46406  1.0000
  N   N56       1.0  0.88757  0.38656  0.32222  1.0000
  C   C972      1.0  0.87604  0.40652  0.33033  1.0000
  C   C973      1.0  0.87372  0.36862  0.33027  1.0000
  C   C974      1.0  0.90950  0.37976  0.33010  1.0000
  C   C975      1.0  0.89104  0.39132  0.29821  1.0000
  C   C976      1.0  0.88684  0.42746  0.32191  1.0000
  C   C977      1.0  0.70494  0.13819  0.43213  1.0000
  C   C978      1.0  0.87223  0.44720  0.32885  1.0000
  H   H1686     1.0  0.58388  0.01910  0.27087  1.0000
  H   H1687     1.0  0.87495  0.40315  0.34795  1.0000
  H   H1688     1.0  0.85882  0.41050  0.32700  1.0000
  H   H1689     1.0  0.85683  0.37475  0.32635  1.0000
  H   H1690     1.0  0.87978  0.35492  0.32193  1.0000
  H   H1691     1.0  0.90784  0.37821  0.34761  1.0000
  H   H1692     1.0  0.91974  0.39278  0.32335  1.0000
  H   H1693     1.0  0.90391  0.40182  0.29179  1.0000
  H   H1694     1.0  0.89746  0.37598  0.29247  1.0000
  H   H1695     1.0  0.90248  0.42518  0.32838  1.0000
  H   H1696     1.0  0.89014  0.43166  0.30432  1.0000
  C   C979      1.0  0.87129  0.15491  0.48104  1.0000
  H   H1697     1.0  0.96107  0.33229  0.40847  1.0000
  H   H1698     1.0  0.85683  0.45103  0.32165  1.0000
  H   H1699     1.0  0.86837  0.44395  0.34646  1.0000
  H   H1700     1.0  0.88079  0.46168  0.32348  1.0000
  C   C980      1.0  0.98739  0.29535  0.35502  1.0000
  Fe  Fe115     1.0  0.55502  0.99508  0.33586  1.0000
  H   H1701     1.0  0.97513  0.33852  0.45251  1.0000
  H   H1702     1.0  0.87932  0.41887  0.42512  1.0000
  H   H1703     1.0  0.98342  0.23586  0.47177  1.0000
  H   H1704     1.0  0.98004  0.14939  0.43957  1.0000
  C   C981      1.0  0.93217  0.36459  0.44219  1.0000
  H   H1705     1.0  0.86150  0.41329  0.25503  1.0000
  C   C982      1.0  0.54764  0.08932  0.30961  1.0000
  H   H1706     1.0  0.51496  0.13203  0.36125  1.0000
  C   C983      1.0  0.97682  0.46997  0.25562  1.0000
  Fe  Fe116     1.0  0.93268  0.45568  0.38171  1.0000
  H   H1707     1.0  0.98503  0.29484  0.33875  1.0000
  H   H1708     1.0  0.89804  0.02156  0.32829  1.0000
  H   H1709     1.0  0.95841  0.03232  0.44758  1.0000
  S   S227      1.0  0.49861  0.08733  0.24256  1.0000
  C   C984      1.0  0.96197  0.18198  0.44229  1.0000
  S   S228      1.0  0.75904  0.02805  0.33406  1.0000
  C   C985      1.0  0.51791  0.01994  0.26517  1.0000
  H   H1710     1.0  0.60731  0.01933  0.25182  1.0000
  H   H1711     1.0  0.98712  0.02903  0.45031  1.0000
  C   C986      1.0  0.96221  0.06366  0.37877  1.0000
  H   H1712     1.0  0.70827  0.03232  0.45487  1.0000
  H   H1713     1.0  0.53896  0.14214  0.28162  1.0000
  H   H1714     1.0  0.96109  0.30756  0.45407  1.0000
  C   C987      1.0  0.94450  0.40211  0.26395  1.0000
  H   H1715     1.0  0.67002  0.03702  0.38969  1.0000
  H   H1716     1.0  0.87146  0.00381  0.45686  1.0000
  H   H1717     1.0  0.54461  0.12060  0.31776  1.0000
  C   C988      1.0  0.88827  0.03513  0.33519  1.0000
  H   H1718     1.0  0.83767  0.41321  0.47622  1.0000
  C   C989      1.0  0.97677  0.05503  0.42394  1.0000
  C   C990      1.0  0.66703  0.01737  0.29307  1.0000
  H   H1719     1.0  0.98920  0.10184  0.44766  1.0000
  C   C991      1.0  0.77077  0.09961  0.46600  1.0000
  H   H1720     1.0  0.96213  0.37913  0.28763  1.0000
  C   C992      1.0  0.54175  0.09104  0.27338  1.0000
  H   H1721     1.0  0.50467  0.02975  0.34241  1.0000
  H   H1722     1.0  0.94112  0.34866  0.35164  1.0000
  Fe  Fe117     1.0  0.89995  0.22769  0.47532  1.0000
  N   N57       1.0  0.79141  0.14857  0.36779  1.0000
  C   C993      1.0  0.77602  0.15817  0.35130  1.0000
  C   C994      1.0  0.78594  0.16047  0.38589  1.0000
  C   C995      1.0  0.81410  0.15195  0.35705  1.0000
  C   C996      1.0  0.79152  0.12432  0.37602  1.0000
  C   C997      1.0  0.76943  0.11713  0.38668  1.0000
  C   C998      1.0  0.77945  0.14698  0.33212  1.0000
  C   C999      1.0  0.83224  0.14643  0.37180  1.0000
  C   C1000     1.0  0.76155  0.16867  0.39267  1.0000
  C   C1001     1.0  0.75854  0.17679  0.41329  1.0000
  C   C1002     1.0  0.77027  0.09265  0.38884  1.0000
  C   C1003     1.0  0.76267  0.15782  0.31686  1.0000
  C   C1004     1.0  0.85394  0.15192  0.35912  1.0000
  H   H1723     1.0  0.77711  0.17589  0.34494  1.0000
  H   H1724     1.0  0.75880  0.15778  0.35834  1.0000
  H   H1725     1.0  0.79288  0.14999  0.40025  1.0000
  H   H1726     1.0  0.79381  0.17548  0.38182  1.0000
  H   H1727     1.0  0.81403  0.16931  0.34820  1.0000
  H   H1728     1.0  0.81978  0.14171  0.34501  1.0000
  H   H1729     1.0  0.79831  0.11541  0.36311  1.0000
  H   H1730     1.0  0.80284  0.11766  0.38815  1.0000
  H   H1731     1.0  0.75584  0.12550  0.37748  1.0000
  H   H1732     1.0  0.76570  0.12043  0.40292  1.0000
  H   H1733     1.0  0.79580  0.14815  0.32289  1.0000
  H   H1734     1.0  0.77755  0.12944  0.33749  1.0000
  H   H1735     1.0  0.83469  0.12876  0.37937  1.0000
  H   H1736     1.0  0.82836  0.15577  0.38458  1.0000
  H   H1737     1.0  0.75531  0.18266  0.38018  1.0000
  H   H1738     1.0  0.75126  0.15581  0.39520  1.0000
  H   H1739     1.0  0.76395  0.16325  0.42653  1.0000
  H   H1740     1.0  0.76811  0.19025  0.41133  1.0000
  H   H1741     1.0  0.78377  0.08307  0.39777  1.0000
  H   H1742     1.0  0.75469  0.08758  0.39742  1.0000
  H   H1743     1.0  0.77250  0.08898  0.37279  1.0000
  H   H1744     1.0  0.74590  0.15633  0.32504  1.0000
  H   H1745     1.0  0.76407  0.17540  0.31048  1.0000
  H   H1746     1.0  0.76555  0.14954  0.30330  1.0000
  H   H1747     1.0  0.85270  0.16976  0.35209  1.0000
  H   H1748     1.0  0.86681  0.14720  0.36979  1.0000
  H   H1749     1.0  0.85890  0.14272  0.34623  1.0000
  H   H1750     1.0  0.95274  0.26189  0.40746  1.0000
  C   C1005     1.0  0.83112  0.99866  0.34668  1.0000
  H   H1751     1.0  0.96198  0.06705  0.42033  1.0000
  H   H1752     1.0  0.94001  0.05076  0.40737  1.0000
  C   C1006     1.0  0.84674  0.01523  0.34495  1.0000
  H   H1753     1.0  0.50406  0.08196  0.32919  1.0000
  C   C1007     1.0  0.83659  0.01817  0.39146  1.0000
  H   H1754     1.0  0.99228  0.08201  0.38968  1.0000
  C   C1008     1.0  0.90453  0.39263  0.45818  1.0000
  H   H1755     1.0  0.85683  0.47776  0.41743  1.0000
  H   H1756     1.0  0.90800  0.48276  0.48054  1.0000
  C   C1009     1.0  0.82795  0.00917  0.41466  1.0000
  H   H1757     1.0  0.65831  0.08847  0.45461  1.0000
  H   H1758     1.0  0.97939  0.45753  0.27055  1.0000
  H   H1759     1.0  0.89061  0.13747  0.44639  1.0000
  H   H1760     1.0  0.92715  0.46548  0.44268  1.0000
  H   H1761     1.0  0.85792  0.39128  0.29170  1.0000
  C   C1010     1.0  0.53946  0.11392  0.26895  1.0000
  H   H1762     1.0  0.95608  0.08892  0.46965  1.0000
  H   H1763     1.0  0.94504  0.37514  0.43873  1.0000
  H   H1764     1.0  0.80623  0.11307  0.47540  1.0000
  H   H1765     1.0  0.78422  0.06077  0.45497  1.0000
  H   H1766     1.0  0.88977  0.16689  0.43818  1.0000
  H   H1767     1.0  0.82254  0.02300  0.38226  1.0000
  H   H1768     1.0  0.63721  0.06029  0.42059  1.0000
  C   C1011     1.0  0.76742  0.04136  0.44277  1.0000
  C   C1012     1.0  0.97645  0.22194  0.48168  1.0000
  H   H1769     1.0  0.91113  0.99495  0.35853  1.0000
  H   H1770     1.0  0.89488  0.06462  0.34247  1.0000
  H   H1771     1.0  0.98991  0.06430  0.42403  1.0000
  H   H1772     1.0  0.98134  0.33039  0.35197  1.0000
  H   H1773     1.0  0.62096  0.04211  0.28428  1.0000
  H   H1774     1.0  0.91819  0.40218  0.45546  1.0000
  C   C1013     1.0  0.97666  0.36104  0.39967  1.0000
  H   H1775     1.0  0.64353  0.05208  0.38430  1.0000
  H   H1776     1.0  0.95549  0.43300  0.44334  1.0000
  C   C1014     1.0  0.49773  0.13038  0.36131  1.0000
  H   H1777     1.0  0.88282  0.46374  0.40780  1.0000
  N   N58       1.0  0.62107  0.09470  0.32466  1.0000
  C   C1015     1.0  0.61353  0.11896  0.32266  1.0000
  C   C1016     1.0  0.64555  0.09012  0.32409  1.0000
  C   C1017     1.0  0.61577  0.08868  0.30530  1.0000
  C   C1018     1.0  0.61015  0.08080  0.34442  1.0000
  C   C1019     1.0  0.60240  0.09096  0.36427  1.0000
  C   C1020     1.0  0.58955  0.12710  0.31849  1.0000
  C   C1021     1.0  0.62442  0.06480  0.30299  1.0000
  C   C1022     1.0  0.65495  0.09767  0.34101  1.0000
  C   C1023     1.0  0.67978  0.09236  0.33853  1.0000
  C   C1024     1.0  0.59259  0.07452  0.38295  1.0000
  C   C1025     1.0  0.58130  0.14988  0.32298  1.0000
  C   C1026     1.0  0.61468  0.05935  0.28540  1.0000
  H   H1778     1.0  0.62385  0.12839  0.30932  1.0000
  H   H1779     1.0  0.61579  0.12418  0.33704  1.0000
  H   H1780     1.0  0.65153  0.07229  0.32623  1.0000
  H   H1781     1.0  0.65351  0.09780  0.30814  1.0000
  H   H1782     1.0  0.62212  0.09978  0.29043  1.0000
  H   H1783     1.0  0.59779  0.09097  0.30539  1.0000
  H   H1784     1.0  0.59538  0.07594  0.34090  1.0000
  H   H1785     1.0  0.62095  0.06497  0.34945  1.0000
  H   H1786     1.0  0.58948  0.10532  0.36099  1.0000
  H   H1787     1.0  0.61575  0.09646  0.36952  1.0000
  H   H1788     1.0  0.58812  0.12812  0.30154  1.0000
  H   H1789     1.0  0.57876  0.11567  0.32850  1.0000
  H   H1790     1.0  0.62031  0.05290  0.31799  1.0000
  H   H1791     1.0  0.64236  0.06252  0.29866  1.0000
  H   H1792     1.0  0.65063  0.11560  0.33968  1.0000
  H   H1793     1.0  0.64912  0.08894  0.35714  1.0000
  H   H1794     1.0  0.68504  0.07438  0.34161  1.0000
  H   H1795     1.0  0.68699  0.09989  0.32229  1.0000
  H   H1796     1.0  0.68613  0.09877  0.35024  1.0000
  H   H1797     1.0  0.60457  0.05950  0.38726  1.0000
  H   H1798     1.0  0.58760  0.08203  0.39701  1.0000
  H   H1799     1.0  0.57795  0.06989  0.37888  1.0000
  H   H1800     1.0  0.61055  0.04151  0.45267  1.0000
  S   S229      1.0  0.54416  0.01497  0.36078  1.0000
  C   C1027     1.0  0.65401  0.01131  0.31242  1.0000
  H   H1801     1.0  0.50553  0.11611  0.33403  1.0000
  C   C1028     1.0  0.94550  0.30139  0.46061  1.0000
  H   H1802     1.0  0.61933  0.07023  0.26984  1.0000
  H   H1803     1.0  0.88342  0.39045  0.25778  1.0000
  H   H1804     1.0  0.99095  0.36306  0.35327  1.0000
  H   H1805     1.0  0.96744  0.26974  0.48556  1.0000
  H   H1806     1.0  0.86710  0.38745  0.44521  1.0000
  H   H1807     1.0  0.75431  0.99934  0.30514  1.0000
  H   H1808     1.0  0.70826  0.10391  0.44654  1.0000
  H   H1809     1.0  0.95340  0.12735  0.39423  1.0000
  C   C1029     1.0  0.94219  0.18305  0.41302  1.0000
  C   C1030     1.0  0.81634  0.00633  0.32921  1.0000
  H   H1810     1.0  0.85814  0.45339  0.40758  1.0000
  H   H1811     1.0  0.98007  0.15490  0.47697  1.0000
  H   H1812     1.0  0.88834  0.41762  0.25722  1.0000
  C   C1031     1.0  0.77114  0.11993  0.47513  1.0000
  C   C1032     1.0  0.95366  0.39564  0.28306  1.0000
  N   N59       1.0  0.88278  0.40758  0.45854  1.0000
  C   C1033     1.0  0.90971  0.37844  0.44132  1.0000
  C   C1034     1.0  0.94716  0.48698  0.45008  1.0000
  Fe  Fe118     1.0  0.85525  0.24627  0.46227  1.0000
  H   H1813     1.0  0.84350  0.03296  0.39121  1.0000
  H   H1814     1.0  0.86467  0.37149  0.36379  1.0000
  H   H1815     1.0  0.96455  0.45645  0.42471  1.0000
  H   H1816     1.0  0.96359  0.48746  0.29214  1.0000
  C   C1035     1.0  0.54637  0.07870  0.29356  1.0000
  H   H1817     1.0  0.94311  0.49177  0.27551  1.0000
  C   C1036     1.0  0.61945  0.02724  0.48409  1.0000
  H   H1818     1.0  0.95019  0.22460  0.40009  1.0000
  N   N60       1.0  0.63748  0.01532  0.44884  1.0000
  H   H1819     1.0  0.71918  0.00267  0.33018  1.0000
  C   C1037     1.0  0.97237  0.04108  0.44634  1.0000
  H   H1820     1.0  0.83667  0.03098  0.34736  1.0000
  C   C1038     1.0  0.56791  0.00183  0.42684  1.0000
  H   H1821     1.0  0.74754  0.12752  0.44179  1.0000
  H   H1822     1.0  0.87639  0.04438  0.32417  1.0000
  H   H1823     1.0  0.86389  0.32747  0.35270  1.0000
  H   H1824     1.0  0.90554  0.17866  0.39695  1.0000
  H   H1825     1.0  0.85627  0.33421  0.37841  1.0000
  H   H1826     1.0  0.88786  0.35095  0.35971  1.0000
  H   H1827     1.0  0.96483  0.35645  0.47069  1.0000
  H   H1828     1.0  0.94360  0.03577  0.38700  1.0000
  H   H1829     1.0  0.71349  0.06977  0.47886  1.0000
  C   C1039     1.0  0.94166  0.29795  0.48485  1.0000
  H   H1830     1.0  0.65801  0.99418  0.47156  1.0000
  C   C1040     1.0  0.87601  0.02690  0.35759  1.0000
  C   C1041     1.0  0.73833  0.99895  0.30039  1.0000
  H   H1831     1.0  0.87875  0.01948  0.41813  1.0000
  H   H1832     1.0  0.82855  0.16014  0.48366  1.0000
  C   C1042     1.0  0.64938  0.04598  0.41737  1.0000
  H   H1833     1.0  0.98321  0.33150  0.47872  1.0000
  H   H1834     1.0  0.90429  0.43824  0.46705  1.0000
  S   S230      1.0  0.93883  0.45122  0.30588  1.0000
  C   C1043     1.0  0.97597  0.49301  0.25898  1.0000
  C   C1044     1.0  0.65719  0.05045  0.39354  1.0000
  S   S231      1.0  0.94587  0.38317  0.24804  1.0000
  C   C1045     1.0  0.98279  0.01635  0.37235  1.0000
  H   H1835     1.0  0.67443  0.00413  0.37098  1.0000
  H   H1836     1.0  0.90522  0.02466  0.47365  1.0000
  H   H1837     1.0  0.88747  0.02291  0.36970  1.0000
  H   H1838     1.0  0.90650  0.01711  0.40513  1.0000
  C   C1046     1.0  0.92301  0.35844  0.32445  1.0000
  H   H1839     1.0  0.66585  0.01996  0.46093  1.0000
  H   H1840     1.0  0.95870  0.08028  0.38244  1.0000
  H   H1841     1.0  0.49845  0.03150  0.38291  1.0000
  H   H1842     1.0  0.86446  0.04137  0.36126  1.0000
  S   S232      1.0  0.93666  0.42172  0.40216  1.0000
  C   C1047     1.0  0.87637  0.40605  0.26281  1.0000
  H   H1843     1.0  0.75831  0.08647  0.43340  1.0000
  H   H1844     1.0  0.86362  0.41813  0.29092  1.0000
  C   C1048     1.0  0.87062  0.40205  0.28699  1.0000
  C   C1049     1.0  0.87177  0.35874  0.35461  1.0000
  H   H1845     1.0  0.92731  0.18437  0.42490  1.0000
  C   C1050     1.0  0.95403  0.11877  0.41063  1.0000
  H   H1846     1.0  0.92551  0.21026  0.39062  1.0000
  C   C1051     1.0  0.75165  0.07907  0.44986  1.0000
  H   H1847     1.0  0.73586  0.07447  0.44872  1.0000
  S   S233      1.0  0.92138  0.48553  0.39581  1.0000
  Fe  Fe119     1.0  0.60180  0.00239  0.33217  1.0000
  C   C1052     1.0  0.85714  0.34105  0.36098  1.0000
  H   H1848     1.0  0.75100  0.03678  0.44437  1.0000
  H   H1849     1.0  0.77267  0.04852  0.42581  1.0000
  C   C1053     1.0  0.63895  0.02472  0.42516  1.0000
  C   C1054     1.0  0.88318  0.42517  0.43829  1.0000
  C   C1055     1.0  0.54097  0.12445  0.28493  1.0000
  H   H1850     1.0  0.95114  0.15010  0.44589  1.0000
  C   C1056     1.0  0.95287  0.21655  0.41674  1.0000
  C   C1057     1.0  0.93502  0.19367  0.39075  1.0000
  H   H1851     1.0  0.93678  0.45566  0.46826  1.0000
  H   H1852     1.0  0.92906  0.16362  0.38385  1.0000
  C   C1058     1.0  0.93220  0.43845  0.27093  1.0000
  C   C1059     1.0  0.96563  0.29300  0.36905  1.0000
  H   H1853     1.0  0.89987  0.42933  0.43295  1.0000
  C   C1060     1.0  0.98082  0.18737  0.40450  1.0000
  H   H1854     1.0  0.97296  0.02782  0.41151  1.0000
  H   H1855     1.0  0.86444  0.42903  0.47888  1.0000
  C   C1061     1.0  0.49564  0.03415  0.39935  1.0000
  H   H1856     1.0  0.96101  0.27694  0.36945  1.0000
  C   C1062     1.0  0.97623  0.33851  0.40644  1.0000
  C   C1063     1.0  0.96873  0.22962  0.42205  1.0000
  C   C1064     1.0  0.84139  0.40494  0.46269  1.0000
  H   H1857     1.0  0.85174  0.44567  0.44705  1.0000
  Fe  Fe120     1.0  0.57426  0.99771  0.37491  1.0000
  H   H1858     1.0  0.92274  0.06951  0.36436  1.0000
  S   S234      1.0  0.83487  0.03775  0.45928  1.0000
  H   H1859     1.0  0.70455  0.99549  0.45907  1.0000
  H   H1860     1.0  0.87547  0.45679  0.44774  1.0000
  H   H1861     1.0  0.96883  0.26162  0.42787  1.0000
  H   H1862     1.0  0.90937  0.38910  0.42530  1.0000
  H   H1863     1.0  0.91759  0.08163  0.38729  1.0000
  H   H1864     1.0  0.95132  0.15331  0.48193  1.0000
  C   C1065     1.0  0.89786  0.15150  0.44777  1.0000
  C   C1066     1.0  0.86540  0.39374  0.45995  1.0000
  H   H1865     1.0  0.91531  0.14886  0.44128  1.0000
  H   H1866     1.0  0.93199  0.31336  0.45357  1.0000
  H   H1867     1.0  0.84137  0.00415  0.42474  1.0000
  C   C1067     1.0  0.51777  0.03426  0.40587  1.0000
  H   H1868     1.0  0.68402  0.01133  0.42812  1.0000
  C   C1068     1.0  0.90385  0.05044  0.33596  1.0000
  C   C1069     1.0  0.87932  0.41663  0.47836  1.0000
  H   H1869     1.0  0.96176  0.37219  0.39660  1.0000
  S   S235      1.0  0.53526  0.12976  0.24354  1.0000
  H   H1870     1.0  0.50921  0.01886  0.28153  1.0000
  H   H1871     1.0  0.86713  0.99676  0.39299  1.0000
  H   H1872     1.0  0.94641  0.23068  0.46807  1.0000
  H   H1873     1.0  0.52179  0.04574  0.32181  1.0000
  H   H1874     1.0  0.52627  0.04676  0.39415  1.0000
  C   C1070     1.0  0.55987  0.00881  0.46255  1.0000
  H   H1875     1.0  0.95409  0.36602  0.32862  1.0000
  C   C1071     1.0  0.94434  0.35244  0.33402  1.0000
  H   H1876     1.0  0.54887  0.00831  0.27701  1.0000
  N   N61       1.0  0.74855  0.09567  0.46353  1.0000
  C   C1072     1.0  0.55455  0.02137  0.24248  1.0000
  H   H1877     1.0  0.78143  0.10163  0.45040  1.0000
  H   H1878     1.0  0.80879  0.39648  0.46830  1.0000
  H   H1879     1.0  0.51679  0.00503  0.25978  1.0000
  S   S236      1.0  0.90785  0.26055  0.47447  1.0000
  H   H1880     1.0  0.60714  0.00396  0.44950  1.0000
  H   H1881     1.0  0.97799  0.00805  0.38894  1.0000
  C   C1073     1.0  0.90352  0.00634  0.43946  1.0000
  H   H1882     1.0  0.97073  0.13014  0.47621  1.0000
  H   H1883     1.0  0.97534  0.18729  0.44780  1.0000
  H   H1884     1.0  0.90584  0.38125  0.47380  1.0000
  H   H1885     1.0  0.95391  0.33772  0.32881  1.0000
  H   H1886     1.0  0.55513  0.00481  0.23943  1.0000
  H   H1887     1.0  0.78689  0.21969  0.45544  1.0000
  H   H1888     1.0  0.71517  0.15081  0.42354  1.0000
  H   H1889     1.0  0.96811  0.48599  0.38789  1.0000
  H   H1890     1.0  0.90482  0.02291  0.44106  1.0000
  C   C1074     1.0  0.85423  0.00105  0.38245  1.0000
  H   H1891     1.0  0.95257  0.30607  0.36269  1.0000
  H   H1892     1.0  0.88316  0.31200  0.48613  1.0000
  H   H1893     1.0  0.96836  0.05165  0.45809  1.0000
  H   H1894     1.0  0.96143  0.46859  0.25030  1.0000
  C   C1075     1.0  0.94106  0.46411  0.45149  1.0000
  H   H1895     1.0  0.56983  0.05407  0.25537  1.0000
  C   C1076     1.0  0.73611  0.11718  0.45275  1.0000
  C   C1077     1.0  0.95551  0.21908  0.47960  1.0000
  H   H1896     1.0  0.83765  0.41690  0.44781  1.0000
  H   H1897     1.0  0.91173  0.05674  0.31964  1.0000
  H   H1898     1.0  0.89603  0.34675  0.48400  1.0000
  H   H1899     1.0  0.93508  0.35444  0.43013  1.0000
  H   H1900     1.0  0.58131  0.14955  0.34004  1.0000
  H   H1901     1.0  0.98283  0.23106  0.40932  1.0000
  H   H1902     1.0  0.50527  0.02891  0.31509  1.0000
  H   H1903     1.0  0.81967  0.99492  0.41606  1.0000
  H   H1904     1.0  0.50969  0.03446  0.25452  1.0000
  H   H1905     1.0  0.72785  0.12680  0.46478  1.0000
  H   H1906     1.0  0.92010  0.99671  0.43849  1.0000
  C   C1078     1.0  0.65955  0.00686  0.45649  1.0000
  C   C1079     1.0  0.59066  0.01484  0.25534  1.0000
  H   H1907     1.0  0.77134  0.13472  0.46197  1.0000
  C   C1080     1.0  0.67818  0.99767  0.44058  1.0000
  H   H1908     1.0  0.51582  0.03820  0.42180  1.0000
  H   H1909     1.0  0.78226  0.18466  0.44840  1.0000
  H   H1910     1.0  0.96810  0.02198  0.36402  1.0000
  H   H1911     1.0  0.86361  0.14292  0.47604  1.0000
  S   S237      1.0  0.67219  0.04878  0.48353  1.0000
  C   C1081     1.0  0.96699  0.14831  0.47240  1.0000
  C   C1082     1.0  0.50594  0.03967  0.32589  1.0000
  N   N62       1.0  0.96008  0.19218  0.41911  1.0000
  H   H1912     1.0  0.82864  0.37947  0.45358  1.0000
  C   C1083     1.0  0.62358  0.99737  0.45453  1.0000
  S   S238      1.0  0.63467  0.99437  0.31373  1.0000
  H   H1913     1.0  0.49901  0.10651  0.29955  1.0000
  C   C1084     1.0  0.89847  0.42692  0.48182  1.0000
  H   H1914     1.0  0.77910  0.08497  0.47644  1.0000
  H   H1915     1.0  0.80501  0.99445  0.33103  1.0000
  H   H1916     1.0  0.87664  0.02651  0.47808  1.0000
  C   C1085     1.0  0.89186  0.01623  0.48360  1.0000
  C   C1086     1.0  0.81454  0.03554  0.48125  1.0000
  H   H1917     1.0  0.68676  0.99969  0.39479  1.0000
  H   H1918     1.0  0.98934  0.08752  0.34934  1.0000
  H   H1919     1.0  0.50647  0.09682  0.35892  1.0000
  H   H1920     1.0  0.98688  0.38064  0.47632  1.0000
  H   H1921     1.0  0.76241  0.04940  0.47336  1.0000
  C   C1087     1.0  0.88825  0.99477  0.45832  1.0000
  H   H1922     1.0  0.52815  0.01802  0.40638  1.0000
  C   C1088     1.0  0.89558  0.15286  0.47103  1.0000
  H   H1923     1.0  0.90234  0.16759  0.47140  1.0000
  C   C1089     1.0  0.56222  0.99451  0.44878  1.0000
  C   C1090     1.0  0.73742  0.08724  0.48558  1.0000
  H   H1924     1.0  0.70300  0.09787  0.48090  1.0000
  C   C1091     1.0  0.92066  0.49253  0.48113  1.0000
  N   N63       1.0  0.89400  0.99330  0.48014  1.0000
  H   H1925     1.0  0.59896  0.05910  0.48418  1.0000
  C   C1092     1.0  0.79127  0.11709  0.48622  1.0000
  H   H1926     1.0  0.93373  0.48050  0.48899  1.0000
  H   H1927     1.0  0.98278  0.01246  0.48801  1.0000
  H   H1928     1.0  0.75672  0.12349  0.48670  1.0000
  H   H1929     1.0  0.60575  0.01772  0.48788  1.0000
  S   S239      1.0  0.92119  0.19639  0.48822  1.0000
  C   C1093     1.0  0.97200  0.38592  0.65349  1.0000
  C   C1094     1.0  0.55319  0.03714  0.63004  1.0000
  H   H1930     1.0  0.90797  0.00914  0.51247  1.0000
  C   C1095     1.0  0.61806  0.99553  0.59126  1.0000
  H   H1931     1.0  0.87510  0.05160  0.50263  1.0000
  C   C1096     1.0  0.96661  0.47825  0.51261  1.0000
  H   H1932     1.0  0.51795  0.06929  0.59625  1.0000
  C   C1097     1.0  0.62100  0.00792  0.55299  1.0000
  Fe  Fe121     1.0  0.73356  0.01359  0.52580  1.0000
  H   H1933     1.0  0.97861  0.34565  0.61619  1.0000
  S   S240      1.0  0.75671  0.03248  0.53359  1.0000
  S   S241      1.0  0.53261  0.00855  0.56454  1.0000
  Fe  Fe122     1.0  0.95599  0.41446  0.73655  1.0000
  H   H1934     1.0  0.95704  0.30393  0.56499  1.0000
  H   H1935     1.0  0.93673  0.29149  0.58468  1.0000
  C   C1098     1.0  0.94154  0.49174  0.68713  1.0000
  H   H1936     1.0  0.96699  0.49215  0.60097  1.0000
  S   S242      1.0  0.90294  0.36774  0.51593  1.0000
  H   H1937     1.0  0.53965  0.07886  0.63366  1.0000
  H   H1938     1.0  0.97686  0.42867  0.58546  1.0000
  C   C1099     1.0  0.94959  0.39196  0.65875  1.0000
  C   C1100     1.0  0.96298  0.45667  0.52167  1.0000
  H   H1939     1.0  0.50905  0.03044  0.59980  1.0000
  C   C1101     1.0  0.92295  0.45422  0.64012  1.0000
  H   H1940     1.0  0.87103  0.43322  0.73257  1.0000
  C   C1102     1.0  0.94493  0.46804  0.55389  1.0000
  C   C1103     1.0  0.95253  0.45162  0.54247  1.0000
  H   H1941     1.0  0.54297  0.09337  0.59877  1.0000
  H   H1942     1.0  0.90957  0.46604  0.64629  1.0000
  H   H1943     1.0  0.93646  0.46394  0.56985  1.0000
  H   H1944     1.0  0.95003  0.43506  0.54987  1.0000
  S   S243      1.0  0.97332  0.38881  0.55782  1.0000
  H   H1945     1.0  0.79081  0.17159  0.49752  1.0000
  S   S244      1.0  0.69741  0.02069  0.53479  1.0000
  N   N64       1.0  0.86628  0.15280  0.50487  1.0000
  C   C1104     1.0  0.64210  0.99591  0.55111  1.0000
  C   C1105     1.0  0.94786  0.48970  0.54473  1.0000
  C   C1106     1.0  0.55234  0.01688  0.64878  1.0000
  H   H1946     1.0  0.53971  0.04817  0.59173  1.0000
  H   H1947     1.0  0.60893  0.99553  0.60681  1.0000
  C   C1107     1.0  0.55400  0.08426  0.56899  1.0000
  H   H1948     1.0  0.94298  0.39284  0.67495  1.0000
  H   H1949     1.0  0.87876  0.01141  0.51773  1.0000
  H   H1950     1.0  0.56592  0.07146  0.59921  1.0000
  C   C1108     1.0  0.93552  0.39590  0.64321  1.0000
  C   C1109     1.0  0.89184  0.43940  0.49968  1.0000
  H   H1951     1.0  0.93588  0.47986  0.61631  1.0000
  H   H1952     1.0  0.93635  0.46383  0.71265  1.0000
  C   C1110     1.0  0.87985  0.16136  0.53695  1.0000
  H   H1953     1.0  0.99194  0.44946  0.56917  1.0000
  H   H1954     1.0  0.79058  0.10377  0.50078  1.0000
  H   H1955     1.0  0.78814  0.06200  0.51995  1.0000
  H   H1956     1.0  0.92696  0.27367  0.55893  1.0000
  C   C1111     1.0  0.88139  0.30219  0.52021  1.0000
  C   C1112     1.0  0.88484  0.30775  0.53874  1.0000
  C   C1113     1.0  0.89238  0.32745  0.53754  1.0000
  C   C1114     1.0  0.89638  0.34166  0.51782  1.0000
  C   C1115     1.0  0.61154  0.04776  0.49320  1.0000
  C   C1116     1.0  0.98832  0.20675  0.49652  1.0000
  H   H1957     1.0  0.88124  0.29701  0.55406  1.0000
  H   H1958     1.0  0.89414  0.33211  0.55192  1.0000
  Fe  Fe123     1.0  0.97310  0.44671  0.69822  1.0000
  H   H1959     1.0  0.68826  0.07091  0.51159  1.0000
  C   C1117     1.0  0.99000  0.46325  0.63007  1.0000
  H   H1960     1.0  0.95998  0.29996  0.52794  1.0000
  C   C1118     1.0  0.51168  0.01859  0.70956  1.0000
  C   C1119     1.0  0.94285  0.27978  0.55539  1.0000
  S   S245      1.0  0.97051  0.43607  0.50693  1.0000
  C   C1120     1.0  0.51302  0.08427  0.66957  1.0000
  H   H1961     1.0  0.97281  0.38719  0.60099  1.0000
  H   H1962     1.0  0.91509  0.22379  0.52273  1.0000
  H   H1963     1.0  0.95157  0.22370  0.53328  1.0000
  H   H1964     1.0  0.97497  0.48221  0.49663  1.0000
  H   H1965     1.0  0.56422  0.04738  0.63317  1.0000
  H   H1966     1.0  0.92845  0.31171  0.56180  1.0000
  C   C1121     1.0  0.96626  0.38855  0.61700  1.0000
  H   H1967     1.0  0.93826  0.32345  0.61072  1.0000
  C   C1122     1.0  0.78542  0.01671  0.50244  1.0000
  C   C1123     1.0  0.94210  0.46599  0.62891  1.0000
  H   H1968     1.0  0.87804  0.46001  0.71930  1.0000
  C   C1124     1.0  0.89703  0.17233  0.54243  1.0000
  H   H1969     1.0  0.93282  0.29883  0.52581  1.0000
  C   C1125     1.0  0.80956  0.05120  0.49376  1.0000
  S   S246      1.0  0.54454  0.05366  0.53093  1.0000
  H   H1970     1.0  0.58492  0.00040  0.63967  1.0000
  H   H1971     1.0  0.99245  0.32626  0.51483  1.0000
  H   H1972     1.0  0.91673  0.44699  0.62890  1.0000
  C   C1126     1.0  0.86555  0.12929  0.51621  1.0000
  H   H1973     1.0  0.56432  0.09739  0.56386  1.0000
  H   H1974     1.0  0.91370  0.16431  0.53743  1.0000
  H   H1975     1.0  0.98849  0.17697  0.52073  1.0000
  C   C1127     1.0  0.89066  0.04202  0.50789  1.0000
  S   S247      1.0  0.87116  0.27795  0.52205  1.0000
  H   H1976     1.0  0.50052  0.15791  0.71193  1.0000
  C   C1128     1.0  0.97962  0.32767  0.61906  1.0000
  H   H1977     1.0  0.50743  0.07975  0.68690  1.0000
  C   C1129     1.0  0.88722  0.11330  0.51460  1.0000
  H   H1978     1.0  0.88531  0.48922  0.51465  1.0000
  H   H1979     1.0  0.95181  0.17141  0.51623  1.0000
  C   C1130     1.0  0.57513  0.00578  0.65380  1.0000
  H   H1980     1.0  0.84448  0.18374  0.50268  1.0000
  C   C1131     1.0  0.60907  0.00794  0.57307  1.0000
  Fe  Fe124     1.0  0.95940  0.40515  0.52755  1.0000
  H   H1981     1.0  0.51198  0.08151  0.62938  1.0000
  H   H1982     1.0  0.89943  0.15530  0.50828  1.0000
  H   H1983     1.0  0.50674  0.18419  0.68150  1.0000
  H   H1984     1.0  0.88209  0.09302  0.54661  1.0000
  H   H1985     1.0  0.50066  0.09796  0.72685  1.0000
  H   H1986     1.0  0.79206  0.13256  0.49079  1.0000
  C   C1132     1.0  0.99259  0.43491  0.58259  1.0000
  H   H1987     1.0  0.85907  0.12826  0.53331  1.0000
  C   C1133     1.0  0.77993  0.03272  0.51453  1.0000
  H   H1988     1.0  0.82164  0.14320  0.50937  1.0000
  Fe  Fe125     1.0  0.92743  0.37306  0.53473  1.0000
  H   H1989     1.0  0.50400  0.99500  0.64095  1.0000
  H   H1990     1.0  0.65142  0.99628  0.53557  1.0000
  H   H1991     1.0  0.53919  0.99435  0.70271  1.0000
  H   H1992     1.0  0.91734  0.21088  0.55025  1.0000
  C   C1134     1.0  0.80402  0.17585  0.50429  1.0000
  H   H1993     1.0  0.91814  0.40007  0.64748  1.0000
  S   S248      1.0  0.92568  0.39752  0.60354  1.0000
  H   H1994     1.0  0.93832  0.23901  0.55300  1.0000
  C   C1135     1.0  0.52581  0.06961  0.63619  1.0000
  H   H1995     1.0  0.49699  0.12578  0.69391  1.0000
  Fe  Fe126     1.0  0.55125  0.03368  0.50584  1.0000
  C   C1136     1.0  0.97930  0.18871  0.50921  1.0000
  Fe  Fe127     1.0  0.97164  0.35729  0.54924  1.0000
  C   C1137     1.0  0.89248  0.01809  0.50668  1.0000
  C   C1138     1.0  0.82497  0.15980  0.50089  1.0000
  C   C1139     1.0  0.54523  0.06342  0.73514  1.0000
  H   H1996     1.0  0.95750  0.32984  0.64856  1.0000
  N   N65       1.0  0.53168  0.05099  0.62472  1.0000
  C   C1140     1.0  0.89312  0.33593  0.49931  1.0000
  S   S249      1.0  0.92466  0.40596  0.54243  1.0000
  H   H1997     1.0  0.85385  0.12237  0.50978  1.0000
  C   C1141     1.0  0.53404  0.06107  0.60112  1.0000
  H   H1998     1.0  0.53318  0.05362  0.66855  1.0000
  H   H1999     1.0  0.92372  0.32848  0.63571  1.0000
  H   H2000     1.0  0.98431  0.45200  0.64514  1.0000
  Fe  Fe128     1.0  0.51541  0.03667  0.54253  1.0000
  C   C1142     1.0  0.94802  0.28838  0.53110  1.0000
  C   C1143     1.0  0.97651  0.25653  0.52508  1.0000
  H   H2001     1.0  0.53838  0.09030  0.56224  1.0000
  H   H2002     1.0  0.98323  0.24581  0.51364  1.0000
  H   H2003     1.0  0.56207  0.03051  0.61617  1.0000
  H   H2004     1.0  0.89097  0.04295  0.52457  1.0000
  S   S250      1.0  0.93788  0.35454  0.56619  1.0000
  H   H2005     1.0  0.83902  0.16420  0.52677  1.0000
  C   C1144     1.0  0.93835  0.33149  0.62397  1.0000
  H   H2006     1.0  0.56273  0.06992  0.56259  1.0000
  Fe  Fe129     1.0  0.56246  0.02384  0.55083  1.0000
  C   C1145     1.0  0.93040  0.48062  0.70573  1.0000
  H   H2007     1.0  0.89118  0.11019  0.49831  1.0000
  C   C1146     1.0  0.91217  0.49168  0.71625  1.0000
  H   H2008     1.0  0.54302  0.02128  0.66334  1.0000
  H   H2009     1.0  0.51595  0.11942  0.72608  1.0000
  H   H2010     1.0  0.91129  0.48008  0.52474  1.0000
  H   H2011     1.0  0.93907  0.25210  0.50447  1.0000
  C   C1147     1.0  0.51307  0.03799  0.62970  1.0000
  S   S251      1.0  0.58296  0.02338  0.57589  1.0000
  C   C1148     1.0  0.51427  0.02153  0.61543  1.0000
  H   H2012     1.0  0.96306  0.43441  0.63083  1.0000
  H   H2013     1.0  0.53765  0.17833  0.65230  1.0000
  C   C1149     1.0  0.97847  0.47919  0.59429  1.0000
  H   H2014     1.0  0.71547  0.06052  0.51832  1.0000
  S   S252      1.0  0.52054  0.01901  0.51588  1.0000
  S   S253      1.0  0.95135  0.42177  0.70199  1.0000
  S   S254      1.0  0.98980  0.37845  0.67301  1.0000
  H   H2015     1.0  0.51141  0.02896  0.64657  1.0000
  C   C1150     1.0  0.88535  0.09117  0.52985  1.0000
  H   H2016     1.0  0.98254  0.48002  0.63215  1.0000
  H   H2017     1.0  0.87624  0.40342  0.49272  1.0000
  C   C1151     1.0  0.87912  0.44677  0.73390  1.0000
  C   C1152     1.0  0.54996  0.07804  0.59326  1.0000
  H   H2018     1.0  0.80644  0.19286  0.49614  1.0000
  H   H2019     1.0  0.79885  0.17515  0.52151  1.0000
  C   C1153     1.0  0.94118  0.29789  0.56739  1.0000
  C   C1154     1.0  0.94378  0.39384  0.62237  1.0000
  H   H2020     1.0  0.52720  0.09299  0.66717  1.0000
  H   H2021     1.0  0.87206  0.08387  0.52640  1.0000
  H   H2022     1.0  0.94760  0.47278  0.64079  1.0000
  H   H2023     1.0  0.97857  0.28789  0.61185  1.0000
  H   H2024     1.0  0.95909  0.30444  0.64056  1.0000
  H   H2025     1.0  0.52022  0.02561  0.71856  1.0000
  C   C1155     1.0  0.52698  0.17072  0.64530  1.0000
  C   C1156     1.0  0.91675  0.22670  0.53841  1.0000
  C   C1157     1.0  0.96064  0.45024  0.61892  1.0000
  C   C1158     1.0  0.51931  0.06361  0.66058  1.0000
  C   C1159     1.0  0.49931  0.11545  0.72732  1.0000
  N   N66       1.0  0.95578  0.27102  0.51833  1.0000
  S   S255      1.0  0.96656  0.47937  0.67640  1.0000
  C   C1160     1.0  0.49935  0.00445  0.62533  1.0000
  H   H2026     1.0  0.74721  0.07201  0.49374  1.0000
  H   H2027     1.0  0.90091  0.07984  0.52784  1.0000
  H   H2028     1.0  0.51885  0.14779  0.67411  1.0000
  H   H2029     1.0  0.88543  0.42851  0.51457  1.0000
  H   H2030     1.0  0.89513  0.18994  0.53431  1.0000
  H   H2031     1.0  0.53113  0.01296  0.61248  1.0000
  H   H2032     1.0  0.90221  0.23808  0.54341  1.0000
  C   C1161     1.0  0.88240  0.16279  0.51265  1.0000
  C   C1162     1.0  0.93800  0.25755  0.51960  1.0000
  C   C1163     1.0  0.98030  0.38460  0.63250  1.0000
  S   S256      1.0  0.96127  0.37362  0.51731  1.0000
  H   H2033     1.0  0.88146  0.18042  0.50450  1.0000
  C   C1164     1.0  0.50991  0.16058  0.66247  1.0000
  H   H2034     1.0  0.88194  0.14404  0.54583  1.0000
  H   H2035     1.0  0.86376  0.16986  0.54274  1.0000
  H   H2036     1.0  0.95393  0.44663  0.60573  1.0000
  H   H2037     1.0  0.89662  0.44032  0.73511  1.0000
  C   C1165     1.0  0.93753  0.23623  0.53711  1.0000
  C   C1166     1.0  0.79232  0.04970  0.51051  1.0000
  Fe  Fe130     1.0  0.69540  0.02172  0.50074  1.0000
  C   C1167     1.0  0.49551  0.17807  0.67371  1.0000
  H   H2038     1.0  0.89504  0.17113  0.55986  1.0000
  H   H2039     1.0  0.53846  0.08108  0.73308  1.0000
  H   H2040     1.0  0.95552  0.26637  0.56184  1.0000
  H   H2041     1.0  0.54448  0.00455  0.64479  1.0000
  H   H2042     1.0  0.92803  0.44103  0.65378  1.0000
  H   H2043     1.0  0.92162  0.26775  0.52139  1.0000
  Fe  Fe131     1.0  0.93870  0.38758  0.57232  1.0000
  C   C1168     1.0  0.84401  0.16591  0.50939  1.0000
  C   C1169     1.0  0.94668  0.20082  0.49189  1.0000
  C   C1170     1.0  0.88581  0.31619  0.50048  1.0000
  H   H2044     1.0  0.93734  0.34943  0.61769  1.0000
  H   H2045     1.0  0.90090  0.11964  0.51845  1.0000
  H   H2046     1.0  0.54815  0.05915  0.71930  1.0000
  H   H2047     1.0  0.90629  0.44513  0.50284  1.0000
  H   H2048     1.0  0.97356  0.24510  0.54063  1.0000
  S   S257      1.0  0.57192  0.00541  0.52474  1.0000
  H   H2049     1.0  0.58357  0.01712  0.65877  1.0000
  H   H2050     1.0  0.61416  0.01746  0.53895  1.0000
  H   H2051     1.0  0.70336  0.08832  0.51936  1.0000
  C   C1171     1.0  0.95891  0.32229  0.63466  1.0000
  H   H2052     1.0  0.53732  0.15780  0.63773  1.0000
  H   H2053     1.0  0.49958  0.09546  0.66165  1.0000
  C   C1172     1.0  0.98128  0.99485  0.49111  1.0000
  H   H2054     1.0  0.73651  0.09892  0.49588  1.0000
  H   H2055     1.0  0.97391  0.29241  0.49306  1.0000
  Fe  Fe132     1.0  0.87421  0.26689  0.49132  1.0000
  Fe  Fe133     1.0  0.98267  0.39892  0.69786  1.0000
  H   H2056     1.0  0.97014  0.47634  0.58181  1.0000
  H   H2057     1.0  0.50021  0.15289  0.65456  1.0000
  N   N67       1.0  0.98217  0.45853  0.61122  1.0000
  S   S258      1.0  0.73139  0.01757  0.49125  1.0000
  C   C1173     1.0  0.95859  0.18559  0.50669  1.0000
  H   H2058     1.0  0.50508  0.05479  0.66485  1.0000
  H   H2059     1.0  0.90448  0.04949  0.49771  1.0000
  S   S259      1.0  0.86713  0.23312  0.49403  1.0000
  C   C1174     1.0  0.70474  0.07516  0.51057  1.0000
  H   H2060     1.0  0.87920  0.45381  0.49522  1.0000
  H   H2061     1.0  0.98978  0.27707  0.54095  1.0000
  H   H2062     1.0  0.60417  0.04322  0.50998  1.0000
  H   H2063     1.0  0.62529  0.05654  0.49259  1.0000
  H   H2064     1.0  0.97874  0.48842  0.71540  1.0000
  H   H2065     1.0  0.90455  0.48355  0.73137  1.0000
  H   H2066     1.0  0.81875  0.06460  0.49034  1.0000
  H   H2067     1.0  0.99198  0.28599  0.64677  1.0000
  H   H2068     1.0  0.84211  0.47481  0.73644  1.0000
  H   H2069     1.0  0.49729  0.09289  0.55198  1.0000
  H   H2070     1.0  0.77615  0.00337  0.50566  1.0000
  H   H2071     1.0  0.85171  0.00770  0.49858  1.0000
  C   C1175     1.0  0.96089  0.28228  0.49526  1.0000
  H   H2072     1.0  0.63342  0.01741  0.49217  1.0000
  S   S260      1.0  0.98574  0.38894  0.73294  1.0000
  S   S261      1.0  0.97507  0.44184  0.73299  1.0000
  H   H2073     1.0  0.49730  0.04922  0.62814  1.0000
  C   C1176     1.0  0.52241  0.00098  0.70054  1.0000
  H   H2074     1.0  0.97835  0.32463  0.60328  1.0000
  H   H2075     1.0  0.92602  0.29171  0.49031  1.0000
  H   H2076     1.0  0.98861  0.25148  0.63551  1.0000
  H   H2077     1.0  0.99045  0.31749  0.65959  1.0000
  H   H2078     1.0  0.51899  0.18333  0.63276  1.0000
  H   H2079     1.0  0.93976  0.31415  0.48904  1.0000
  C   C1177     1.0  0.98012  0.42303  0.84883  1.0000
  S   S262      1.0  0.52486  0.23206  0.88312  1.0000
  Fe  Fe134     1.0  0.66489  0.46618  0.86419  1.0000
  H   H2080     1.0  0.60475  0.44139  0.91113  1.0000
  S   S263      1.0  0.66731  0.42971  0.87616  1.0000
  H   H2081     1.0  0.50247  0.27992  0.96102  1.0000
  H   H2082     1.0  0.59718  0.47388  0.88129  1.0000
  H   H2083     1.0  0.50683  0.43702  0.96120  1.0000
  C   C1178     1.0  0.94167  0.44119  0.84666  1.0000
  H   H2084     1.0  0.56944  0.13048  0.83336  1.0000
  C   C1179     1.0  0.51197  0.18317  0.95835  1.0000
  H   H2085     1.0  0.95960  0.46542  0.79265  1.0000
  H   H2086     1.0  0.54495  0.18936  0.95414  1.0000
  H   H2087     1.0  0.56460  0.46289  0.82805  1.0000
  Fe  Fe135     1.0  0.82394  0.47742  0.85569  1.0000
  H   H2088     1.0  0.49706  0.37995  0.87860  1.0000
  S   S264      1.0  0.85648  0.45777  0.86244  1.0000
  H   H2089     1.0  0.50903  0.43137  0.86593  1.0000
  C   C1180     1.0  0.74687  0.47412  0.88694  1.0000
  H   H2090     1.0  0.50736  0.16877  0.84820  1.0000
  H   H2091     1.0  0.94148  0.48421  0.87106  1.0000
  H   H2092     1.0  0.80763  0.47561  0.96904  1.0000
  H   H2093     1.0  0.50221  0.28392  0.82003  1.0000
  H   H2094     1.0  0.61851  0.32712  0.95581  1.0000
  Fe  Fe136     1.0  0.57171  0.24114  0.90928  1.0000
  S   S265      1.0  0.56479  0.20738  0.91100  1.0000
  S   S266      1.0  0.59888  0.24654  0.92472  1.0000
  Fe  Fe137     1.0  0.56023  0.21971  0.87663  1.0000
  S   S267      1.0  0.57334  0.19806  0.85338  1.0000
  Fe  Fe138     1.0  0.56721  0.38577  0.92752  1.0000
  H   H2095     1.0  0.64977  0.26487  0.85711  1.0000
  S   S268      1.0  0.57759  0.39450  0.89204  1.0000
  Fe  Fe139     1.0  0.52751  0.38518  0.96142  1.0000
  H   H2096     1.0  0.54325  0.24884  0.82243  1.0000
  C   C1181     1.0  0.53336  0.17899  0.96311  1.0000
  C   C1182     1.0  0.90561  0.42560  0.79657  1.0000
  S   S269      1.0  0.54685  0.41146  0.94360  1.0000
  S   S270      1.0  0.54553  0.36051  0.94284  1.0000
  H   H2097     1.0  0.88866  0.43958  0.82301  1.0000
  C   C1183     1.0  0.49700  0.16968  0.96988  1.0000
  H   H2098     1.0  0.53563  0.26969  0.83791  1.0000
  H   H2099     1.0  0.59606  0.48446  0.81495  1.0000
  H   H2100     1.0  0.50662  0.37900  0.91490  1.0000
  C   C1184     1.0  0.51548  0.45930  0.97843  1.0000
  C   C1185     1.0  0.50786  0.46827  0.94007  1.0000
  C   C1186     1.0  0.59223  0.26578  0.94094  1.0000
  C   C1187     1.0  0.57441  0.28264  0.93833  1.0000
  C   C1188     1.0  0.57031  0.29849  0.95078  1.0000
  C   C1189     1.0  0.58349  0.29695  0.96648  1.0000
  C   C1190     1.0  0.60091  0.27974  0.96941  1.0000
  C   C1191     1.0  0.60553  0.26450  0.95641  1.0000
  H   H2101     1.0  0.56416  0.28381  0.92632  1.0000
  H   H2102     1.0  0.55691  0.31179  0.94833  1.0000
  C   C1192     1.0  0.97869  0.40667  0.78687  1.0000
  H   H2103     1.0  0.61935  0.25154  0.95851  1.0000
  C   C1193     1.0  0.57050  0.16051  0.84224  1.0000
  H   H2104     1.0  0.96757  0.43737  0.87711  1.0000
  H   H2105     1.0  0.58812  0.15813  0.84036  1.0000
  H   H2106     1.0  0.94308  0.41465  0.87560  1.0000
  H   H2107     1.0  0.50450  0.02151  0.76905  1.0000
  H   H2108     1.0  0.93311  0.40783  0.85426  1.0000
  H   H2109     1.0  0.76768  0.48338  0.96008  1.0000
  H   H2110     1.0  0.95741  0.40760  0.82625  1.0000
  H   H2111     1.0  0.49560  0.00324  0.81732  1.0000
  C   C1194     1.0  0.98322  0.43314  0.86728  1.0000
  H   H2112     1.0  0.54524  0.20383  0.98616  1.0000
  S   S271      1.0  0.66046  0.48418  0.83078  1.0000
  H   H2113     1.0  0.96601  0.41642  0.77710  1.0000
  H   H2114     1.0  0.58153  0.10899  0.90818  1.0000
  S   S272      1.0  0.57081  0.25220  0.87408  1.0000
  H   H2115     1.0  0.98468  0.49220  0.79107  1.0000
  H   H2116     1.0  0.72642  0.46570  0.83216  1.0000
  C   C1195     1.0  0.96194  0.42390  0.81818  1.0000
  C   C1196     1.0  0.57873  0.49175  0.81362  1.0000
  H   H2117     1.0  0.80114  0.46611  0.74627  1.0000
  C   C1197     1.0  0.71008  0.47334  0.93800  1.0000
  C   C1198     1.0  0.54150  0.10261  0.95773  1.0000
  H   H2118     1.0  0.57392  0.49320  0.85459  1.0000
  H   H2119     1.0  0.52479  0.07484  0.84140  1.0000
  H   H2120     1.0  0.51221  0.47731  0.97654  1.0000
  H   H2121     1.0  0.71807  0.45698  0.93691  1.0000
  H   H2122     1.0  0.55061  0.07931  0.88361  1.0000
  C   C1199     1.0  0.55990  0.14485  0.83823  1.0000
  C   C1200     1.0  0.64290  0.41929  0.87933  1.0000
  C   C1201     1.0  0.63876  0.40204  0.89658  1.0000
  C   C1202     1.0  0.61902  0.39397  0.90010  1.0000
  C   C1203     1.0  0.60355  0.40259  0.88607  1.0000
  C   C1204     1.0  0.60842  0.41868  0.86781  1.0000
  C   C1205     1.0  0.62779  0.42755  0.86479  1.0000
  H   H2123     1.0  0.65060  0.39537  0.90763  1.0000
  H   H2124     1.0  0.61596  0.38099  0.91364  1.0000
  H   H2125     1.0  0.59683  0.42503  0.85653  1.0000
  H   H2126     1.0  0.63119  0.44060  0.85117  1.0000
  H   H2127     1.0  0.49583  0.31219  0.97685  1.0000
  H   H2128     1.0  0.52782  0.14895  0.93744  1.0000
  H   H2129     1.0  0.93272  0.45362  0.75210  1.0000
  C   C1206     1.0  0.56356  0.47941  0.83128  1.0000
  C   C1207     1.0  0.91851  0.42940  0.77668  1.0000
  C   C1208     1.0  0.57038  0.47709  0.85357  1.0000
  S   S273      1.0  0.53697  0.25460  0.91874  1.0000
  C   C1209     1.0  0.90386  0.46345  0.79858  1.0000
  H   H2130     1.0  0.50940  0.34946  0.92006  1.0000
  N   N68       1.0  0.61658  0.32239  0.89229  1.0000
  C   C1210     1.0  0.63112  0.30073  0.89149  1.0000
  C   C1211     1.0  0.61501  0.32742  0.91404  1.0000
  C   C1212     1.0  0.59414  0.32009  0.88874  1.0000
  C   C1213     1.0  0.62418  0.34095  0.87510  1.0000
  C   C1214     1.0  0.64707  0.34603  0.87564  1.0000
  C   C1215     1.0  0.63283  0.29215  0.87093  1.0000
  C   C1216     1.0  0.57573  0.33958  0.89141  1.0000
  C   C1217     1.0  0.63535  0.31905  0.92606  1.0000
  C   C1218     1.0  0.63376  0.32968  0.94491  1.0000
  C   C1219     1.0  0.65328  0.36417  0.85664  1.0000
  C   C1220     1.0  0.64900  0.27087  0.87185  1.0000
  C   C1221     1.0  0.55340  0.33377  0.89100  1.0000
  H   H2131     1.0  0.62528  0.28778  0.90503  1.0000
  H   H2132     1.0  0.64801  0.30125  0.89374  1.0000
  H   H2133     1.0  0.61037  0.34535  0.91306  1.0000
  H   H2134     1.0  0.60165  0.31998  0.92509  1.0000
  H   H2135     1.0  0.58907  0.30497  0.89954  1.0000
  H   H2136     1.0  0.59425  0.31804  0.87231  1.0000
  H   H2137     1.0  0.62346  0.33826  0.85908  1.0000
  H   H2138     1.0  0.61289  0.35649  0.87607  1.0000
  H   H2139     1.0  0.65976  0.33145  0.87517  1.0000
  H   H2140     1.0  0.64718  0.35209  0.89014  1.0000
  H   H2141     1.0  0.61693  0.28834  0.86898  1.0000
  H   H2142     1.0  0.63845  0.30426  0.85668  1.0000
  H   H2143     1.0  0.57812  0.35388  0.87810  1.0000
  H   H2144     1.0  0.57520  0.34457  0.90659  1.0000
  H   H2145     1.0  0.63663  0.30105  0.93236  1.0000
  H   H2146     1.0  0.65072  0.32228  0.91576  1.0000
  C   C1222     1.0  0.95872  0.47309  0.80634  1.0000
  H   H2147     1.0  0.74236  0.46853  0.90428  1.0000
  H   H2148     1.0  0.64775  0.32224  0.95396  1.0000
  H   H2149     1.0  0.65436  0.35889  0.84147  1.0000
  H   H2150     1.0  0.64114  0.37932  0.85645  1.0000
  H   H2151     1.0  0.66939  0.36812  0.85784  1.0000
  H   H2152     1.0  0.66557  0.27356  0.87316  1.0000
  H   H2153     1.0  0.64371  0.25804  0.88568  1.0000
  H   H2154     1.0  0.55302  0.32826  0.87622  1.0000
  H   H2155     1.0  0.54938  0.32060  0.90500  1.0000
  H   H2156     1.0  0.54079  0.34845  0.89157  1.0000
  C   C1223     1.0  0.56020  0.11538  0.94560  1.0000
  C   C1224     1.0  0.83776  0.46563  0.79129  1.0000
  H   H2157     1.0  0.52362  0.07442  0.80386  1.0000
  H   H2158     1.0  0.90839  0.44125  0.88031  1.0000
  C   C1225     1.0  0.91627  0.46728  0.77859  1.0000
  Fe  Fe140     1.0  0.53550  0.26335  0.88365  1.0000
  H   H2159     1.0  0.66679  0.45698  0.94855  1.0000
  S   S274      1.0  0.59059  0.37467  0.95174  1.0000
  C   C1226     1.0  0.86873  0.45560  0.75361  1.0000
  C   C1227     1.0  0.51023  0.26679  0.82033  1.0000
  H   H2160     1.0  0.49775  0.07211  0.82004  1.0000
  H   H2161     1.0  0.57499  0.49101  0.79785  1.0000
  H   H2162     1.0  0.91431  0.49190  0.90439  1.0000
  H   H2163     1.0  0.54180  0.27740  0.80941  1.0000
  H   H2164     1.0  0.64267  0.45112  0.94111  1.0000
  H   H2165     1.0  0.51033  0.23505  0.84217  1.0000
  H   H2166     1.0  0.49797  0.35136  0.88454  1.0000
  H   H2167     1.0  0.94122  0.45392  0.85575  1.0000
  H   H2168     1.0  0.49630  0.14859  0.90159  1.0000
  H   H2169     1.0  0.75948  0.44549  0.84791  1.0000
  S   S275      1.0  0.57847  0.31580  0.98305  1.0000
  H   H2170     1.0  0.60917  0.46660  0.91587  1.0000
  C   C1228     1.0  0.53844  0.48643  0.87985  1.0000
  H   H2171     1.0  0.51938  0.07343  0.76972  1.0000
  H   H2172     1.0  0.63549  0.46830  0.97307  1.0000
  C   C1229     1.0  0.89826  0.44264  0.80754  1.0000
  C   C1230     1.0  0.74066  0.47356  0.82990  1.0000
  S   S276      1.0  0.50345  0.20515  0.93818  1.0000
  H   H2173     1.0  0.58924  0.22066  0.97306  1.0000
  H   H2174     1.0  0.50237  0.41768  0.93006  1.0000
  H   H2175     1.0  0.79708  0.49089  0.93123  1.0000
  S   S277      1.0  0.79943  0.45846  0.85067  1.0000
  H   H2176     1.0  0.62403  0.43111  0.97295  1.0000
  C   C1231     1.0  0.53418  0.26555  0.82271  1.0000
  H   H2177     1.0  0.57744  0.08445  0.88480  1.0000
  S   S278      1.0  0.72380  0.46451  0.97709  1.0000
  C   C1232     1.0  0.52748  0.15743  0.90345  1.0000
  H   H2178     1.0  0.80807  0.44806  0.96854  1.0000
  C   C1233     1.0  0.49455  0.35179  0.84230  1.0000
  S   S279      1.0  0.86740  0.46313  0.91802  1.0000
  C   C1234     1.0  0.93306  0.42119  0.86238  1.0000
  H   H2179     1.0  0.56306  0.07320  0.97133  1.0000
  C   C1235     1.0  0.90969  0.42753  0.87222  1.0000
  H   H2180     1.0  0.56324  0.15911  0.93221  1.0000
  Fe  Fe141     1.0  0.85475  0.47811  0.88646  1.0000
  C   C1236     1.0  0.50782  0.02105  0.78529  1.0000
  Fe  Fe142     1.0  0.56740  0.35117  0.96827  1.0000
  Fe  Fe143     1.0  0.56885  0.39875  0.96895  1.0000
  H   H2181     1.0  0.49474  0.16854  0.91768  1.0000
  C   C1237     1.0  0.77991  0.46915  0.95699  1.0000
  C   C1238     1.0  0.79701  0.46702  0.76329  1.0000
  H   H2182     1.0  0.83633  0.45021  0.75391  1.0000
  H   H2183     1.0  0.54675  0.48811  0.83001  1.0000
  H   H2184     1.0  0.53508  0.09447  0.94753  1.0000
  H   H2185     1.0  0.53573  0.07589  0.98486  1.0000
  H   H2186     1.0  0.97269  0.48727  0.75420  1.0000
  C   C1239     1.0  0.49640  0.30746  0.90875  1.0000
  H   H2187     1.0  0.53528  0.45721  0.85435  1.0000
  H   H2188     1.0  0.51709  0.04793  0.84998  1.0000
  C   C1240     1.0  0.55642  0.21478  0.98719  1.0000
  C   C1241     1.0  0.56799  0.45748  0.89104  1.0000
  C   C1242     1.0  0.52857  0.43967  0.88653  1.0000
  C   C1243     1.0  0.51845  0.42313  0.87937  1.0000
  C   C1244     1.0  0.59647  0.45763  0.91400  1.0000
  H   H2189     1.0  0.55736  0.43762  0.86342  1.0000
  H   H2190     1.0  0.57729  0.44155  0.88860  1.0000
  H   H2191     1.0  0.55710  0.45341  0.90626  1.0000
  H   H2192     1.0  0.53722  0.43063  0.90023  1.0000
  C   C1245     1.0  0.85698  0.48093  0.97475  1.0000
  H   H2193     1.0  0.56883  0.15944  0.90451  1.0000
  N   N69       1.0  0.55674  0.13024  0.92407  1.0000
  H   H2194     1.0  0.52640  0.19655  0.85584  1.0000
  C   C1246     1.0  0.51597  0.28302  0.96818  1.0000
  C   C1247     1.0  0.51449  0.06335  0.81660  1.0000
  H   H2195     1.0  0.51454  0.37009  0.81593  1.0000
  H   H2196     1.0  0.63425  0.34751  0.93927  1.0000
  C   C1248     1.0  0.56997  0.14854  0.92059  1.0000
  H   H2197     1.0  0.49818  0.25800  0.85318  1.0000
  H   H2198     1.0  0.60450  0.17210  0.90346  1.0000
  C   C1249     1.0  0.84419  0.46466  0.75268  1.0000
  H   H2199     1.0  0.53362  0.17292  0.90246  1.0000
  H   H2200     1.0  0.53731  0.03205  0.75164  1.0000
  C   C1250     1.0  0.75945  0.46208  0.83866  1.0000
  H   H2201     1.0  0.58463  0.19286  0.97654  1.0000
  H   H2202     1.0  0.73796  0.46597  0.87869  1.0000
  H   H2203     1.0  0.76726  0.47337  0.78481  1.0000
  C   C1251     1.0  0.59472  0.14133  0.92223  1.0000
  N   N70       1.0  0.55493  0.46825  0.87280  1.0000
  H   H2204     1.0  0.58499  0.45520  0.92897  1.0000
  H   H2205     1.0  0.52447  0.01148  0.78662  1.0000
  C   C1252     1.0  0.79069  0.47523  0.93404  1.0000
  C   C1253     1.0  0.54569  0.23917  0.98186  1.0000
  N   N71       1.0  0.50737  0.04386  0.78841  1.0000
  H   H2206     1.0  0.61116  0.27845  0.98151  1.0000
  C   C1254     1.0  0.53716  0.14767  0.84030  1.0000
  Fe  Fe144     1.0  0.52984  0.22203  0.91727  1.0000
  C   C1255     1.0  0.53312  0.14051  0.92398  1.0000
  H   H2207     1.0  0.59762  0.13059  0.93795  1.0000
  H   H2208     1.0  0.53322  0.45536  0.97286  1.0000
  C   C1256     1.0  0.77760  0.47241  0.83669  1.0000
  C   C1257     1.0  0.53570  0.18219  0.85085  1.0000
  C   C1258     1.0  0.50327  0.15221  0.98644  1.0000
  S   S280      1.0  0.92838  0.40791  0.76331  1.0000
  C   C1259     1.0  0.55115  0.10119  0.90429  1.0000
  H   H2209     1.0  0.52236  0.12793  0.92693  1.0000
  H   H2210     1.0  0.50940  0.31678  0.90726  1.0000
  N   N72       1.0  0.83344  0.47772  0.76910  1.0000
  H   H2211     1.0  0.55420  0.09274  0.98826  1.0000
  H   H2212     1.0  0.89882  0.43245  0.85964  1.0000
  H   H2213     1.0  0.55859  0.10520  0.86988  1.0000
  C   C1260     1.0  0.79711  0.46269  0.97273  1.0000
  C   C1261     1.0  0.52496  0.16652  0.84644  1.0000
  C   C1262     1.0  0.50456  0.35677  0.81900  1.0000
  H   H2214     1.0  0.51452  0.05163  0.74248  1.0000
  C   C1263     1.0  0.63729  0.47867  0.95682  1.0000
  C   C1264     1.0  0.56007  0.09201  0.88445  1.0000
  C   C1265     1.0  0.97181  0.45795  0.82377  1.0000
  C   C1266     1.0  0.65116  0.46447  0.94221  1.0000
  H   H2215     1.0  0.85547  0.46328  0.79265  1.0000
  C   C1267     1.0  0.55857  0.17910  0.84879  1.0000
  H   H2216     1.0  0.60646  0.47328  0.95175  1.0000
  H   H2217     1.0  0.51522  0.45198  0.89182  1.0000
  C   C1268     1.0  0.53953  0.16177  0.98003  1.0000
  C   C1269     1.0  0.50260  0.45437  0.96236  1.0000
  N   N73       1.0  0.96391  0.43652  0.83435  1.0000
  H   H2218     1.0  0.90155  0.40941  0.80358  1.0000
  H   H2219     1.0  0.65483  0.47459  0.92599  1.0000
  C   C1270     1.0  0.92353  0.45036  0.76767  1.0000
  C   C1271     1.0  0.54445  0.45079  0.86817  1.0000
  H   H2220     1.0  0.54019  0.05174  0.77857  1.0000
  H   H2221     1.0  0.94841  0.43233  0.80871  1.0000
  C   C1272     1.0  0.69791  0.48613  0.92199  1.0000
  H   H2222     1.0  0.49769  0.46537  0.92909  1.0000
  H   H2223     1.0  0.49801  0.19417  0.80511  1.0000
  C   C1273     1.0  0.61456  0.48792  0.94943  1.0000
  H   H2224     1.0  0.52934  0.03064  0.81217  1.0000
  C   C1274     1.0  0.82979  0.44319  0.79958  1.0000
  H   H2225     1.0  0.56274  0.12506  0.95685  1.0000
  S   S281      1.0  0.51646  0.29609  0.87173  1.0000
  H   H2226     1.0  0.55207  0.08712  0.91811  1.0000
  C   C1275     1.0  0.52418  0.05531  0.77233  1.0000
  C   C1276     1.0  0.84116  0.42939  0.81842  1.0000
  Fe  Fe145     1.0  0.86981  0.48533  0.83878  1.0000
  C   C1277     1.0  0.98267  0.41949  0.80235  1.0000
  H   H2227     1.0  0.60267  0.13243  0.90965  1.0000
  H   H2228     1.0  0.90414  0.41330  0.88411  1.0000
  H   H2229     1.0  0.80118  0.45040  0.77301  1.0000
  C   C1278     1.0  0.58455  0.47061  0.89521  1.0000
  H   H2230     1.0  0.52774  0.11405  0.96402  1.0000
  H   H2231     1.0  0.97151  0.46772  0.83577  1.0000
  H   H2232     1.0  0.50721  0.41525  0.89271  1.0000
  H   H2233     1.0  0.92933  0.44840  0.83553  1.0000
  H   H2234     1.0  0.83295  0.43331  0.78733  1.0000
  H   H2235     1.0  0.81200  0.44590  0.80509  1.0000
  H   H2236     1.0  0.64655  0.49156  0.95731  1.0000
  H   H2237     1.0  0.49937  0.17639  0.88907  1.0000
  H   H2238     1.0  0.76460  0.46888  0.88312  1.0000
  C   C1279     1.0  0.86408  0.46908  0.95865  1.0000
  H   H2239     1.0  0.58643  0.46612  0.85330  1.0000
  H   H2240     1.0  0.53392  0.10852  0.90285  1.0000
  C   C1280     1.0  0.56483  0.11812  0.90637  1.0000
  C   C1281     1.0  0.50239  0.07579  0.89464  1.0000
  H   H2241     1.0  0.53134  0.41012  0.87446  1.0000
  H   H2242     1.0  0.84054  0.43901  0.83058  1.0000
  H   H2243     1.0  0.83294  0.41493  0.82591  1.0000
  H   H2244     1.0  0.85842  0.42351  0.81297  1.0000
  H   H2245     1.0  0.53130  0.27955  0.95768  1.0000
  H   H2246     1.0  0.56669  0.12989  0.89069  1.0000
  C   C1282     1.0  0.51339  0.04159  0.81036  1.0000
  H   H2247     1.0  0.80423  0.46218  0.93038  1.0000
  H   H2248     1.0  0.54635  0.24425  0.96426  1.0000
  H   H2249     1.0  0.50959  0.26344  0.80467  1.0000
  H   H2250     1.0  0.77849  0.47719  0.92307  1.0000
  H   H2251     1.0  0.50402  0.09144  0.88285  1.0000
  H   H2252     1.0  0.50138  0.03360  0.82287  1.0000
  C   C1283     1.0  0.49898  0.25083  0.83911  1.0000
  H   H2253     1.0  0.76704  0.49030  0.75820  1.0000
  C   C1284     1.0  0.50759  0.23641  0.98115  1.0000
  H   H2254     1.0  0.51443  0.07289  0.90599  1.0000
  H   H2255     1.0  0.53465  0.15100  0.88914  1.0000
  C   C1285     1.0  0.54918  0.08507  0.97666  1.0000
  H   H2256     1.0  0.87567  0.45414  0.96151  1.0000
  C   C1286     1.0  0.50291  0.16301  0.90305  1.0000
  C   C1287     1.0  0.80922  0.48404  0.76781  1.0000
  H   H2257     1.0  0.51360  0.31731  0.95204  1.0000
  S   S282      1.0  0.52520  0.12651  0.83589  1.0000
  H   H2258     1.0  0.57542  0.10337  0.94421  1.0000
  H   H2259     1.0  0.97343  0.39083  0.79549  1.0000
  S   S283      1.0  0.57869  0.42677  0.97878  1.0000
  H   H2260     1.0  0.97597  0.40629  0.85552  1.0000
  C   C1288     1.0  0.60619  0.16110  0.91936  1.0000
  H   H2261     1.0  0.91009  0.47360  0.96919  1.0000
  H   H2262     1.0  0.50815  0.34641  0.85209  1.0000
  H   H2263     1.0  0.57359  0.21384  0.95549  1.0000
  C   C1289     1.0  0.52549  0.05911  0.83665  1.0000
  H   H2264     1.0  0.52523  0.46369  0.93395  1.0000
  H   H2265     1.0  0.59931  0.17040  0.93194  1.0000
  C   C1290     1.0  0.91584  0.48841  0.97097  1.0000
  C   C1291     1.0  0.49561  0.29638  0.89297  1.0000
  C   C1292     1.0  0.85671  0.47688  0.93867  1.0000
  H   H2266     1.0  0.57387  0.48592  0.96732  1.0000
  H   H2267     1.0  0.69680  0.47966  0.90852  1.0000
  H   H2268     1.0  0.87079  0.44196  0.76777  1.0000
  H   H2269     1.0  0.94151  0.47695  0.81290  1.0000
  H   H2270     1.0  0.50845  0.22931  0.80465  1.0000
  H   H2271     1.0  0.51439  0.48709  0.85840  1.0000
  H   H2272     1.0  0.92017  0.48351  0.77152  1.0000
  H   H2273     1.0  0.62383  0.15551  0.92052  1.0000
  H   H2274     1.0  0.54285  0.05175  0.83364  1.0000
  S   S284      1.0  0.69331  0.48192  0.86570  1.0000
  H   H2275     1.0  0.77128  0.45519  0.95818  1.0000
  C   C1293     1.0  0.77232  0.47363  0.76763  1.0000
  H   H2276     1.0  0.51108  0.21829  0.98340  1.0000
  H   H2277     1.0  0.51068  0.24262  0.96361  1.0000
  H   H2278     1.0  0.51531  0.34188  0.81521  1.0000
  H   H2279     1.0  0.93004  0.48306  0.98003  1.0000
  H   H2280     1.0  0.55592  0.15888  0.98413  1.0000
  H   H2281     1.0  0.55187  0.48142  0.94265  1.0000
  H   H2282     1.0  0.98767  0.43504  0.79276  1.0000
  H   H2283     1.0  0.82991  0.47564  0.80304  1.0000
  C   C1294     1.0  0.71096  0.48128  0.95587  1.0000
  H   H2284     1.0  0.94818  0.48734  0.74356  1.0000
  S   S285      1.0  0.64033  0.48973  0.87988  1.0000
  H   H2285     1.0  0.50609  0.06226  0.88601  1.0000
  H   H2286     1.0  0.52959  0.48025  0.89575  1.0000
  H   H2287     1.0  0.49863  0.21146  0.77885  1.0000
  H   H2288     1.0  0.57631  0.48654  0.89871  1.0000
  S   S286      1.0  0.89730  0.48478  0.81229  1.0000
  H   H2289     1.0  0.55668  0.24902  0.98576  1.0000
  C   C1295     1.0  0.57724  0.21035  0.97212  1.0000
  H   H2290     1.0  0.76392  0.46186  0.76326  1.0000
  S   S287      1.0  0.54791  0.37416  0.98813  1.0000
  H   H2291     1.0  0.52478  0.31111  0.97669  1.0000
  C   C1296     1.0  0.49786  0.36474  0.92112  1.0000
  C   C1297     1.0  0.52939  0.04940  0.75013  1.0000
  H   H2292     1.0  0.80071  0.48899  0.78270  1.0000
  C   C1298     1.0  0.51229  0.30736  0.96856  1.0000
  H   H2293     1.0  0.98679  0.48804  0.94630  1.0000
  H   H2294     1.0  0.87791  0.46830  0.75475  1.0000
  H   H2295     1.0  0.50439  0.48600  0.94017  1.0000
  H   H2296     1.0  0.98909  0.45510  0.81670  1.0000
  H   H2297     1.0  0.99070  0.44823  0.86094  1.0000
  H   H2298     1.0  0.99390  0.40325  0.77606  1.0000
  H   H2299     1.0  0.56106  0.06039  0.74148  1.0000
  H   H2300     1.0  0.99164  0.40199  0.88932  1.0000
  H   H2301     1.0  0.93581  0.49252  0.94079  1.0000
  H   H2302     1.0  0.50547  0.89730  0.13764  1.0000
  Fe  Fe146     1.0  0.93668  0.61543  0.16251  1.0000
  S   S288      1.0  0.92937  0.62147  0.12888  1.0000
  S   S289      1.0  0.92636  0.63891  0.18453  1.0000
  Fe  Fe147     1.0  0.95765  0.56877  0.16288  1.0000
  S   S290      1.0  0.95287  0.57031  0.12929  1.0000
  S   S291      1.0  0.97010  0.53803  0.18528  1.0000
  Fe  Fe148     1.0  0.96317  0.60329  0.12264  1.0000
  C   C1299     1.0  0.53388  0.88978  0.09093  1.0000
  Fe  Fe149     1.0  0.91944  0.58803  0.13797  1.0000
  S   S292      1.0  0.88783  0.58229  0.12961  1.0000
  S   S293      1.0  0.97146  0.60004  0.15548  1.0000
  S   S294      1.0  0.92353  0.58395  0.17222  1.0000
  S   S295      1.0  0.64846  0.53935  0.00452  1.0000
  H   H2303     1.0  0.51400  0.82288  0.16549  1.0000
  C   C1300     1.0  0.58380  0.53793  0.02207  1.0000
  C   C1301     1.0  0.52693  0.84906  0.03171  1.0000
  C   C1302     1.0  0.52422  0.80980  0.02064  1.0000
  H   H2304     1.0  0.88049  0.50409  0.15609  1.0000
  C   C1303     1.0  0.88252  0.50310  0.13921  1.0000
  H   H2305     1.0  0.80144  0.51454  0.13037  1.0000
  H   H2306     1.0  0.64805  0.59421  0.03806  1.0000
  H   H2307     1.0  0.80696  0.53118  0.14679  1.0000
  H   H2308     1.0  0.83478  0.57316  0.19776  1.0000
  H   H2309     1.0  0.97790  0.66663  0.18592  1.0000
  Fe  Fe150     1.0  0.66376  0.50490  0.01822  1.0000
  H   H2310     1.0  0.97709  0.58992  0.00639  1.0000
  C   C1304     1.0  0.86162  0.59088  0.18050  1.0000
  H   H2311     1.0  0.99368  0.55955  0.22938  1.0000
  C   C1305     1.0  0.76797  0.49362  0.08819  1.0000
  H   H2312     1.0  0.79305  0.64115  0.20026  1.0000
  H   H2313     1.0  0.76675  0.53354  0.99612  1.0000
  H   H2314     1.0  0.86942  0.57330  0.99926  1.0000
  C   C1306     1.0  0.54410  0.81338  0.02495  1.0000
  H   H2315     1.0  0.94717  0.53858  0.00238  1.0000
  H   H2316     1.0  0.54168  0.50153  0.02112  1.0000
  S   S296      1.0  0.83562  0.52597  0.04559  1.0000
  H   H2317     1.0  0.62232  0.68062  0.02771  1.0000
  C   C1307     1.0  0.94137  0.53357  0.01956  1.0000
  H   H2318     1.0  0.82131  0.61237  0.17123  1.0000
  C   C1308     1.0  0.83646  0.51704  0.12846  1.0000
  C   C1309     1.0  0.88950  0.56469  0.11215  1.0000
  C   C1310     1.0  0.90909  0.55151  0.10693  1.0000
  C   C1311     1.0  0.91040  0.53835  0.09227  1.0000
  C   C1312     1.0  0.89212  0.53800  0.08294  1.0000
  C   C1313     1.0  0.87224  0.55058  0.08865  1.0000
  C   C1314     1.0  0.87096  0.56394  0.10323  1.0000
  H   H2319     1.0  0.92330  0.55148  0.11404  1.0000
  H   H2320     1.0  0.92570  0.52840  0.08811  1.0000
  H   H2321     1.0  0.85808  0.55050  0.08138  1.0000
  H   H2322     1.0  0.85571  0.57403  0.10727  1.0000
  C   C1315     1.0  0.81976  0.62449  0.18119  1.0000
  C   C1316     1.0  0.50593  0.82596  0.02165  1.0000
  C   C1317     1.0  0.49713  0.83165  0.12764  1.0000
  C   C1318     1.0  0.95067  0.52082  0.18829  1.0000
  C   C1319     1.0  0.93349  0.52735  0.17602  1.0000
  H   H2323     1.0  0.82031  0.50100  0.16938  1.0000
  C   C1320     1.0  0.80664  0.54695  0.11386  1.0000
  H   H2324     1.0  0.94091  0.57404  0.99056  1.0000
  H   H2325     1.0  0.93252  0.54237  0.16417  1.0000
  H   H2326     1.0  0.94086  0.56553  0.07030  1.0000
  C   C1321     1.0  0.93160  0.62654  0.21073  1.0000
  H   H2327     1.0  0.93796  0.60445  0.03164  1.0000
  H   H2328     1.0  0.82377  0.64027  0.17104  1.0000
  S   S297      1.0  0.49423  0.89708  0.18172  1.0000
  H   H2329     1.0  0.53220  0.78558  0.11145  1.0000
  C   C1322     1.0  0.53103  0.82271  0.15755  1.0000
  S   S298      1.0  0.89546  0.52315  0.06291  1.0000
  H   H2330     1.0  0.94500  0.59506  0.20361  1.0000
  C   C1323     1.0  0.93588  0.59879  0.07340  1.0000
  H   H2331     1.0  0.54069  0.62306  0.03075  1.0000
  H   H2332     1.0  0.64139  0.67048  0.00714  1.0000
  H   H2333     1.0  0.51870  0.83235  0.08598  1.0000
  S   S299      1.0  0.98415  0.61459  0.09205  1.0000
  H   H2334     1.0  0.86800  0.58809  0.01985  1.0000
  H   H2335     1.0  0.88074  0.62987  0.21572  1.0000
  H   H2336     1.0  0.57795  0.63344  0.02237  1.0000
  H   H2337     1.0  0.54462  0.82071  0.09378  1.0000
  H   H2338     1.0  0.93784  0.54371  0.04890  1.0000
  H   H2339     1.0  0.87451  0.55850  0.02562  1.0000
  C   C1324     1.0  0.77938  0.49963  0.99517  1.0000
  C   C1325     1.0  0.52683  0.82135  0.09938  1.0000
  H   H2340     1.0  0.85451  0.62572  0.23042  1.0000
  C   C1326     1.0  0.91156  0.57684  0.02646  1.0000
  S   S300      1.0  0.54690  0.55477  0.00302  1.0000
  H   H2341     1.0  0.81053  0.54289  0.09791  1.0000
  C   C1327     1.0  0.53372  0.81532  0.13615  1.0000
  C   C1328     1.0  0.91748  0.51421  0.17864  1.0000
  C   C1329     1.0  0.94619  0.59492  0.23630  1.0000
  S   S301      1.0  0.52124  0.78459  0.01605  1.0000
  H   H2342     1.0  0.56063  0.83558  0.03442  1.0000
  H   H2343     1.0  0.53005  0.91257  0.00439  1.0000
  H   H2344     1.0  0.78900  0.55355  0.11624  1.0000
  Fe  Fe151     1.0  0.84238  0.50277  0.02339  1.0000
  H   H2345     1.0  0.55059  0.88806  0.09506  1.0000
  H   H2346     1.0  0.92789  0.61532  0.06592  1.0000
  C   C1330     1.0  0.93263  0.58160  0.06206  1.0000
  H   H2347     1.0  0.97519  0.62773  0.19229  1.0000
  H   H2348     1.0  0.55144  0.81289  0.13003  1.0000
  H   H2349     1.0  0.90447  0.59338  0.02953  1.0000
  H   H2350     1.0  0.54176  0.79021  0.17636  1.0000
  H   H2351     1.0  0.97850  0.53538  0.07071  1.0000
  C   C1331     1.0  0.87675  0.57375  0.01341  1.0000
  H   H2352     1.0  0.88682  0.62515  0.18111  1.0000
  H   H2353     1.0  0.54021  0.85949  0.08114  1.0000
  H   H2354     1.0  0.56317  0.80683  0.16602  1.0000
  C   C1332     1.0  0.52809  0.85285  0.11513  1.0000
  H   H2355     1.0  0.95347  0.59901  0.07298  1.0000
  C   C1333     1.0  0.76089  0.51746  0.00074  1.0000
  C   C1334     1.0  0.94523  0.54972  0.03228  1.0000
  H   H2356     1.0  0.91488  0.58127  0.06416  1.0000
  C   C1335     1.0  0.54541  0.83297  0.03068  1.0000
  C   C1336     1.0  0.62004  0.54473  0.00552  1.0000
  C   C1337     1.0  0.52132  0.79817  0.10140  1.0000
  H   H2357     1.0  0.90503  0.56511  0.04064  1.0000
  C   C1338     1.0  0.86924  0.62807  0.17905  1.0000
  C   C1339     1.0  0.52783  0.86734  0.09234  1.0000
  H   H2358     1.0  0.96298  0.54766  0.03322  1.0000
  S   S302      1.0  0.79154  0.50229  0.09234  1.0000
  H   H2359     1.0  0.79052  0.61326  0.20040  1.0000
  C   C1340     1.0  0.85613  0.55310  0.17841  1.0000
  C   C1341     1.0  0.60650  0.53382  0.02230  1.0000
  H   H2360     1.0  0.97339  0.63724  0.22563  1.0000
  C   C1342     1.0  0.86945  0.63295  0.15456  1.0000
  C   C1343     1.0  0.87678  0.65501  0.14393  1.0000
  H   H2361     1.0  0.53461  0.63623  0.00403  1.0000
  H   H2362     1.0  0.51084  0.93659  0.10015  1.0000
  H   H2363     1.0  0.88122  0.62018  0.14799  1.0000
  H   H2364     1.0  0.85343  0.63307  0.14981  1.0000
  H   H2365     1.0  0.86480  0.66859  0.14895  1.0000
  H   H2366     1.0  0.89299  0.65555  0.14817  1.0000
  H   H2367     1.0  0.87815  0.65743  0.12638  1.0000
  C   C1344     1.0  0.57475  0.55253  0.00482  1.0000
  C   C1345     1.0  0.64879  0.58591  0.02482  1.0000
  H   H2368     1.0  0.54335  0.81260  0.18806  1.0000
  C   C1346     1.0  0.94115  0.60458  0.21571  1.0000
  H   H2369     1.0  0.52063  0.77569  0.08135  1.0000
  S   S303      1.0  0.52787  0.87334  0.03945  1.0000
  H   H2370     1.0  0.54169  0.79261  0.07209  1.0000
  N   N74       1.0  0.52107  0.83053  0.11921  1.0000
  H   H2371     1.0  0.85014  0.53778  0.18755  1.0000
  C   C1347     1.0  0.83814  0.49638  0.16511  1.0000
  H   H2372     1.0  0.97119  0.51031  0.02384  1.0000
  C   C1348     1.0  0.99195  0.63194  0.18801  1.0000
  C   C1349     1.0  0.94251  0.58657  0.03826  1.0000
  H   H2373     1.0  0.64258  0.59363  0.99235  1.0000
  H   H2374     1.0  0.84547  0.50990  0.16771  1.0000
  H   H2375     1.0  0.81613  0.55976  0.11437  1.0000
  C   C1350     1.0  0.92687  0.63871  0.22662  1.0000
  H   H2376     1.0  0.86216  0.64337  0.18469  1.0000
  H   H2377     1.0  0.53338  0.89967  0.07442  1.0000
  H   H2378     1.0  0.92381  0.53229  0.02180  1.0000
  H   H2379     1.0  0.92853  0.59481  0.09030  1.0000
  H   H2380     1.0  0.50427  0.72887  0.04326  1.0000
  H   H2381     1.0  0.55826  0.80082  0.02441  1.0000
  H   H2382     1.0  0.83256  0.63041  0.20701  1.0000
  N   N75       1.0  0.93623  0.57350  0.02442  1.0000
  H   H2383     1.0  0.90871  0.56101  0.00041  1.0000
  H   H2384     1.0  0.52569  0.95891  0.08765  1.0000
  C   C1351     1.0  0.63918  0.60193  0.00592  1.0000
  C   C1352     1.0  0.97084  0.58042  0.99725  1.0000
  S   S304      1.0  0.83405  0.51654  0.99000  1.0000
  H   H2385     1.0  0.52880  0.79879  0.14028  1.0000
  H   H2386     1.0  0.84474  0.52954  0.13174  1.0000
  C   C1353     1.0  0.83455  0.61650  0.19906  1.0000
  H   H2387     1.0  0.61354  0.52206  0.03529  1.0000
  C   C1354     1.0  0.52454  0.79236  0.07962  1.0000
  H   H2388     1.0  0.54525  0.85110  0.11829  1.0000
  H   H2389     1.0  0.82751  0.60329  0.21131  1.0000
  H   H2390     1.0  0.90438  0.51947  0.16897  1.0000
  H   H2391     1.0  0.94898  0.50501  0.04498  1.0000
  C   C1355     1.0  0.95333  0.51058  0.02753  1.0000
  H   H2392     1.0  0.96534  0.49557  0.21242  1.0000
  H   H2393     1.0  0.57335  0.52911  0.03481  1.0000
  H   H2394     1.0  0.96045  0.58364  0.03845  1.0000
  C   C1356     1.0  0.81180  0.52645  0.13121  1.0000
  H   H2395     1.0  0.97925  0.50627  0.07956  1.0000
  H   H2396     1.0  0.87376  0.54902  0.17283  1.0000
  C   C1357     1.0  0.86936  0.60023  0.21228  1.0000
  H   H2397     1.0  0.53522  0.83935  0.15521  1.0000
  H   H2398     1.0  0.87925  0.58607  0.17561  1.0000
  C   C1358     1.0  0.54194  0.62082  0.01425  1.0000
  H   H2399     1.0  0.51394  0.98443  0.04346  1.0000
  Fe  Fe152     1.0  0.86767  0.50916  0.05647  1.0000
  N   N76       1.0  0.85836  0.60906  0.19236  1.0000
  C   C1359     1.0  0.62383  0.67524  0.01253  1.0000
  H   H2400     1.0  0.85454  0.59641  0.16532  1.0000
  C   C1360     1.0  0.54577  0.80706  0.17286  1.0000
  H   H2401     1.0  0.66609  0.57953  0.01992  1.0000
  H   H2402     1.0  0.53255  0.60765  0.01451  1.0000
  H   H2403     1.0  0.60731  0.59348  0.01172  1.0000
  H   H2404     1.0  0.52223  0.89864  0.10179  1.0000
  H   H2405     1.0  0.91944  0.65572  0.22286  1.0000
  H   H2406     1.0  0.98216  0.50443  0.12613  1.0000
  C   C1361     1.0  0.91838  0.54798  0.23128  1.0000
  H   H2407     1.0  0.88632  0.59204  0.20819  1.0000
  H   H2408     1.0  0.84165  0.51672  0.11133  1.0000
  C   C1362     1.0  0.90643  0.49439  0.13294  1.0000
  H   H2409     1.0  0.87922  0.51980  0.12936  1.0000
  C   C1363     1.0  0.95200  0.50077  0.20302  1.0000
  H   H2410     1.0  0.51822  0.86261  0.12638  1.0000
  H   H2411     1.0  0.50418  0.79705  0.10843  1.0000
  H   H2412     1.0  0.99146  0.65681  0.21673  1.0000
  H   H2413     1.0  0.90294  0.54155  0.23822  1.0000
  C   C1364     1.0  0.61156  0.65592  0.01590  1.0000
  C   C1365     1.0  0.90098  0.57533  0.00717  1.0000
  H   H2414     1.0  0.98787  0.49720  0.16841  1.0000
  H   H2415     1.0  0.54659  0.97166  0.16770  1.0000
  H   H2416     1.0  0.96320  0.52452  0.09571  1.0000
  H   H2417     1.0  0.59440  0.66142  0.02203  1.0000
  H   H2418     1.0  0.78556  0.63481  0.17732  1.0000
  C   C1366     1.0  0.99092  0.63905  0.22318  1.0000
  H   H2419     1.0  0.55517  0.92340  0.99514  1.0000
  H   H2420     1.0  0.63976  0.57178  0.03064  1.0000
  C   C1367     1.0  0.79578  0.62865  0.19046  1.0000
  S   S305      1.0  0.69978  0.49964  0.01986  1.0000
  H   H2421     1.0  0.86076  0.58746  0.22351  1.0000
  H   H2422     1.0  0.91684  0.50616  0.13409  1.0000
  H   H2423     1.0  0.84728  0.55979  0.16431  1.0000
  C   C1368     1.0  0.85253  0.56964  0.19259  1.0000
  H   H2424     1.0  0.96505  0.65430  0.15736  1.0000
  C   C1369     1.0  0.94564  0.58230  0.00177  1.0000
  C   C1370     1.0  0.50740  0.84562  0.02672  1.0000
  H   H2425     1.0  0.86099  0.56156  0.20670  1.0000
  C   C1371     1.0  0.51048  0.95232  0.08819  1.0000
  H   H2426     1.0  0.50989  0.94933  0.07228  1.0000
  H   H2427     1.0  0.61894  0.64257  0.02819  1.0000
  H   H2428     1.0  0.51363  0.80414  0.06894  1.0000
  H   H2429     1.0  0.61070  0.61054  0.02791  1.0000
  H   H2430     1.0  0.93865  0.59992  0.99673  1.0000
  H   H2431     1.0  0.77685  0.49481  0.05461  1.0000
  H   H2432     1.0  0.51169  0.86985  0.08686  1.0000
  C   C1372     1.0  0.54254  0.98913  0.16876  1.0000
  S   S306      1.0  0.49434  0.94594  0.20482  1.0000
  H   H2433     1.0  0.97875  0.56308  0.00121  1.0000
  C   C1373     1.0  0.57959  0.63201  0.00554  1.0000
  H   H2434     1.0  0.57177  0.59831  0.01548  1.0000
  C   C1374     1.0  0.97855  0.52162  0.08491  1.0000
  C   C1375     1.0  0.56570  0.61433  0.00543  1.0000
  H   H2435     1.0  0.92144  0.54758  0.21415  1.0000
  H   H2436     1.0  0.97910  0.67751  0.14713  1.0000
  Fe  Fe153     1.0  0.82162  0.49828  0.06890  1.0000
  C   C1376     1.0  0.87086  0.61729  0.22521  1.0000
  C   C1377     1.0  0.61429  0.60836  0.01124  1.0000
  C   C1378     1.0  0.91898  0.49399  0.19300  1.0000
  H   H2437     1.0  0.75536  0.51407  0.01813  1.0000
  C   C1379     1.0  0.49788  0.99068  0.03879  1.0000
  H   H2438     1.0  0.94880  0.49890  0.01953  1.0000
  H   H2439     1.0  0.79303  0.49976  0.00378  1.0000
  H   H2440     1.0  0.98866  0.59949  0.22985  1.0000
  H   H2441     1.0  0.64795  0.61616  0.00191  1.0000
  C   C1380     1.0  0.98113  0.65984  0.15497  1.0000
  H   H2442     1.0  0.53051  0.99024  0.18315  1.0000
  H   H2443     1.0  0.91671  0.56522  0.23260  1.0000
  H   H2444     1.0  0.99031  0.59734  0.05427  1.0000
  H   H2445     1.0  0.98751  0.58897  0.19730  1.0000
  N   N77       1.0  0.60333  0.62792  0.99645  1.0000
  C   C1381     1.0  0.98968  0.65639  0.17627  1.0000
  C   C1382     1.0  0.61277  0.64842  0.99483  1.0000
  N   N78       1.0  0.84319  0.49469  0.14215  1.0000
  H   H2446     1.0  0.57154  0.64797  0.99680  1.0000
  H   H2447     1.0  0.61692  0.68929  0.00049  1.0000
  H   H2448     1.0  0.58279  0.83162  0.99599  1.0000
  H   H2449     1.0  0.90249  0.59027  0.99435  1.0000
  H   H2450     1.0  0.74689  0.51847  0.99208  1.0000
  H   H2451     1.0  0.95236  0.54090  0.23460  1.0000
  H   H2452     1.0  0.99270  0.65066  0.14420  1.0000
  H   H2453     1.0  0.55989  0.88611  0.98969  1.0000
  C   C1383     1.0  0.54158  0.91797  0.99003  1.0000
  C   C1384     1.0  0.61085  0.56036  0.98906  1.0000
  H   H2454     1.0  0.56579  0.61208  0.98912  1.0000
  H   H2455     1.0  0.87738  0.78626  0.45985  1.0000
  H   H2456     1.0  0.98343  0.66490  0.25328  1.0000
  H   H2457     1.0  0.81809  0.94291  0.35143  1.0000
  C   C1385     1.0  0.97173  0.52020  0.38032  1.0000
  H   H2458     1.0  0.95326  0.51724  0.46944  1.0000
  H   H2459     1.0  0.94669  0.61477  0.41320  1.0000
  C   C1386     1.0  0.95784  0.49811  0.27725  1.0000
  Fe  Fe154     1.0  0.87999  0.71465  0.44473  1.0000
  S   S307      1.0  0.90244  0.69171  0.42659  1.0000
  S   S308      1.0  0.93388  0.96027  0.41071  1.0000
  S   S309      1.0  0.90383  0.91337  0.40304  1.0000
  H   H2460     1.0  0.62449  0.94508  0.44601  1.0000
  C   C1387     1.0  0.96968  0.93416  0.42827  1.0000
  H   H2461     1.0  0.71738  0.92882  0.37613  1.0000
  H   H2462     1.0  0.86716  0.86398  0.42149  1.0000
  H   H2463     1.0  0.83592  0.62860  0.46719  1.0000
  H   H2464     1.0  0.92289  0.96092  0.45901  1.0000
  S   S310      1.0  0.85120  0.93688  0.37804  1.0000
  Fe  Fe155     1.0  0.92407  0.63150  0.34069  1.0000
  S   S311      1.0  0.95393  0.62767  0.35660  1.0000
  S   S312      1.0  0.89104  0.64774  0.35360  1.0000
  Fe  Fe156     1.0  0.94891  0.61054  0.30454  1.0000
  H   H2465     1.0  0.91861  0.52542  0.27243  1.0000
  S   S313      1.0  0.95020  0.59416  0.27716  1.0000
  Fe  Fe157     1.0  0.96141  0.59417  0.34934  1.0000
  H   H2466     1.0  0.99143  0.98418  0.43624  1.0000
  H   H2467     1.0  0.98857  0.84410  0.47367  1.0000
  H   H2468     1.0  0.95725  0.98954  0.42055  1.0000
  S   S314      1.0  0.93029  0.59697  0.33598  1.0000
  S   S315      1.0  0.93995  0.64549  0.30788  1.0000
  C   C1388     1.0  0.91190  0.50970  0.44444  1.0000
  C   C1389     1.0  0.81103  0.94995  0.36499  1.0000
  C   C1390     1.0  0.60590  0.97817  0.27756  1.0000
  H   H2469     1.0  0.94565  0.56659  0.44715  1.0000
  H   H2470     1.0  0.99216  0.49397  0.26287  1.0000
  H   H2471     1.0  0.98931  0.51690  0.37927  1.0000
  H   H2472     1.0  0.92935  0.95645  0.36455  1.0000
  C   C1391     1.0  0.88156  0.60633  0.24527  1.0000
  H   H2473     1.0  0.95263  0.49345  0.43296  1.0000
  H   H2474     1.0  0.98358  0.72491  0.45326  1.0000
  H   H2475     1.0  0.91907  0.51478  0.42762  1.0000
  C   C1392     1.0  0.96103  0.54195  0.37676  1.0000
  H   H2476     1.0  0.81510  0.89917  0.43235  1.0000
  C   C1393     1.0  0.95976  0.50271  0.38508  1.0000
  H   H2477     1.0  0.96454  0.56449  0.42353  1.0000
  H   H2478     1.0  0.98995  0.71787  0.35023  1.0000
  H   H2479     1.0  0.88761  0.97822  0.45589  1.0000
  H   H2480     1.0  0.86447  0.54758  0.43606  1.0000
  H   H2481     1.0  0.86320  0.59539  0.43931  1.0000
  C   C1394     1.0  0.69395  0.95285  0.31712  1.0000
  H   H2482     1.0  0.75603  0.88738  0.44960  1.0000
  H   H2483     1.0  0.95673  0.51307  0.31244  1.0000
  H   H2484     1.0  0.51675  0.91021  0.37513  1.0000
  C   C1395     1.0  0.72883  0.93797  0.36380  1.0000
  H   H2485     1.0  0.88088  0.61050  0.40259  1.0000
  C   C1396     1.0  0.96173  0.61570  0.41940  1.0000
  H   H2486     1.0  0.84719  0.98576  0.38487  1.0000
  H   H2487     1.0  0.94874  0.80785  0.39711  1.0000
  H   H2488     1.0  0.98571  0.66496  0.36028  1.0000
  H   H2489     1.0  0.87373  0.55832  0.48287  1.0000
  H   H2490     1.0  0.73653  0.94714  0.37225  1.0000
  C   C1397     1.0  0.52870  0.97120  0.30514  1.0000
  H   H2491     1.0  0.88238  0.61886  0.25418  1.0000
  H   H2492     1.0  0.98428  0.53361  0.30102  1.0000
  Fe  Fe158     1.0  0.86874  0.92895  0.40685  1.0000
  H   H2493     1.0  0.67010  0.98058  0.39229  1.0000
  H   H2494     1.0  0.98130  0.88363  0.47414  1.0000
  Fe  Fe159     1.0  0.97024  0.63930  0.32380  1.0000
  N   N79       1.0  0.71659  0.95372  0.34677  1.0000
  C   C1398     1.0  0.93829  0.54610  0.37825  1.0000
  C   C1399     1.0  0.92851  0.76322  0.45752  1.0000
  C   C1400     1.0  0.94254  0.76602  0.43848  1.0000
  C   C1401     1.0  0.96261  0.75250  0.43695  1.0000
  C   C1402     1.0  0.96846  0.73598  0.45448  1.0000
  C   C1403     1.0  0.98276  0.85612  0.45962  1.0000
  H   H2495     1.0  0.91296  0.77344  0.45856  1.0000
  H   H2496     1.0  0.93767  0.77846  0.42493  1.0000
  H   H2497     1.0  0.91696  0.62909  0.44632  1.0000
  C   C1404     1.0  0.98946  0.93111  0.43678  1.0000
  C   C1405     1.0  0.89652  0.67871  0.40804  1.0000
  C   C1406     1.0  0.91096  0.66011  0.40425  1.0000
  C   C1407     1.0  0.90846  0.64996  0.38836  1.0000
  C   C1408     1.0  0.89210  0.65889  0.37541  1.0000
  C   C1409     1.0  0.87699  0.67706  0.37968  1.0000
  C   C1410     1.0  0.87913  0.68697  0.39613  1.0000
  H   H2498     1.0  0.92440  0.65374  0.41343  1.0000
  H   H2499     1.0  0.91925  0.63522  0.38610  1.0000
  H   H2500     1.0  0.86409  0.68387  0.36984  1.0000
  H   H2501     1.0  0.86795  0.70140  0.39898  1.0000
  H   H2502     1.0  0.69891  0.92814  0.34602  1.0000
  H   H2503     1.0  0.97770  0.53375  0.25556  1.0000
  H   H2504     1.0  0.68828  0.97939  0.34624  1.0000
  C   C1411     1.0  0.91714  0.98211  0.48218  1.0000
  C   C1412     1.0  0.50941  0.96142  0.28038  1.0000
  C   C1413     1.0  0.52900  0.95140  0.27095  1.0000
  C   C1414     1.0  0.54853  0.95152  0.27854  1.0000
  C   C1415     1.0  0.81838  0.66999  0.46295  1.0000
  H   H2505     1.0  0.78764  0.81012  0.45376  1.0000
  H   H2506     1.0  0.96298  0.52520  0.42940  1.0000
  H   H2507     1.0  0.56375  0.94369  0.27134  1.0000
  C   C1416     1.0  0.75033  0.93187  0.43057  1.0000
  H   H2508     1.0  0.67388  0.94666  0.29607  1.0000
  H   H2509     1.0  0.92987  0.56278  0.37589  1.0000
  C   C1417     1.0  0.81454  0.95792  0.39847  1.0000
  C   C1418     1.0  0.82367  0.94872  0.38103  1.0000
  H   H2510     1.0  0.84627  0.59124  0.47221  1.0000
  H   H2511     1.0  0.57775  0.98363  0.26162  1.0000
  C   C1419     1.0  0.84857  0.63737  0.46949  1.0000
  H   H2512     1.0  0.82429  0.95709  0.41081  1.0000
  H   H2513     1.0  0.88544  0.65586  0.45598  1.0000
  H   H2514     1.0  0.75460  0.85244  0.45401  1.0000
  N   N80       1.0  0.94705  0.72085  0.37292  1.0000
  C   C1420     1.0  0.94579  0.71493  0.35221  1.0000
  C   C1421     1.0  0.96347  0.73627  0.36888  1.0000
  C   C1422     1.0  0.95363  0.70011  0.38886  1.0000
  C   C1423     1.0  0.92535  0.73205  0.38172  1.0000
  C   C1424     1.0  0.91436  0.75221  0.36642  1.0000
  C   C1425     1.0  0.92819  0.70073  0.35272  1.0000
  C   C1426     1.0  0.95750  0.70297  0.41074  1.0000
  H   H2515     1.0  0.99354  0.71420  0.37763  1.0000
  H   H2516     1.0  0.68032  0.96458  0.32295  1.0000
  C   C1427     1.0  0.89280  0.76218  0.37752  1.0000
  C   C1428     1.0  0.92773  0.69696  0.33062  1.0000
  C   C1429     1.0  0.96444  0.68069  0.42508  1.0000
  H   H2517     1.0  0.96152  0.70545  0.34667  1.0000
  H   H2518     1.0  0.94334  0.72992  0.33936  1.0000
  H   H2519     1.0  0.95967  0.75026  0.35539  1.0000
  H   H2520     1.0  0.71440  0.98938  0.36642  1.0000
  H   H2521     1.0  0.96848  0.69033  0.38212  1.0000
  H   H2522     1.0  0.94087  0.68948  0.39238  1.0000
  H   H2523     1.0  0.91359  0.72028  0.38746  1.0000
  H   H2524     1.0  0.92702  0.73784  0.39602  1.0000
  H   H2525     1.0  0.91075  0.74762  0.35222  1.0000
  H   H2526     1.0  0.92492  0.76510  0.36112  1.0000
  H   H2527     1.0  0.93182  0.68438  0.36329  1.0000
  H   H2528     1.0  0.91166  0.70853  0.35828  1.0000
  H   H2529     1.0  0.94252  0.71090  0.41916  1.0000
  H   H2530     1.0  0.97027  0.71322  0.40899  1.0000
  C   C1430     1.0  0.93700  0.50694  0.38695  1.0000
  H   H2531     1.0  0.88336  0.64219  0.48322  1.0000
  C   C1431     1.0  0.98556  0.97020  0.43387  1.0000
  H   H2532     1.0  0.99339  0.50914  0.29097  1.0000
  C   C1432     1.0  0.63287  0.97668  0.44554  1.0000
  H   H2533     1.0  0.89559  0.76785  0.39149  1.0000
  H   H2534     1.0  0.88500  0.77646  0.36632  1.0000
  H   H2535     1.0  0.88146  0.74995  0.38297  1.0000
  H   H2536     1.0  0.94380  0.68846  0.32459  1.0000
  S   S316      1.0  0.97614  0.56370  0.37137  1.0000
  C   C1433     1.0  0.92633  0.52865  0.38354  1.0000
  H   H2537     1.0  0.95078  0.67107  0.42947  1.0000
  H   H2538     1.0  0.97870  0.67125  0.41707  1.0000
  H   H2539     1.0  0.96908  0.68313  0.43984  1.0000
  H   H2540     1.0  0.76795  0.82198  0.43535  1.0000
  C   C1434     1.0  0.93993  0.52274  0.45917  1.0000
  H   H2541     1.0  0.90874  0.53199  0.38498  1.0000
  H   H2542     1.0  0.52559  0.93566  0.36068  1.0000
  H   H2543     1.0  0.80246  0.90745  0.46390  1.0000
  C   C1435     1.0  0.89288  0.52770  0.44953  1.0000
  C   C1436     1.0  0.94945  0.53560  0.43722  1.0000
  C   C1437     1.0  0.54840  0.96141  0.29562  1.0000
  H   H2544     1.0  0.52297  0.87898  0.30405  1.0000
  S   S317      1.0  0.58360  0.97559  0.35176  1.0000
  C   C1438     1.0  0.87875  0.53570  0.43148  1.0000
  H   H2545     1.0  0.49434  0.96161  0.27457  1.0000
  H   H2546     1.0  0.78579  0.95443  0.44586  1.0000
  H   H2547     1.0  0.67291  0.98660  0.43251  1.0000
  H   H2548     1.0  0.84690  0.66454  0.44081  1.0000
  H   H2549     1.0  0.90418  0.50264  0.34318  1.0000
  C   C1439     1.0  0.86353  0.61608  0.40818  1.0000
  C   C1440     1.0  0.79297  0.96893  0.39953  1.0000
  H   H2550     1.0  0.80266  0.85790  0.47339  1.0000
  H   H2551     1.0  0.70408  0.96171  0.30335  1.0000
  S   S318      1.0  0.85281  0.74811  0.48772  1.0000
  H   H2552     1.0  0.89867  0.54220  0.45181  1.0000
  H   H2553     1.0  0.84022  0.98240  0.34497  1.0000
  C   C1441     1.0  0.79379  0.87454  0.46709  1.0000
  H   H2554     1.0  0.93673  0.54194  0.42646  1.0000
  H   H2555     1.0  0.82521  0.87157  0.43265  1.0000
  S   S319      1.0  0.90385  0.91399  0.45317  1.0000
  H   H2556     1.0  0.91524  0.68652  0.33147  1.0000
  C   C1442     1.0  0.92276  0.51277  0.31225  1.0000
  C   C1443     1.0  0.80884  0.89008  0.40509  1.0000
  C   C1444     1.0  0.69729  0.96659  0.35779  1.0000
  C   C1445     1.0  0.84273  0.66182  0.45831  1.0000
  S   S320      1.0  0.85003  0.93775  0.48314  1.0000
  H   H2557     1.0  0.96815  0.68372  0.48264  1.0000
  C   C1446     1.0  0.97858  0.78433  0.46683  1.0000
  H   H2558     1.0  0.60784  0.96013  0.27951  1.0000
  H   H2559     1.0  0.76843  0.91787  0.45676  1.0000
  H   H2560     1.0  0.99016  0.64329  0.27578  1.0000
  C   C1447     1.0  0.81073  0.88428  0.42932  1.0000
  H   H2561     1.0  0.89409  0.99296  0.41551  1.0000
  C   C1448     1.0  0.77106  0.84301  0.45616  1.0000
  H   H2562     1.0  0.88345  0.99114  0.33583  1.0000
  H   H2563     1.0  0.74253  0.95879  0.32080  1.0000
  H   H2564     1.0  0.51454  0.91632  0.33688  1.0000
  C   C1449     1.0  0.70833  0.94024  0.33464  1.0000
  Fe  Fe160     1.0  0.84745  0.71540  0.48432  1.0000
  H   H2565     1.0  0.52250  0.89647  0.27794  1.0000
  H   H2566     1.0  0.95882  0.72052  0.48706  1.0000
  H   H2567     1.0  0.74085  0.90827  0.35113  1.0000
  H   H2568     1.0  0.49914  0.93602  0.37627  1.0000
  C   C1450     1.0  0.91439  0.96147  0.35658  1.0000
  C   C1451     1.0  0.95320  0.67635  0.48421  1.0000
  H   H2569     1.0  0.68528  0.95560  0.36635  1.0000
  C   C1452     1.0  0.92554  0.64349  0.46935  1.0000
  S   S321      1.0  0.84389  0.72631  0.44941  1.0000
  H   H2570     1.0  0.90837  0.52442  0.30662  1.0000
  H   H2571     1.0  0.87114  0.97385  0.35798  1.0000
  C   C1453     1.0  0.93205  0.62900  0.24734  1.0000
  C   C1454     1.0  0.98083  0.80862  0.46466  1.0000
  H   H2572     1.0  0.77758  0.87564  0.47706  1.0000
  C   C1455     1.0  0.72245  0.99065  0.31985  1.0000
  C   C1456     1.0  0.77147  0.82042  0.45179  1.0000
  C   C1457     1.0  0.76124  0.90888  0.37391  1.0000
  H   H2573     1.0  0.87280  0.52178  0.42800  1.0000
  H   H2574     1.0  0.87432  0.64212  0.42965  1.0000
  H   H2575     1.0  0.74393  0.97145  0.34165  1.0000
  C   C1458     1.0  0.74756  0.92086  0.35611  1.0000
  S   S322      1.0  0.88873  0.74706  0.44433  1.0000
  H   H2576     1.0  0.76906  0.92061  0.37904  1.0000
  H   H2577     1.0  0.78473  0.92333  0.43101  1.0000
  H   H2578     1.0  0.70693  0.99064  0.31424  1.0000
  C   C1459     1.0  0.98381  0.61703  0.48144  1.0000
  H   H2579     1.0  0.93322  0.49665  0.34322  1.0000
  H   H2580     1.0  0.96303  0.60324  0.43452  1.0000
  C   C1460     1.0  0.78039  0.97025  0.38345  1.0000
  H   H2581     1.0  0.76711  0.89270  0.42248  1.0000
  H   H2582     1.0  0.94392  0.68522  0.47083  1.0000
  H   H2583     1.0  0.93515  0.83505  0.38698  1.0000
  C   C1461     1.0  0.51128  0.92690  0.36588  1.0000
  S   S323      1.0  0.57163  0.98329  0.41012  1.0000
  C   C1462     1.0  0.80691  0.89036  0.47239  1.0000
  H   H2584     1.0  0.72214  0.93053  0.32631  1.0000
  C   C1463     1.0  0.91973  0.50894  0.33651  1.0000
  H   H2585     1.0  0.92861  0.55059  0.26882  1.0000
  C   C1464     1.0  0.73223  0.96790  0.33240  1.0000
  H   H2586     1.0  0.80475  0.84363  0.44256  1.0000
  H   H2587     1.0  0.96366  0.92032  0.42578  1.0000
  C   C1465     1.0  0.97064  0.53431  0.27212  1.0000
  C   C1466     1.0  0.94400  0.52235  0.30233  1.0000
  C   C1467     1.0  0.95435  0.73333  0.47363  1.0000
  Fe  Fe161     1.0  0.85301  0.75809  0.45229  1.0000
  H   H2588     1.0  0.55983  0.97767  0.45518  1.0000
  S   S324      1.0  0.98058  0.75704  0.41347  1.0000
  C   C1468     1.0  0.96831  0.84673  0.44809  1.0000
  C   C1469     1.0  0.77042  0.89279  0.43862  1.0000
  H   H2589     1.0  0.75092  0.90034  0.38776  1.0000
  H   H2590     1.0  0.95808  0.65898  0.48326  1.0000
  C   C1470     1.0  0.85799  0.81100  0.43929  1.0000
  Fe  Fe162     1.0  0.90924  0.93694  0.42144  1.0000
  H   H2591     1.0  0.90427  0.49530  0.44468  1.0000
  H   H2592     1.0  0.92352  0.71276  0.31929  1.0000
  H   H2593     1.0  0.85901  0.63356  0.40032  1.0000
  H   H2594     1.0  0.77429  0.89655  0.36809  1.0000
  S   S325      1.0  0.83991  0.79344  0.43808  1.0000
  H   H2595     1.0  0.50221  0.87884  0.28801  1.0000
  S   S326      1.0  0.98060  0.60547  0.31769  1.0000
  S   S327      1.0  0.52956  0.93835  0.24996  1.0000
  H   H2596     1.0  0.92830  0.53493  0.46665  1.0000
  C   C1471     1.0  0.61681  0.96034  0.45137  1.0000
  H   H2597     1.0  0.97369  0.50461  0.24363  1.0000
  H   H2598     1.0  0.80091  0.90740  0.40057  1.0000
  H   H2599     1.0  0.91224  0.94785  0.48527  1.0000
  H   H2600     1.0  0.80874  0.66126  0.45600  1.0000
  H   H2601     1.0  0.75891  0.81198  0.46313  1.0000
  C   C1472     1.0  0.87542  0.80303  0.45109  1.0000
  H   H2602     1.0  0.89175  0.61702  0.43554  1.0000
  C   C1473     1.0  0.68378  0.93716  0.30882  1.0000
  C   C1474     1.0  0.85974  0.61320  0.43237  1.0000
  C   C1475     1.0  0.94004  0.82328  0.40159  1.0000
  H   H2603     1.0  0.94138  0.53954  0.30453  1.0000
  H   H2604     1.0  0.81320  0.66750  0.48036  1.0000
  H   H2605     1.0  0.84725  0.98842  0.48440  1.0000
  H   H2606     1.0  0.92506  0.81996  0.41273  1.0000
  S   S328      1.0  0.87455  0.95409  0.42295  1.0000
  H   H2607     1.0  0.96567  0.80116  0.43041  1.0000
  H   H2608     1.0  0.82990  0.89656  0.37504  1.0000
  H   H2609     1.0  0.96582  0.85917  0.43313  1.0000
  C   C1476     1.0  0.50930  0.97120  0.29743  1.0000
  H   H2610     1.0  0.85328  0.60632  0.40324  1.0000
  H   H2611     1.0  0.96978  0.83528  0.40021  1.0000
  H   H2612     1.0  0.88225  0.52091  0.46405  1.0000
  C   C1477     1.0  0.83118  0.88765  0.39177  1.0000
  H   H2613     1.0  0.84234  0.61941  0.43676  1.0000
  N   N81       1.0  0.95175  0.52172  0.27925  1.0000
  C   C1478     1.0  0.79184  0.95310  0.46063  1.0000
  H   H2614     1.0  0.67283  0.92821  0.32177  1.0000
  C   C1479     1.0  0.95491  0.83297  0.41174  1.0000
  C   C1480     1.0  0.89000  0.81678  0.45200  1.0000
  C   C1481     1.0  0.96050  0.81789  0.43331  1.0000
  H   H2615     1.0  0.94618  0.84925  0.41396  1.0000
  C   C1482     1.0  0.50165  0.92569  0.34634  1.0000
  H   H2616     1.0  0.59677  0.98243  0.29246  1.0000
  H   H2617     1.0  0.79896  0.87997  0.40032  1.0000
  C   C1483     1.0  0.81430  0.94795  0.46183  1.0000
  C   C1484     1.0  0.85498  0.83307  0.42868  1.0000
  H   H2618     1.0  0.84171  0.83913  0.41926  1.0000
  H   H2619     1.0  0.84306  0.89441  0.39804  1.0000
  H   H2620     1.0  0.78602  0.97663  0.41269  1.0000
  H   H2621     1.0  0.96488  0.55196  0.27169  1.0000
  H   H2622     1.0  0.82554  0.94523  0.44798  1.0000
  C   C1485     1.0  0.86935  0.84706  0.42996  1.0000
  C   C1486     1.0  0.88694  0.83884  0.44167  1.0000
  H   H2623     1.0  0.94499  0.81711  0.44439  1.0000
  H   H2624     1.0  0.85152  0.67218  0.46429  1.0000
  C   C1487     1.0  0.93334  0.53342  0.26659  1.0000
  C   C1488     1.0  0.97021  0.87633  0.46734  1.0000
  S   S329      1.0  0.85942  0.90555  0.43733  1.0000
  H   H2625     1.0  0.95188  0.84649  0.45765  1.0000
  C   C1489     1.0  0.76993  0.91681  0.43987  1.0000
  C   C1490     1.0  0.95852  0.55534  0.43955  1.0000
  H   H2626     1.0  0.75863  0.92875  0.34257  1.0000
  H   H2627     1.0  0.92856  0.63846  0.25951  1.0000
  C   C1491     1.0  0.93413  0.74671  0.47495  1.0000
  H   H2628     1.0  0.90364  0.81038  0.46092  1.0000
  Fe  Fe163     1.0  0.88795  0.73552  0.47965  1.0000
  H   H2629     1.0  0.63652  0.98077  0.42796  1.0000
  H   H2630     1.0  0.61192  0.95613  0.46885  1.0000
  C   C1492     1.0  0.87551  0.60335  0.47697  1.0000
  H   H2631     1.0  0.50796  0.91777  0.30545  1.0000
  Fe  Fe164     1.0  0.89493  0.89189  0.43495  1.0000
  C   C1493     1.0  0.87933  0.98856  0.35341  1.0000
  C   C1494     1.0  0.92337  0.95937  0.47620  1.0000
  C   C1495     1.0  0.95803  0.95526  0.42242  1.0000
  Fe  Fe165     1.0  0.86876  0.92925  0.45316  1.0000
  N   N82       1.0  0.87121  0.62612  0.46306  1.0000
  N   N83       1.0  0.97728  0.82436  0.44357  1.0000
  H   H2632     1.0  0.75030  0.94884  0.43219  1.0000
  H   H2633     1.0  0.83746  0.87017  0.39184  1.0000
  C   C1496     1.0  0.87499  0.62534  0.43982  1.0000
  H   H2634     1.0  0.69660  0.92523  0.30210  1.0000
  S   S330      1.0  0.90542  0.85542  0.44408  1.0000
  H   H2635     1.0  0.75122  0.93221  0.41340  1.0000
  H   H2636     1.0  0.92105  0.66107  0.46199  1.0000
  C   C1497     1.0  0.69779  0.98491  0.45148  1.0000
  C   C1498     1.0  0.96617  0.97323  0.42506  1.0000
  H   H2637     1.0  0.49418  0.97909  0.30456  1.0000
  C   C1499     1.0  0.94199  0.60710  0.25210  1.0000
  C   C1500     1.0  0.98665  0.76977  0.48719  1.0000
  H   H2638     1.0  0.83894  0.82284  0.48425  1.0000
  H   H2639     1.0  0.96892  0.81392  0.47780  1.0000
  C   C1501     1.0  0.78893  0.85490  0.44088  1.0000
  H   H2640     1.0  0.81350  0.79947  0.48071  1.0000
  H   H2641     1.0  0.73487  0.92653  0.43925  1.0000
  H   H2642     1.0  0.56341  0.96111  0.30165  1.0000
  H   H2643     1.0  0.96232  0.74382  0.38275  1.0000
  H   H2644     1.0  0.97953  0.62478  0.38857  1.0000
  H   H2645     1.0  0.97225  0.55002  0.44923  1.0000
  S   S331      1.0  0.52714  0.98287  0.32722  1.0000
  H   H2646     1.0  0.82457  0.88524  0.46774  1.0000
  H   H2647     1.0  0.96354  0.88879  0.45397  1.0000
  C   C1502     1.0  0.59362  0.98956  0.25861  1.0000
  C   C1503     1.0  0.51213  0.88927  0.29247  1.0000
  H   H2648     1.0  0.69321  0.97047  0.46371  1.0000
  C   C1504     1.0  0.85588  0.59070  0.48503  1.0000
  C   C1505     1.0  0.49741  0.90754  0.30185  1.0000
  H   H2649     1.0  0.78548  0.85584  0.42457  1.0000
  H   H2650     1.0  0.98117  0.59575  0.39892  1.0000
  H   H2651     1.0  0.87208  0.59391  0.25581  1.0000
  C   C1506     1.0  0.90090  0.98177  0.36346  1.0000
  C   C1507     1.0  0.88711  0.63935  0.46673  1.0000
  C   C1508     1.0  0.91159  0.62951  0.46325  1.0000
  H   H2652     1.0  0.77974  0.96146  0.35384  1.0000
  H   H2653     1.0  0.90492  0.94764  0.36115  1.0000
  C   C1509     1.0  0.78938  0.96057  0.36627  1.0000
  S   S332      1.0  0.74896  0.96130  0.47698  1.0000
  H   H2654     1.0  0.77348  0.84050  0.47306  1.0000
  N   N84       1.0  0.79091  0.87718  0.44399  1.0000
  H   H2655     1.0  0.96034  0.63223  0.42266  1.0000
  H   H2656     1.0  0.91925  0.52450  0.34150  1.0000
  H   H2657     1.0  0.95835  0.95982  0.47282  1.0000
  S   S333      1.0  0.88281  0.70205  0.47933  1.0000
  H   H2658     1.0  0.88879  0.59292  0.46876  1.0000
  H   H2659     1.0  0.98617  0.62881  0.44766  1.0000
  H   H2660     1.0  0.81488  0.68779  0.45585  1.0000
  H   H2661     1.0  0.60211  0.96719  0.44332  1.0000
  H   H2662     1.0  0.96115  0.78306  0.46763  1.0000
  H   H2663     1.0  0.88822  0.54410  0.41685  1.0000
  H   H2664     1.0  0.84629  0.63678  0.48686  1.0000
  C   C1510     1.0  0.82211  0.94589  0.48109  1.0000
  C   C1511     1.0  0.77711  0.95645  0.47854  1.0000
  H   H2665     1.0  0.64783  0.96811  0.45262  1.0000
  H   H2666     1.0  0.91925  0.96498  0.33909  1.0000
  H   H2667     1.0  0.70922  0.96622  0.38777  1.0000
  C   C1512     1.0  0.93741  0.53403  0.24245  1.0000
  C   C1513     1.0  0.70251  0.97820  0.37411  1.0000
  S   S334      1.0  0.96800  0.59705  0.48138  1.0000
  H   H2668     1.0  0.49776  0.94270  0.33719  1.0000
  H   H2669     1.0  0.95656  0.87179  0.47985  1.0000
  C   C1514     1.0  0.98150  0.61152  0.40299  1.0000
  H   H2670     1.0  0.98240  0.98984  0.47578  1.0000
  N   N85       1.0  0.92950  0.50338  0.45882  1.0000
  C   C1515     1.0  0.98766  0.72621  0.36362  1.0000
  S   S335      1.0  0.75298  0.98251  0.38558  1.0000
  H   H2671     1.0  0.93870  0.51725  0.23990  1.0000
  H   H2672     1.0  0.88063  0.87491  0.47835  1.0000
  H   H2673     1.0  0.89763  0.97781  0.38105  1.0000
  C   C1516     1.0  0.98931  0.52723  0.28626  1.0000
  H   H2674     1.0  0.71086  0.97903  0.43954  1.0000
  H   H2675     1.0  0.51772  0.94854  0.47815  1.0000
  H   H2676     1.0  0.60322  0.98414  0.24444  1.0000
  H   H2677     1.0  0.62235  0.98296  0.27504  1.0000
  C   C1517     1.0  0.94638  0.94880  0.48100  1.0000
  H   H2678     1.0  0.95100  0.93328  0.47531  1.0000
  H   H2679     1.0  0.94289  0.63843  0.46362  1.0000
  H   H2680     1.0  0.98771  0.77755  0.45329  1.0000
  C   C1518     1.0  0.99099  0.63040  0.46211  1.0000
  H   H2681     1.0  0.96716  0.64309  0.26295  1.0000
  H   H2682     1.0  0.98816  0.98552  0.36232  1.0000
  H   H2683     1.0  0.89842  0.59839  0.24104  1.0000
  H   H2684     1.0  0.91519  0.61265  0.47294  1.0000
  C   C1519     1.0  0.98393  0.64710  0.26017  1.0000
  H   H2685     1.0  0.95388  0.57803  0.23982  1.0000
  H   H2686     1.0  0.62089  0.99118  0.47204  1.0000
  H   H2687     1.0  0.92356  0.64131  0.48690  1.0000
  S   S336      1.0  0.99348  0.66400  0.31471  1.0000
  H   H2688     1.0  0.74075  0.98826  0.28882  1.0000
  H   H2689     1.0  0.92286  0.49697  0.30798  1.0000
  C   C1520     1.0  0.68207  0.99143  0.38355  1.0000
  Fe  Fe166     1.0  0.49796  0.93520  0.23953  1.0000
  H   H2690     1.0  0.98395  0.75273  0.48869  1.0000
  H   H2691     1.0  0.92893  0.99271  0.47235  1.0000
  H   H2692     1.0  0.86823  0.83886  0.48796  1.0000
  H   H2693     1.0  0.98748  0.56300  0.62926  1.0000
  C   C1521     1.0  0.86047  0.56052  0.60503  1.0000
  C   C1522     1.0  0.99360  0.50860  0.56486  1.0000
  H   H2694     1.0  0.49874  0.97770  0.52246  1.0000
  H   H2695     1.0  0.57923  0.90083  0.56398  1.0000
  C   C1523     1.0  0.95720  0.73001  0.53696  1.0000
  H   H2696     1.0  0.82409  0.98445  0.51847  1.0000
  H   H2697     1.0  0.97843  0.52231  0.67947  1.0000
  C   C1524     1.0  0.86564  0.53744  0.66502  1.0000
  H   H2698     1.0  0.59175  0.96713  0.58291  1.0000
  H   H2699     1.0  0.84683  0.98186  0.53273  1.0000
  S   S337      1.0  0.52473  0.97003  0.67745  1.0000
  S   S338      1.0  0.93743  0.50952  0.55990  1.0000
  H   H2700     1.0  0.96971  0.70215  0.52350  1.0000
  H   H2701     1.0  0.56811  0.98601  0.61065  1.0000
  H   H2702     1.0  0.97497  0.54689  0.68883  1.0000
  C   C1525     1.0  0.57845  0.87494  0.59209  1.0000
  C   C1526     1.0  0.98907  0.64251  0.57826  1.0000
  C   C1527     1.0  0.86106  0.84001  0.50455  1.0000
  S   S339      1.0  0.92134  0.57349  0.69528  1.0000
  Fe  Fe167     1.0  0.89866  0.60517  0.69364  1.0000
  S   S340      1.0  0.88995  0.62409  0.66138  1.0000
  Fe  Fe168     1.0  0.90424  0.58742  0.53775  1.0000
  S   S341      1.0  0.92953  0.60939  0.53183  1.0000
  S   S342      1.0  0.86797  0.59643  0.53793  1.0000
  Fe  Fe169     1.0  0.93703  0.54557  0.54619  1.0000
  S   S343      1.0  0.96532  0.56373  0.54102  1.0000
  Fe  Fe170     1.0  0.94313  0.58609  0.55997  1.0000
  S   S344      1.0  0.95672  0.59583  0.58530  1.0000
  Fe  Fe171     1.0  0.94949  0.58535  0.51343  1.0000
  H   H2703     1.0  0.56010  0.95652  0.70388  1.0000
  S   S345      1.0  0.91615  0.56621  0.56748  1.0000
  S   S346      1.0  0.92293  0.56518  0.51682  1.0000
  C   C1528     1.0  0.58399  0.91376  0.59069  1.0000
  H   H2704     1.0  0.53281  0.91226  0.55054  1.0000
  C   C1529     1.0  0.83813  0.80706  0.49595  1.0000
  H   H2705     1.0  0.77379  0.95723  0.51166  1.0000
  C   C1530     1.0  0.87137  0.85748  0.51074  1.0000
  C   C1531     1.0  0.58271  0.95299  0.58787  1.0000
  C   C1532     1.0  0.98055  0.55333  0.64466  1.0000
  H   H2706     1.0  0.58715  0.90635  0.60740  1.0000
  C   C1533     1.0  0.63489  0.90993  0.58419  1.0000
  H   H2707     1.0  0.84371  0.84757  0.50348  1.0000
  H   H2708     1.0  0.62325  0.97318  0.51376  1.0000
  C   C1534     1.0  0.52899  0.91889  0.56469  1.0000
  H   H2709     1.0  0.58762  0.86761  0.60588  1.0000
  C   C1535     1.0  0.91527  0.52438  0.68869  1.0000
  C   C1536     1.0  0.86343  0.56666  0.49497  1.0000
  C   C1537     1.0  0.97193  0.50368  0.72093  1.0000
  C   C1538     1.0  0.90844  0.61634  0.64016  1.0000
  C   C1539     1.0  0.93064  0.61026  0.64205  1.0000
  C   C1540     1.0  0.94535  0.60460  0.62487  1.0000
  C   C1541     1.0  0.93787  0.60406  0.60607  1.0000
  C   C1542     1.0  0.91563  0.60996  0.60417  1.0000
  C   C1543     1.0  0.90099  0.61650  0.62107  1.0000
  H   H2710     1.0  0.93654  0.61041  0.65661  1.0000
  H   H2711     1.0  0.96256  0.60045  0.62625  1.0000
  H   H2712     1.0  0.90978  0.60965  0.58964  1.0000
  H   H2713     1.0  0.88383  0.62132  0.61952  1.0000
  H   H2714     1.0  0.66333  0.92465  0.58437  1.0000
  C   C1544     1.0  0.95306  0.65767  0.56337  1.0000
  H   H2715     1.0  0.62859  0.95373  0.55056  1.0000
  H   H2716     1.0  0.56799  0.95809  0.57945  1.0000
  C   C1545     1.0  0.78499  0.95489  0.49768  1.0000
  H   H2717     1.0  0.87903  0.80785  0.58095  1.0000
  H   H2718     1.0  0.58335  0.94074  0.55150  1.0000
  H   H2719     1.0  0.83390  0.57367  0.64721  1.0000
  C   C1546     1.0  0.51973  0.93559  0.60151  1.0000
  Fe  Fe172     1.0  0.72997  0.98161  0.49972  1.0000
  H   H2720     1.0  0.60512  0.88985  0.57326  1.0000
  C   C1547     1.0  0.92902  0.54850  0.62476  1.0000
  H   H2721     1.0  0.87271  0.67202  0.56185  1.0000
  H   H2722     1.0  0.94163  0.53448  0.62170  1.0000
  Fe  Fe173     1.0  0.93480  0.58253  0.72087  1.0000
  C   C1548     1.0  0.61769  0.92891  0.59031  1.0000
  H   H2723     1.0  0.63822  0.91154  0.56673  1.0000
  H   H2724     1.0  0.84021  0.61231  0.68064  1.0000
  H   H2725     1.0  0.51702  0.94195  0.61571  1.0000
  H   H2726     1.0  0.98026  0.52100  0.57016  1.0000
  H   H2727     1.0  0.56609  0.91954  0.59173  1.0000
  C   C1549     1.0  0.83727  0.66801  0.51826  1.0000
  C   C1550     1.0  0.82441  0.65135  0.52433  1.0000
  C   C1551     1.0  0.83399  0.62951  0.53090  1.0000
  C   C1552     1.0  0.85647  0.62417  0.53159  1.0000
  C   C1553     1.0  0.86925  0.64087  0.52656  1.0000
  C   C1554     1.0  0.85960  0.66279  0.52004  1.0000
  H   H2728     1.0  0.80709  0.65529  0.52339  1.0000
  H   H2729     1.0  0.82400  0.61667  0.53505  1.0000
  H   H2730     1.0  0.88653  0.63693  0.52752  1.0000
  H   H2731     1.0  0.86939  0.67561  0.51680  1.0000
  H   H2732     1.0  0.94716  0.94498  0.49839  1.0000
  H   H2733     1.0  0.94995  0.66548  0.57731  1.0000
  H   H2734     1.0  0.92445  0.51411  0.50137  1.0000
  H   H2735     1.0  0.81329  0.94760  0.51403  1.0000
  C   C1555     1.0  0.53752  0.90937  0.73505  1.0000
  H   H2736     1.0  0.94242  0.52201  0.66402  1.0000
  H   H2737     1.0  0.88970  0.57449  0.62491  1.0000
  H   H2738     1.0  0.56605  0.93688  0.61893  1.0000
  H   H2739     1.0  0.84191  0.54306  0.63215  1.0000
  H   H2740     1.0  0.84905  0.55826  0.50143  1.0000
  H   H2741     1.0  0.54495  0.97402  0.60856  1.0000
  C   C1556     1.0  0.87098  0.87839  0.49331  1.0000
  H   H2742     1.0  0.61492  0.92516  0.60798  1.0000
  H   H2743     1.0  0.84475  0.96052  0.51967  1.0000
  H   H2744     1.0  0.97190  0.69801  0.55152  1.0000
  C   C1557     1.0  0.55978  0.97140  0.61645  1.0000
  H   H2745     1.0  0.60240  0.92338  0.70246  1.0000
  H   H2746     1.0  0.90820  0.52632  0.64397  1.0000
  H   H2747     1.0  0.87286  0.56529  0.50826  1.0000
  Fe  Fe174     1.0  0.54059  0.99228  0.53700  1.0000
  N   N86       1.0  0.86255  0.81737  0.51914  1.0000
  C   C1558     1.0  0.85510  0.54896  0.58909  1.0000
  N   N87       1.0  0.86629  0.55449  0.64443  1.0000
  H   H2748     1.0  0.94857  0.73429  0.55202  1.0000
  C   C1559     1.0  0.65650  0.90938  0.59207  1.0000
  H   H2749     1.0  0.52702  0.96588  0.58097  1.0000
  H   H2750     1.0  0.57984  0.86249  0.58247  1.0000
  Fe  Fe175     1.0  0.69828  0.98463  0.53943  1.0000
  H   H2751     1.0  0.86728  0.53404  0.58798  1.0000
  H   H2752     1.0  0.87858  0.78535  0.55493  1.0000
  H   H2753     1.0  0.66844  0.89533  0.58797  1.0000
  C   C1560     1.0  0.52787  0.94770  0.73833  1.0000
  H   H2754     1.0  0.87370  0.66260  0.59009  1.0000
  H   H2755     1.0  0.92903  0.56152  0.61002  1.0000
  C   C1561     1.0  0.51584  0.95231  0.49413  1.0000
  H   H2756     1.0  0.80728  0.87309  0.50566  1.0000
  H   H2757     1.0  0.82755  0.51023  0.70241  1.0000
  H   H2758     1.0  0.57902  0.91737  0.73755  1.0000
  H   H2759     1.0  0.83910  0.51987  0.66445  1.0000
  C   C1562     1.0  0.88921  0.55965  0.63803  1.0000
  C   C1563     1.0  0.52576  0.94914  0.58177  1.0000
  C   C1564     1.0  0.57504  0.95088  0.61210  1.0000
  H   H2760     1.0  0.88179  0.80126  0.49508  1.0000
  S   S347      1.0  0.97119  0.57877  0.71909  1.0000
  H   H2761     1.0  0.89921  0.52154  0.49059  1.0000
  H   H2762     1.0  0.60313  0.97218  0.54912  1.0000
  H   H2763     1.0  0.97306  0.73615  0.53328  1.0000
  Fe  Fe176     1.0  0.89638  0.56009  0.72145  1.0000
  H   H2764     1.0  0.55467  0.96941  0.63384  1.0000
  H   H2765     1.0  0.92754  0.70606  0.53471  1.0000
  H   H2766     1.0  0.87820  0.89067  0.49824  1.0000
  H   H2767     1.0  0.85441  0.58881  0.63281  1.0000
  H   H2768     1.0  0.84952  0.81167  0.58578  1.0000
  S   S348      1.0  0.67701  0.96763  0.56722  1.0000
  H   H2769     1.0  0.89498  0.56413  0.65131  1.0000
  H   H2770     1.0  0.62500  0.94401  0.51710  1.0000
  H   H2771     1.0  0.62524  0.94409  0.58585  1.0000
  H   H2772     1.0  0.90276  0.53652  0.61696  1.0000
  C   C1565     1.0  0.80336  0.89000  0.49618  1.0000
  C   C1566     1.0  0.96114  0.70522  0.53899  1.0000
  H   H2773     1.0  0.84864  0.57588  0.60474  1.0000
  H   H2774     1.0  0.96164  0.51150  0.51716  1.0000
  H   H2775     1.0  0.59992  0.95114  0.70595  1.0000
  H   H2776     1.0  0.95905  0.51322  0.71124  1.0000
  C   C1567     1.0  0.93370  0.51345  0.67831  1.0000
  C   C1568     1.0  0.52253  0.90547  0.58434  1.0000
  S   S349      1.0  0.51121  0.89612  0.62742  1.0000
  H   H2777     1.0  0.96502  0.99257  0.50020  1.0000
  C   C1569     1.0  0.97807  0.65106  0.55806  1.0000
  C   C1570     1.0  0.59952  0.93733  0.55739  1.0000
  H   H2778     1.0  0.60838  0.92279  0.55147  1.0000
  H   H2779     1.0  0.98127  0.63776  0.54914  1.0000
  S   S350      1.0  0.53995  0.95676  0.53869  1.0000
  H   H2780     1.0  0.59403  0.94631  0.68161  1.0000
  H   H2781     1.0  0.92051  0.97963  0.49883  1.0000
  H   H2782     1.0  0.49641  0.95019  0.53491  1.0000
  C   C1571     1.0  0.84306  0.51693  0.69700  1.0000
  C   C1572     1.0  0.61208  0.95646  0.54573  1.0000
  C   C1573     1.0  0.85920  0.54567  0.62773  1.0000
  H   H2783     1.0  0.62930  0.89404  0.59184  1.0000
  H   H2784     1.0  0.98615  0.66476  0.54817  1.0000
  Fe  Fe177     1.0  0.49679  0.91270  0.65445  1.0000
  C   C1574     1.0  0.88232  0.80237  0.51163  1.0000
  H   H2785     1.0  0.87951  0.96381  0.49287  1.0000
  H   H2786     1.0  0.87691  0.56498  0.59933  1.0000
  H   H2787     1.0  0.52619  0.95191  0.72111  1.0000
  H   H2788     1.0  0.87183  0.54303  0.67743  1.0000
  H   H2789     1.0  0.86511  0.78472  0.59262  1.0000
  H   H2790     1.0  0.87627  0.82651  0.54347  1.0000
  H   H2791     1.0  0.90928  0.54117  0.68191  1.0000
  C   C1575     1.0  0.65094  0.98325  0.56931  1.0000
  H   H2792     1.0  0.93284  0.69901  0.56125  1.0000
  C   C1576     1.0  0.63878  0.98289  0.58935  1.0000
  C   C1577     1.0  0.58770  0.89510  0.57842  1.0000
  C   C1578     1.0  0.86437  0.80061  0.58083  1.0000
  H   H2793     1.0  0.84750  0.82979  0.54693  1.0000
  C   C1579     1.0  0.93888  0.67809  0.50516  1.0000
  H   H2794     1.0  0.90643  0.81195  0.52714  1.0000
  H   H2795     1.0  0.82144  0.60597  0.66589  1.0000
  H   H2796     1.0  0.94682  0.64178  0.56940  1.0000
  C   C1580     1.0  0.59284  0.94011  0.69913  1.0000
  C   C1581     1.0  0.85118  0.57540  0.64694  1.0000
  H   H2797     1.0  0.56248  0.92899  0.70064  1.0000
  C   C1582     1.0  0.61491  0.95887  0.52161  1.0000
  H   H2798     1.0  0.92239  0.77579  0.51838  1.0000
  N   N88       1.0  0.59637  0.93285  0.58141  1.0000
  H   H2799     1.0  0.52256  0.93740  0.50540  1.0000
  C   C1583     1.0  0.90465  0.80912  0.51152  1.0000
  C   C1584     1.0  0.86247  0.81881  0.54189  1.0000
  C   C1585     1.0  0.84251  0.80796  0.51838  1.0000
  H   H2800     1.0  0.92418  0.67063  0.50575  1.0000
  H   H2801     1.0  0.82775  0.81740  0.52588  1.0000
  H   H2802     1.0  0.88850  0.85152  0.51365  1.0000
  H   H2803     1.0  0.84348  0.79076  0.52771  1.0000
  H   H2804     1.0  0.84920  0.78891  0.55993  1.0000
  H   H2805     1.0  0.56099  0.87933  0.59810  1.0000
  C   C1586     1.0  0.84309  0.53031  0.67415  1.0000
  S   S351      1.0  0.87262  0.59116  0.71831  1.0000
  C   C1587     1.0  0.98754  0.53444  0.68233  1.0000
  C   C1588     1.0  0.86368  0.79686  0.55875  1.0000
  S   S352      1.0  0.88486  0.52850  0.72310  1.0000
  C   C1589     1.0  0.87889  0.98008  0.49646  1.0000
  C   C1590     1.0  0.90499  0.51374  0.70805  1.0000
  C   C1591     1.0  0.51802  0.91372  0.60285  1.0000
  H   H2806     1.0  0.84484  0.61864  0.65206  1.0000
  C   C1592     1.0  0.56639  0.93184  0.73299  1.0000
  C   C1593     1.0  0.83884  0.60660  0.66624  1.0000
  H   H2807     1.0  0.84632  0.57288  0.68165  1.0000
  S   S353      1.0  0.51579  0.91297  0.68034  1.0000
  C   C1594     1.0  0.95112  0.66633  0.52450  1.0000
  H   H2808     1.0  0.90202  0.68571  0.57351  1.0000
  C   C1595     1.0  0.91785  0.66659  0.54960  1.0000
  H   H2809     1.0  0.83854  0.54438  0.59379  1.0000
  H   H2810     1.0  0.91356  0.65808  0.58488  1.0000
  C   C1596     1.0  0.85441  0.99015  0.49820  1.0000
  C   C1597     1.0  0.53073  0.94074  0.56338  1.0000
  C   C1598     1.0  0.88259  0.66138  0.57413  1.0000
  S   S354      1.0  0.82504  0.69493  0.50785  1.0000
  H   H2811     1.0  0.86195  0.86208  0.52540  1.0000
  H   H2812     1.0  0.82990  0.54454  0.67421  1.0000
  C   C1599     1.0  0.92340  0.79138  0.50636  1.0000
  H   H2813     1.0  0.95262  0.64839  0.52566  1.0000
  H   H2814     1.0  0.94743  0.73828  0.52380  1.0000
  H   H2815     1.0  0.65427  0.90757  0.60961  1.0000
  C   C1600     1.0  0.90669  0.54116  0.63099  1.0000
  H   H2816     1.0  0.91813  0.64961  0.54781  1.0000
  H   H2817     1.0  0.90779  0.67756  0.53757  1.0000
  H   H2818     1.0  0.52542  0.96557  0.49307  1.0000
  H   H2819     1.0  0.78619  0.89684  0.50113  1.0000
  H   H2820     1.0  0.81406  0.90036  0.49957  1.0000
  H   H2821     1.0  0.98369  0.60969  0.51543  1.0000
  C   C1601     1.0  0.98987  0.51758  0.71972  1.0000
  C   C1602     1.0  0.91116  0.50747  0.49711  1.0000
  H   H2822     1.0  0.93363  0.69566  0.50483  1.0000
  H   H2823     1.0  0.97774  0.77565  0.50139  1.0000
  C   C1603     1.0  0.80744  0.94946  0.49899  1.0000
  H   H2824     1.0  0.86859  0.52914  0.62698  1.0000
  H   H2825     1.0  0.64564  0.97321  0.60343  1.0000
  H   H2826     1.0  0.98150  0.53285  0.72474  1.0000
  H   H2827     1.0  0.59881  0.96158  0.51582  1.0000
  H   H2828     1.0  0.58916  0.94874  0.62090  1.0000
  C   C1604     1.0  0.93947  0.69579  0.54525  1.0000
  H   H2829     1.0  0.93335  0.55495  0.63756  1.0000
  H   H2830     1.0  0.52130  0.88855  0.58528  1.0000
  C   C1605     1.0  0.90488  0.66853  0.57166  1.0000
  H   H2831     1.0  0.85558  0.56009  0.57310  1.0000
  H   H2832     1.0  0.88445  0.64411  0.57264  1.0000
  H   H2833     1.0  0.98168  0.62858  0.58883  1.0000
  S   S355      1.0  0.73488  0.97708  0.53384  1.0000
  N   N89       1.0  0.94081  0.67182  0.54554  1.0000
  H   H2834     1.0  0.86956  0.58525  0.66801  1.0000
  H   H2835     1.0  0.49476  0.98926  0.55227  1.0000
  S   S356      1.0  0.91422  0.61576  0.71708  1.0000
  C   C1606     1.0  0.85255  0.58398  0.66687  1.0000
  H   H2836     1.0  0.96810  0.66970  0.52037  1.0000
  H   H2837     1.0  0.96597  0.56359  0.65128  1.0000
  H   H2838     1.0  0.53234  0.91596  0.71897  1.0000
  H   H2839     1.0  0.93917  0.79665  0.50640  1.0000
  H   H2840     1.0  0.97552  0.53872  0.64159  1.0000
  Fe  Fe178     1.0  0.50113  0.94831  0.67579  1.0000
  H   H2841     1.0  0.84442  0.52756  0.70773  1.0000
  H   H2842     1.0  0.87692  0.52218  0.66308  1.0000
  H   H2843     1.0  0.88435  0.97640  0.51246  1.0000
  H   H2844     1.0  0.88224  0.78522  0.52086  1.0000
  C   C1607     1.0  0.56896  0.93962  0.70839  1.0000
  C   C1608     1.0  0.98920  0.61991  0.50037  1.0000
  H   H2845     1.0  0.53796  0.87639  0.71403  1.0000
  H   H2846     1.0  0.98858  0.50256  0.55214  1.0000
  C   C1609     1.0  0.84181  0.97847  0.51853  1.0000
  H   H2847     1.0  0.80263  0.81370  0.50182  1.0000
  C   C1610     1.0  0.81569  0.80094  0.49677  1.0000
  C   C1611     1.0  0.95903  0.49482  0.52416  1.0000
  H   H2848     1.0  0.98749  0.65572  0.58703  1.0000
  S   S357      1.0  0.69337  0.98608  0.50597  1.0000
  H   H2849     1.0  0.90666  0.82418  0.49902  1.0000
  H   H2850     1.0  0.89490  0.50523  0.52944  1.0000
  S   S358      1.0  0.91408  0.74051  0.49641  1.0000
  H   H2851     1.0  0.56860  0.89277  0.72121  1.0000
  C   C1612     1.0  0.51145  0.99204  0.68862  1.0000
  C   C1613     1.0  0.55500  0.88875  0.73394  1.0000
  H   H2852     1.0  0.81419  0.78489  0.50792  1.0000
  H   H2853     1.0  0.85029  0.79430  0.48988  1.0000
  H   H2854     1.0  0.92302  0.78848  0.49039  1.0000
  H   H2855     1.0  0.84480  0.59802  0.49749  1.0000
  H   H2856     1.0  0.88169  0.60400  0.49179  1.0000
  H   H2857     1.0  0.85685  0.50310  0.69818  1.0000
  C   C1614     1.0  0.89997  0.49465  0.51769  1.0000
  H   H2858     1.0  0.50111  0.99270  0.61491  1.0000
  H   H2859     1.0  0.55861  0.85651  0.72708  1.0000
  C   C1615     1.0  0.54550  0.87051  0.72899  1.0000
  H   H2860     1.0  0.85404  0.88560  0.49031  1.0000
  H   H2861     1.0  0.57382  0.99110  0.66697  1.0000
  H   H2862     1.0  0.57085  0.94510  0.73894  1.0000
  H   H2863     1.0  0.82329  0.51170  0.79060  1.0000
  S   S359      1.0  0.57406  0.77088  0.97566  1.0000
  S   S360      1.0  0.87377  0.61366  0.76951  1.0000
  Fe  Fe179     1.0  0.63799  0.50922  0.84664  1.0000
  C   C1616     1.0  0.55230  0.91470  0.90357  1.0000
  H   H2864     1.0  0.91003  0.55088  0.92587  1.0000
  H   H2865     1.0  0.59023  0.63328  0.96668  1.0000
  H   H2866     1.0  0.54264  0.92866  0.89357  1.0000
  C   C1617     1.0  0.50335  0.85646  0.97313  1.0000
  S   S361      1.0  0.60528  0.52404  0.83603  1.0000
  Fe  Fe180     1.0  0.53632  0.57485  0.97192  1.0000
  S   S362      1.0  0.55827  0.57938  0.94076  1.0000
  H   H2867     1.0  0.58144  0.57575  0.97546  1.0000
  C   C1618     1.0  0.54710  0.92581  0.80291  1.0000
  S   S363      1.0  0.51539  0.60895  0.92003  1.0000
  C   C1619     1.0  0.83719  0.59462  0.82569  1.0000
  Fe  Fe181     1.0  0.53004  0.57352  0.92733  1.0000
  S   S364      1.0  0.52877  0.55310  0.90401  1.0000
  Fe  Fe182     1.0  0.54163  0.61446  0.93647  1.0000
  S   S365      1.0  0.56016  0.64258  0.92143  1.0000
  H   H2868     1.0  0.96939  0.54958  0.84063  1.0000
  S   S366      1.0  0.52170  0.61033  0.96851  1.0000
  C   C1620     1.0  0.74110  0.49901  0.87993  1.0000
  S   S367      1.0  0.53080  0.79941  0.95324  1.0000
  Fe  Fe183     1.0  0.56727  0.74240  0.96431  1.0000
  S   S368      1.0  0.56425  0.76173  0.93108  1.0000
  C   C1621     1.0  0.92251  0.50261  0.94915  1.0000
  Fe  Fe184     1.0  0.56657  0.79099  0.94340  1.0000
  S   S369      1.0  0.58491  0.81738  0.92299  1.0000
  Fe  Fe185     1.0  0.52910  0.76869  0.94321  1.0000
  H   H2869     1.0  0.52347  0.88228  0.98830  1.0000
  H   H2870     1.0  0.57529  0.77991  0.87175  1.0000
  H   H2871     1.0  0.53096  0.91773  0.93231  1.0000
  C   C1622     1.0  0.84778  0.55287  0.90464  1.0000
  H   H2872     1.0  0.52398  0.90017  0.91740  1.0000
  S   S370      1.0  0.53771  0.88975  0.85288  1.0000
  H   H2873     1.0  0.62101  0.50231  0.98436  1.0000
  H   H2874     1.0  0.53102  0.92043  0.80906  1.0000
  H   H2875     1.0  0.53261  0.82393  0.82584  1.0000
  C   C1623     1.0  0.88550  0.52974  0.90499  1.0000
  C   C1624     1.0  0.57107  0.83684  0.90352  1.0000
  C   C1625     1.0  0.58316  0.84717  0.88512  1.0000
  C   C1626     1.0  0.57269  0.86326  0.86970  1.0000
  C   C1627     1.0  0.55016  0.86997  0.87301  1.0000
  C   C1628     1.0  0.53808  0.86025  0.89173  1.0000
  C   C1629     1.0  0.54842  0.84309  0.90656  1.0000
  H   H2876     1.0  0.60067  0.84250  0.88265  1.0000
  H   H2877     1.0  0.58216  0.87075  0.85528  1.0000
  H   H2878     1.0  0.50610  0.70067  0.93568  1.0000
  H   H2879     1.0  0.53901  0.83521  0.92064  1.0000
  H   H2880     1.0  0.55217  0.76620  0.88279  1.0000
  H   H2881     1.0  0.54237  0.50477  0.92271  1.0000
  H   H2882     1.0  0.97389  0.57951  0.96372  1.0000
  H   H2883     1.0  0.52887  0.91293  0.77475  1.0000
  C   C1630     1.0  0.60444  0.62353  0.97453  1.0000
  C   C1631     1.0  0.54851  0.93567  0.77905  1.0000
  C   C1632     1.0  0.50450  0.94684  0.75016  1.0000
  Fe  Fe186     1.0  0.89041  0.59837  0.74213  1.0000
  H   H2884     1.0  0.97648  0.58747  0.85902  1.0000
  C   C1633     1.0  0.97783  0.55584  0.75992  1.0000
  H   H2885     1.0  0.49721  0.65356  0.94218  1.0000
  C   C1634     1.0  0.86295  0.57440  0.79449  1.0000
  H   H2886     1.0  0.54910  0.93816  0.81154  1.0000
  C   C1635     1.0  0.56532  0.66086  0.93567  1.0000
  C   C1636     1.0  0.55219  0.66471  0.95437  1.0000
  C   C1637     1.0  0.55675  0.67998  0.96476  1.0000
  C   C1638     1.0  0.57474  0.69098  0.95680  1.0000
  C   C1639     1.0  0.58777  0.68703  0.93819  1.0000
  C   C1640     1.0  0.58293  0.67226  0.92756  1.0000
  H   H2887     1.0  0.53848  0.65609  0.96068  1.0000
  H   H2888     1.0  0.94416  0.50680  0.84849  1.0000
  H   H2889     1.0  0.60180  0.69524  0.93208  1.0000
  H   H2890     1.0  0.59308  0.66945  0.91308  1.0000
  C   C1641     1.0  0.75202  0.51038  0.89280  1.0000
  H   H2891     1.0  0.81658  0.52610  0.76492  1.0000
  H   H2892     1.0  0.54681  0.49931  0.88232  1.0000
  C   C1642     1.0  0.58505  0.53469  0.85451  1.0000
  C   C1643     1.0  0.56349  0.53911  0.85017  1.0000
  C   C1644     1.0  0.54656  0.54570  0.86517  1.0000
  C   C1645     1.0  0.55101  0.54858  0.88444  1.0000
  C   C1646     1.0  0.57272  0.54567  0.88827  1.0000
  C   C1647     1.0  0.58975  0.53818  0.87351  1.0000
  H   H2893     1.0  0.55981  0.53694  0.83533  1.0000
  H   H2894     1.0  0.52993  0.54857  0.86180  1.0000
  H   H2895     1.0  0.57641  0.54879  0.90266  1.0000
  H   H2896     1.0  0.60647  0.53528  0.87672  1.0000
  C   C1648     1.0  0.86002  0.59724  0.79150  1.0000
  C   C1649     1.0  0.84695  0.60728  0.80708  1.0000
  H   H2897     1.0  0.84453  0.62491  0.80482  1.0000
  C   C1650     1.0  0.62640  0.53372  0.94616  1.0000
  Fe  Fe187     1.0  0.49662  0.60178  0.95255  1.0000
  H   H2898     1.0  0.64007  0.62255  0.96478  1.0000
  H   H2899     1.0  0.63823  0.52306  0.93722  1.0000
  N   N90       1.0  0.93415  0.58254  0.81945  1.0000
  C   C1651     1.0  0.92980  0.60110  0.80046  1.0000
  C   C1652     1.0  0.91757  0.58575  0.83862  1.0000
  C   C1653     1.0  0.95636  0.58306  0.82495  1.0000
  C   C1654     1.0  0.93452  0.56054  0.81464  1.0000
  C   C1655     1.0  0.91330  0.55698  0.80813  1.0000
  C   C1656     1.0  0.94466  0.59934  0.77927  1.0000
  Fe  Fe188     1.0  0.68707  0.50200  0.83348  1.0000
  C   C1657     1.0  0.89439  0.59783  0.83447  1.0000
  C   C1658     1.0  0.87879  0.59633  0.85518  1.0000
  C   C1659     1.0  0.91638  0.53526  0.80128  1.0000
  C   C1660     1.0  0.93953  0.61978  0.76190  1.0000
  C   C1661     1.0  0.51626  0.71114  0.90279  1.0000
  H   H2900     1.0  0.93087  0.61696  0.80426  1.0000
  H   H2901     1.0  0.91298  0.60287  0.79661  1.0000
  H   H2902     1.0  0.91566  0.56966  0.84962  1.0000
  H   H2903     1.0  0.92332  0.59546  0.84806  1.0000
  H   H2904     1.0  0.95714  0.59968  0.82716  1.0000
  C   C1662     1.0  0.53819  0.71635  0.90540  1.0000
  H   H2905     1.0  0.83487  0.56250  0.91394  1.0000
  H   H2906     1.0  0.93797  0.54717  0.82873  1.0000
  H   H2907     1.0  0.90802  0.57014  0.79463  1.0000
  H   H2908     1.0  0.90021  0.55636  0.82184  1.0000
  H   H2909     1.0  0.96214  0.59760  0.78084  1.0000
  H   H2910     1.0  0.94189  0.58518  0.77359  1.0000
  H   H2911     1.0  0.64363  0.56147  0.93370  1.0000
  H   H2912     1.0  0.95010  0.56369  0.85815  1.0000
  H   H2913     1.0  0.89486  0.61547  0.82722  1.0000
  H   H2914     1.0  0.88752  0.59087  0.82362  1.0000
  H   H2915     1.0  0.88519  0.60252  0.86701  1.0000
  H   H2916     1.0  0.86277  0.60636  0.85202  1.0000
  H   H2917     1.0  0.87633  0.57908  0.86177  1.0000
  H   H2918     1.0  0.92881  0.53519  0.78708  1.0000
  H   H2919     1.0  0.52243  0.67946  0.92427  1.0000
  H   H2920     1.0  0.90078  0.53298  0.79701  1.0000
  H   H2921     1.0  0.87284  0.56655  0.78243  1.0000
  H   H2922     1.0  0.94314  0.63445  0.76615  1.0000
  H   H2923     1.0  0.51305  0.84098  0.98058  1.0000
  C   C1663     1.0  0.50035  0.82468  0.88783  1.0000
  H   H2924     1.0  0.51770  0.87379  0.81483  1.0000
  C   C1664     1.0  0.77114  0.54542  0.93568  1.0000
  N   N91       1.0  0.90718  0.52311  0.91365  1.0000
  H   H2925     1.0  0.51561  0.82674  0.89277  1.0000
  C   C1665     1.0  0.50217  0.51148  0.87649  1.0000
  C   C1666     1.0  0.84079  0.57178  0.82913  1.0000
  C   C1667     1.0  0.91694  0.54347  0.91192  1.0000
  C   C1668     1.0  0.94219  0.54097  0.90985  1.0000
  H   H2926     1.0  0.85077  0.54208  0.75696  1.0000
  H   H2927     1.0  0.82715  0.60256  0.83763  1.0000
  N   N92       1.0  0.53806  0.87446  0.95806  1.0000
  C   C1669     1.0  0.62455  0.62915  0.95814  1.0000
  C   C1670     1.0  0.94931  0.56204  0.91151  1.0000
  H   H2928     1.0  0.98727  0.55885  0.86694  1.0000
  C   C1671     1.0  0.90274  0.51116  0.93658  1.0000
  C   C1672     1.0  0.84348  0.49854  0.76400  1.0000
  H   H2929     1.0  0.55106  0.70191  0.90475  1.0000
  H   H2930     1.0  0.50439  0.72650  0.90220  1.0000
  C   C1673     1.0  0.51728  0.86879  0.95365  1.0000
  S   S371      1.0  0.49819  0.94201  0.83851  1.0000
  H   H2931     1.0  0.91214  0.55624  0.89778  1.0000
  H   H2932     1.0  0.54468  0.85994  0.82006  1.0000
  H   H2933     1.0  0.94981  0.53746  0.89423  1.0000
  S   S372      1.0  0.50930  0.56590  0.95892  1.0000
  H   H2934     1.0  0.96592  0.54604  0.75902  1.0000
  H   H2935     1.0  0.55728  0.90451  0.77040  1.0000
  C   C1674     1.0  0.57664  0.85229  0.96502  1.0000
  H   H2936     1.0  0.77125  0.56330  0.92996  1.0000
  C   C1675     1.0  0.98256  0.57329  0.74290  1.0000
  C   C1676     1.0  0.52005  0.83846  0.82719  1.0000
  H   H2937     1.0  0.52080  0.86576  0.89462  1.0000
  H   H2938     1.0  0.96736  0.56016  0.90919  1.0000
  C   C1677     1.0  0.55150  0.85341  0.96844  1.0000
  H   H2939     1.0  0.84121  0.53864  0.90263  1.0000
  H   H2940     1.0  0.94335  0.56558  0.92749  1.0000
  H   H2941     1.0  0.63006  0.64689  0.98768  1.0000
  C   C1678     1.0  0.92467  0.51585  0.87668  1.0000
  H   H2942     1.0  0.89440  0.49700  0.93740  1.0000
  H   H2943     1.0  0.53633  0.95079  0.77670  1.0000
  H   H2944     1.0  0.87435  0.56023  0.91685  1.0000
  H   H2945     1.0  0.95922  0.50357  0.87044  1.0000
  H   H2946     1.0  0.90261  0.49776  0.98028  1.0000
  H   H2947     1.0  0.49442  0.68023  0.96506  1.0000
  H   H2948     1.0  0.85167  0.56336  0.88872  1.0000
  H   H2949     1.0  0.92771  0.53302  0.87215  1.0000
  H   H2950     1.0  0.49678  0.64217  0.87688  1.0000
  H   H2951     1.0  0.53732  0.72125  0.92076  1.0000
  H   H2952     1.0  0.94970  0.61769  0.74668  1.0000
  H   H2953     1.0  0.83588  0.50213  0.91980  1.0000
  H   H2954     1.0  0.84601  0.50531  0.74651  1.0000
  C   C1679     1.0  0.55014  0.88443  0.93700  1.0000
  C   C1680     1.0  0.52133  0.49844  0.86482  1.0000
  H   H2955     1.0  0.70023  0.50818  0.97164  1.0000
  H   H2956     1.0  0.56499  0.94023  0.77371  1.0000
  C   C1681     1.0  0.55855  0.77877  0.86938  1.0000
  S   S373      1.0  0.87124  0.50402  0.86323  1.0000
  H   H2957     1.0  0.56370  0.52757  0.93390  1.0000
  H   H2958     1.0  0.75557  0.52013  0.93140  1.0000
  S   S374      1.0  0.53173  0.74769  0.97584  1.0000
  C   C1682     1.0  0.58828  0.56412  0.98857  1.0000
  H   H2959     1.0  0.49576  0.98250  0.74324  1.0000
  H   H2960     1.0  0.55530  0.87196  0.92714  1.0000
  C   C1683     1.0  0.60369  0.50252  0.98292  1.0000
  H   H2961     1.0  0.53301  0.93214  0.97928  1.0000
  H   H2962     1.0  0.61715  0.49437  0.93189  1.0000
  S   S375      1.0  0.66407  0.52883  0.84604  1.0000
  C   C1684     1.0  0.84443  0.53478  0.77358  1.0000
  H   H2963     1.0  0.92876  0.51661  0.95207  1.0000
  H   H2964     1.0  0.56171  0.90576  0.96446  1.0000
  H   H2965     1.0  0.51833  0.70613  0.88742  1.0000
  H   H2966     1.0  0.96561  0.50369  0.81106  1.0000
  H   H2967     1.0  0.87829  0.51491  0.90549  1.0000
  H   H2968     1.0  0.50634  0.88369  0.94689  1.0000
  H   H2969     1.0  0.92134  0.52134  0.81439  1.0000
  H   H2970     1.0  0.62353  0.64723  0.95282  1.0000
  H   H2971     1.0  0.78467  0.50422  0.97783  1.0000
  H   H2972     1.0  0.59155  0.54024  0.95514  1.0000
  C   C1685     1.0  0.96734  0.49485  0.79807  1.0000
  C   C1686     1.0  0.56826  0.50950  0.93823  1.0000
  C   C1687     1.0  0.50860  0.69316  0.92170  1.0000
  C   C1688     1.0  0.54800  0.49956  0.93865  1.0000
  H   H2973     1.0  0.62137  0.56902  0.97630  1.0000
  H   H2974     1.0  0.94814  0.55734  0.80202  1.0000
  C   C1689     1.0  0.97811  0.58952  0.97373  1.0000
  H   H2975     1.0  0.53380  0.96193  0.74125  1.0000
  H   H2976     1.0  0.89140  0.52183  0.94610  1.0000
  H   H2977     1.0  0.54672  0.68286  0.97927  1.0000
  C   C1690     1.0  0.75899  0.50501  0.81501  1.0000
  H   H2978     1.0  0.52164  0.79492  0.85005  1.0000
  H   H2979     1.0  0.59480  0.51702  0.98890  1.0000
  C   C1691     1.0  0.54407  0.80095  0.86903  1.0000
  H   H2980     1.0  0.60021  0.53060  0.93123  1.0000
  H   H2981     1.0  0.95265  0.51213  0.74944  1.0000
  H   H2982     1.0  0.74646  0.50370  0.86263  1.0000
  C   C1692     1.0  0.62738  0.55721  0.93360  1.0000
  C   C1693     1.0  0.83455  0.50789  0.95116  1.0000
  S   S376      1.0  0.82958  0.55644  0.85344  1.0000
  H   H2983     1.0  0.73873  0.54648  0.92913  1.0000
  H   H2984     1.0  0.53300  0.86457  0.74220  1.0000
  C   C1694     1.0  0.60343  0.52786  0.94795  1.0000
  H   H2985     1.0  0.50416  0.94454  0.76758  1.0000
  H   H2986     1.0  0.82318  0.52299  0.94818  1.0000
  Fe  Fe189     1.0  0.83772  0.52005  0.85664  1.0000
  N   N93       1.0  0.54406  0.92703  0.74334  1.0000
  H   H2987     1.0  0.56182  0.88204  0.74918  1.0000
  C   C1695     1.0  0.75530  0.53790  0.92471  1.0000
  H   H2988     1.0  0.51974  0.90428  0.96620  1.0000
  H   H2989     1.0  0.55177  0.81322  0.85630  1.0000
  C   C1696     1.0  0.85367  0.56164  0.81348  1.0000
  H   H2990     1.0  0.94305  0.57607  0.89909  1.0000
  H   H2991     1.0  0.94920  0.52748  0.92216  1.0000
  H   H2992     1.0  0.50063  0.85527  0.85017  1.0000
  H   H2993     1.0  0.58311  0.85186  0.94819  1.0000
  H   H2994     1.0  0.52282  0.90358  0.74512  1.0000
  H   H2995     1.0  0.49718  0.86673  0.98496  1.0000
  C   C1697     1.0  0.62538  0.62004  0.93841  1.0000
  H   H2996     1.0  0.54608  0.84936  0.98586  1.0000
  H   H2997     1.0  0.95771  0.50534  0.78562  1.0000
  H   H2998     1.0  0.56574  0.92077  0.90825  1.0000
  H   H2999     1.0  0.88769  0.53834  0.88796  1.0000
  H   H3000     1.0  0.60997  0.62600  0.93122  1.0000
  H   H3001     1.0  0.58169  0.86651  0.96865  1.0000
  H   H3002     1.0  0.76605  0.54195  0.95313  1.0000
  H   H3003     1.0  0.54880  0.83936  0.96233  1.0000
  C   C1698     1.0  0.92137  0.50736  0.90121  1.0000
  H   H3004     1.0  0.52894  0.51015  0.85137  1.0000
  H   H3005     1.0  0.85667  0.54401  0.81602  1.0000
  H   H3006     1.0  0.75878  0.52159  0.80575  1.0000
  H   H3007     1.0  0.49867  0.88059  0.77797  1.0000
  H   H3008     1.0  0.62503  0.55878  0.91679  1.0000
  C   C1699     1.0  0.52962  0.85865  0.81404  1.0000
  H   H3009     1.0  0.80614  0.49866  0.75466  1.0000
  H   H3010     1.0  0.72314  0.50327  0.88262  1.0000
  C   C1700     1.0  0.86795  0.54539  0.91622  1.0000
  S   S377      1.0  0.50613  0.76714  0.92135  1.0000
  H   H3011     1.0  0.63906  0.62546  0.92638  1.0000
  H   H3012     1.0  0.52100  0.85871  0.94145  1.0000
  H   H3013     1.0  0.67917  0.53090  0.94322  1.0000
  S   S378      1.0  0.67188  0.52349  0.90387  1.0000
  H   H3014     1.0  0.49528  0.81008  0.89947  1.0000
  H   H3015     1.0  0.50578  0.83724  0.81992  1.0000
  H   H3016     1.0  0.96937  0.58018  0.81173  1.0000
  H   H3017     1.0  0.86008  0.49511  0.76897  1.0000
  H   H3018     1.0  0.56559  0.88904  0.93906  1.0000
  H   H3019     1.0  0.61462  0.56893  0.94065  1.0000
  S   S379      1.0  0.83751  0.50356  0.83025  1.0000
  C   C1701     1.0  0.58766  0.83152  0.97888  1.0000
  N   N94       1.0  0.60013  0.50509  0.96013  1.0000
  H   H3020     1.0  0.78788  0.53650  0.93254  1.0000
  H   H3021     1.0  0.98542  0.53744  0.79106  1.0000
  H   H3022     1.0  0.50723  0.72997  0.95676  1.0000
  H   H3023     1.0  0.86233  0.53715  0.93267  1.0000
  H   H3024     1.0  0.54279  0.73005  0.89228  1.0000
  C   C1702     1.0  0.53185  0.89022  0.97275  1.0000
  C   C1703     1.0  0.53755  0.90481  0.92323  1.0000
  H   H3025     1.0  0.85838  0.52734  0.78271  1.0000
  C   C1704     1.0  0.54440  0.91898  0.76701  1.0000
  C   C1705     1.0  0.69986  0.50207  0.95769  1.0000
  C   C1706     1.0  0.96352  0.56575  0.84488  1.0000
  H   H3026     1.0  0.76980  0.50408  0.89096  1.0000
  H   H3027     1.0  0.97041  0.60683  0.96872  1.0000
  H   H3028     1.0  0.62803  0.60188  0.94265  1.0000
  N   N95       1.0  0.74804  0.53506  0.88759  1.0000
  C   C1707     1.0  0.75426  0.54413  0.86422  1.0000
  C   C1708     1.0  0.72413  0.54287  0.89328  1.0000
  C   C1709     1.0  0.76182  0.54279  0.90019  1.0000
  H   H3029     1.0  0.60307  0.60616  0.97578  1.0000
  C   C1710     1.0  0.77759  0.53546  0.85471  1.0000
  Fe  Fe190     1.0  0.53788  0.77755  0.98461  1.0000
  C   C1711     1.0  0.71736  0.56796  0.89116  1.0000
  C   C1712     1.0  0.69303  0.57371  0.89840  1.0000
  C   C1713     1.0  0.78290  0.54782  0.83174  1.0000
  C   C1714     1.0  0.68683  0.50693  0.92378  1.0000
  H   H3030     1.0  0.75304  0.56224  0.86106  1.0000
  H   H3031     1.0  0.74257  0.54113  0.85462  1.0000
  H   H3032     1.0  0.71432  0.53819  0.88296  1.0000
  H   H3033     1.0  0.71839  0.53452  0.90975  1.0000
  H   H3034     1.0  0.76213  0.56069  0.89449  1.0000
  H   H3035     1.0  0.77911  0.53501  0.89747  1.0000
  H   H3036     1.0  0.52708  0.84414  0.85670  1.0000
  H   H3037     1.0  0.55932  0.90234  0.89387  1.0000
  H   H3038     1.0  0.78994  0.53765  0.86381  1.0000
  H   H3039     1.0  0.77937  0.51780  0.85486  1.0000
  H   H3040     1.0  0.79920  0.54065  0.82489  1.0000
  H   H3041     1.0  0.63148  0.53197  0.96197  1.0000
  H   H3042     1.0  0.72628  0.57433  0.90095  1.0000
  H   H3043     1.0  0.72054  0.57680  0.87436  1.0000
  H   H3044     1.0  0.68326  0.56883  0.88819  1.0000
  H   H3045     1.0  0.68878  0.56526  0.91520  1.0000
  H   H3046     1.0  0.68862  0.59165  0.89712  1.0000
  H   H3047     1.0  0.77065  0.54681  0.82183  1.0000
  H   H3048     1.0  0.78327  0.56531  0.83118  1.0000
  H   H3049     1.0  0.57642  0.50922  0.81445  1.0000
  C   C1715     1.0  0.84239  0.50050  0.97089  1.0000
  H   H3050     1.0  0.56559  0.51347  0.97042  1.0000
  H   H3051     1.0  0.90990  0.51524  0.86995  1.0000
  H   H3052     1.0  0.53379  0.85737  0.79714  1.0000
  H   H3053     1.0  0.56009  0.91144  0.80635  1.0000
  H   H3054     1.0  0.74589  0.50403  0.90975  1.0000
  C   C1716     1.0  0.84172  0.49614  0.93508  1.0000
  C   C1717     1.0  0.68788  0.51491  0.94163  1.0000
  H   H3055     1.0  0.49498  0.84279  0.92156  1.0000
  H   H3056     1.0  0.55936  0.77366  0.85417  1.0000
  H   H3057     1.0  0.49690  0.68356  0.88653  1.0000
  H   H3058     1.0  0.49796  0.93325  0.74704  1.0000
  C   C1718     1.0  0.74021  0.49520  0.81845  1.0000
  H   H3059     1.0  0.50828  0.97518  0.79636  1.0000
  H   H3060     1.0  0.83450  0.54808  0.78087  1.0000
  H   H3061     1.0  0.50800  0.52256  0.88430  1.0000
  H   H3062     1.0  0.51478  0.78639  0.87768  1.0000
  C   C1719     1.0  0.98895  0.55087  0.77793  1.0000
  H   H3063     1.0  0.79178  0.50158  0.82239  1.0000
  S   S380      1.0  0.58304  0.70704  0.97156  1.0000
  H   H3064     1.0  0.53470  0.50527  0.95046  1.0000
  H   H3065     1.0  0.50940  0.66062  0.90383  1.0000
  H   H3066     1.0  0.60562  0.83058  0.97533  1.0000
  S   S381      1.0  0.98979  0.49940  0.90050  1.0000
  C   C1720     1.0  0.55056  0.89924  0.97860  1.0000
  Fe  Fe191     1.0  0.50400  0.90837  0.85935  1.0000
  S   S382      1.0  0.91221  0.56587  0.74743  1.0000
  C   C1721     1.0  0.96078  0.49728  0.74356  1.0000
  H   H3067     1.0  0.58320  0.81677  0.97554  1.0000
  C   C1722     1.0  0.77762  0.49372  0.82438  1.0000
  C   C1723     1.0  0.83032  0.51764  0.77400  1.0000
  C   C1724     1.0  0.51311  0.84033  0.85067  1.0000
  H   H3068     1.0  0.93773  0.50216  0.90654  1.0000
  C   C1725     1.0  0.57659  0.50310  0.96020  1.0000
  N   N96       1.0  0.50440  0.82089  0.86555  1.0000
  S   S383      1.0  0.71601  0.51024  0.80920  1.0000
  S   S384      1.0  0.82086  0.49553  0.88185  1.0000
  H   H3069     1.0  0.58088  0.50416  0.92573  1.0000
  H   H3070     1.0  0.92211  0.62246  0.75950  1.0000
  Fe  Fe192     1.0  0.66838  0.50727  0.87812  1.0000
  H   H3071     1.0  0.60432  0.66229  0.98360  1.0000
  H   H3072     1.0  0.54427  0.80503  0.88452  1.0000
  C   C1726     1.0  0.94356  0.50170  0.86605  1.0000
  C   C1727     1.0  0.98201  0.57201  0.85336  1.0000
  C   C1728     1.0  0.52055  0.80014  0.86527  1.0000
