data_image0
_chemical_formula_structural       H4C3HS3H2FeHCHC2H2CHCHC2H2CHCH2SCHC2H3CH3CHCHCHCHNH2CH2CH4CH2C2H3SHCH4C5HCNH6CH3C4H5C2HCHFeCH2SFeCH2C2HC2HCSHSH2CSH2C2H3CH2C3H2SCHNC8H18C2HCHC3SFeH5CH2C3HCH5FeH4CHCHCH2CFeC2HCHCSH2CHCHCH6C2H2NH4C2HCH2SHCHCH2C2H2CHNCH4SHCNH3CSHCH3C3SHSC2SH3C2SCHCSH9SH3CH4CHCHSH2CH5CH8C3SH2CH2CH2CH7SH4SHCH3CFeCFeHFeHCHFe2CHCHC2HNCH6CH3CHC2H2CSH2SHCH4CSCH2C2H2CH3CSCH4CHCHSH3SCH2CSH6CHFeHCNHNH5C4HC2H2CHCH2CH2C2HCHC9H6CHC2H12C3HNH4CH3CHCH2SH2C2HC2H5CH3CHC3H2CH2FeNHC2H3C3HSC2HSCH6C2HCH8CHSH3CH2FeHCHCH2SHSHCNHFeCH2CHCS2H2FeSH4CH2FeC2HFeS2H2C5H2FeS2FeS2FeSFeS3FeNHCH2SCFeSHSHCFeSHFeSH2CHCSFeS2FeSFeS3H3SCHC2HCFe2S2FeS2FeSFeS3FeC6H3C6H4CH2CH3C6H4C3H6C7H4CHSCHC3HC7H4C6H5CSHC2HC7H5SC5HSHCHC4H4CH2FeH5C3H3CHC2H2SC2NC12H20CSH6C2H9CHCH3FeHC2H2SNHC2H4CH2SCH2C2H2SH3CHSH5C3H3FeH10CH9NCHCHFeC2HSC2H14FeHCH2C3H5SH5CH4CH4SHCSH5CHCH3CSH2CH7C2H3CHNHSH5CNH2SC4FeH4C3HFeHC2H2C2NC3SCHNC2H4CHC2H8FeH2CHC2H5CHCH3SHCH9C3HC2H8C2H3C2H9SHNH2SHC2SCH2NC2HC2H2C2H4CH4C2H2CH5C3HC3HCH4C2H3SH3C2H2NCHCH3CH2CH8CHCHC2H6CH2CFeHFeCH4C3HCFeC2NCH8C2H2C2H2C3H3CH5SH5C2H2CH2C2H3CH4FeHSHSCSHS2CSC2S2CSC3H2CH3CHCH3C2HCH7CH3CNH2C3HCH3NSHCH3CSCH2CH4SH3CSC3HCHCHCHCH8SH2C2SH2CHC5H2C3H8C4HCH6CFeHFeCH3C2H3C2H3C2SCHCSH5SCHCFeS2FeS2FeSFeS3HSHCSFeSC3H2SCH6C2H2C6H3C6H4C2H4CHC9H4CH4CH4C6H6CHC2HFeHCH2SHCH10C2H2CH2SH2CHCH2CH2FeHC2H7CH2CH8C2H3C4H4CH3C3NHCNCHCH2CH6CH5CH4C2H4CHSHCHCHC2HCH3CH6C5H10FeCHCH2SCH3CH8CH2CH2CSH2CFeH2CH2CNCH3CH5CH2CH2C2H8CH3SC2NC2NCHC2H2C2HSCSH2C2NCH4CH4NCHFeC3HFeHC4H4SH8CH3NH5C3HCH4SH5CHCNCSH2C2HC2H2CHSHSFeH2CHSCH2CH2C2FeC2H4CH4C2HSH2SC2FeH3SCH2FeCSFeCH4SHFeCSHSHFeS3C6H4CHC4H4C2HCH5C2H2CHFeH4NSHC2H4SHCH6CH4CH4C2H3FeCHC2H3NHFeHC2H4C3H6C2H2SCH3NCSCH4CH3CSHCH4C2H4CH4CH2C2H3C4HSH3CH4C3SHSH2NH3CHC3H2C2H3C3HC2HCHFeHCHSHCH2NH3C3FeH2C4SHCH2SHCH3C2H3CH4NCHCFeH5CH2CH3C2SCH5C3H2CH5CHC3SHSHC2HCHCH3CSH4CFeC2HCH2SHFeC2H5CFeH16C2H10C2S2HFe2S2NHFeSFeCSHFe2CSFeHSCHSCS2CFeS2FeS2FeSFeS3C6H2CH2CHC8H6CH4FeSHC6H4C2HC2H2CHSH6CH3C4H4CH2CSH5CHCHC6H7CH2SCH2CH2C2HCH2CHC3HCH3CH12C2HNH2CH8CH2C4H3FeH2CH4C3SHC2H3CH3C2H4CH4FeC2HC2NC7HC2H13C2H9C3HCH7CH4CHNH2NHCHCHC2H2NH2SH2CH4C2HSHC2H3CH3CH5C2H3C2SCHCH3SH2CH4CHNHCFeH3CH2CHCH4CH2CHCHCH2CHCHCH3CH2CH5SH2CH5CH3NHC2HCH2C5H2CHC2H2NC2HCH6FeH2C2H2CSHC4HCHCSH4CH2CSHSH4FeS2FeSC2S2FeHSFeCSCHFeSHSH2FeH2FeC2H3CHSH3CFeS3CFe2S2H2SCNFeS2CH2CH2C6H5CSNSH5C6H7FeNH2CH5C2H2FeH5SH2C2HC5H4CSCHC6H4C5H2CFeH4C8H4CH5CH2CH2CH3C2H2CH3SCH15FeC2H3FeHNH5C3HNHC2HCHCHC2HCHCH4SC2H2CH4CHCH2CH6NC10HCH22CH5CH3NC6H12CHC6H3CH6CH3CH2CHCH2C2HCH2CHCHCHCH4CH3CH2CHCH3CH2C3H5C2H2C2H2CH6CH2CHCHC3H2CHNCH6CH3C2H3C2HCHCNC2HC2HCHC5SHFeH3NFeH2C2H2CHCHCH4CHSH2CHCH2FeHSCHCH3SFeH2SHC2HC2SH2C2SHSCHC2FeS2CH5SCHC2H2FeH2SH6FeC2FeC2HCH4CH3SFeH2CH3FeHCHFeH4SCH3C2HSH2CSC2SC4H2C2HCNSCHNSH3CNC2S2HCH2CHC2HCFeH9CHCFeSHCH2CFeH2CHCH4C4HSCH2SHCH2CH3CH4FeH2C2SHSHSHCH4C2FeS2FeS2FeSFeS3FeCSFeSCFeSFeS2NSCSHSH3CHSCHSH4CH2C4H2FeHCHCH2CH4CH3CHFeH2CHCHCHC4H4FeC6H4C6HCH2C6H4FeHCH2C6NH3C2H3CH2CH9NH4CH6CH2CFeC2HCNCHSCH5SHFeHSHCH2CH3CH2CHNH2SHFeH3CHCHSH2CSCFeC4H2C2SCSCSCH2CH3CHFeH3C2HCH5CHCHNH3CH5CH6CH3CSCH2C4H6CHCH4CH3CH2CFeC2NFeH7CS2H4C2H7CSCHC3H3CHC2H2NH2CH6CHCH3C2H6CH4CH3C2HCH3C2H2SCHC2H4CH2C2NH6SH3CHSHCHC2H4NSHCHSHCH2CHCHCH3NHCH5C2H2C3H3CHSHCH2CHCHCH2CH2CH4SFeC2H4C3HSCH5CH2C2H3FeH2CH2CS2FeSFeSHSH3FeHCHCHCSFeS2FeSFeS2HC3SH3C3H3CHC2H2CHCSH4SHC2HC6H2CHC4H2C6H4FeC2NC12H28NC12H27NC2H6SCSCSHC2HNH4CSCHCHSCH3SHCHCSH4FeSH3FeC2H2CHC2H3CFeHCFeCNH3C3HSHC3HSFeCH2CH3SHC2H7NCH2FeHSH2SH2SH2C2H8S2H2SCHCHFeSH2CHCH2CH3CHSNHC2H2C3H9C3HCH3CSH3NH4FeCH2FeHCHFeHSH8NC4H2C3HC2H8CHCH4CH3CH3CH5C6HC3SH3C3HC3H2SH2FeH6C2HC2SNHC2H2CHC2H2CHC3SCH7SCSCHCSC2FeH5C2H3NHCHC3H2CHC2H2FeCHC2HCH3C3SCHC2FeHSHC2H3CH2CHCH3CHCNHC2H4NS2CH2SH3CHC2HC2NH4CHFeSFeH2C2H2C2H2SH2C2H12SH2SH2C2HFeHC2H2C2H3CHFeHCFeH2CH7CH2C2FeHC3H2CHSC2H2C2H7C2H2CH2CSC2HSCHC3HCH12CHSH9C2H2SC2HFeH5CHCH2CH4C2H2CHC3H4CHC2HCHSH2C2H4SCSH5CH4SH2CHC2SHCH3SHCHCH6FeH2C2NH2SHC2H2CH2CHFeH2CHCH4C3H7S2C2HFeCS2H3CH2CFeS2HCHFeHFeS3FeS2FeS2HFeS3FeS2FeS2FeSFeS3C2H2SCHFeCSCSCHCHFeS2H2FeSCHC2H2C8H4C4H3CHC6H4C6H9C6H4C4HCH4NC4SH2SC7H4FeH2C4H8CFeHCHCH5NH2CH2CH2C2NC12H32CH3CSCH6CHCHSHC3HCH2SC2HCH4NH2CHCHFeH6SCH4CH2FeH4CFeCH3CH2CNCH4SH2CH4C2HCHCSCHFeH3CNC6H14NC12H29NCHC2FeC2H4C2SH5FeSH2CH2C2FeHCSH2FeHCH4CH2CSHCH3CH2C2HCH2FeH4SCH5C7HCHC3H4SHCHC4H2CH2CHS2H4FeH6CH2CH2C2HC2H2CH6SCHC4NC2H5FeHFeHSCSFeH2C2H2CH5CHS2CH6CHC3HCHCHCHCHCHCH2FeH5CH3CH5CHCH4C2H7SH3SH3SCH4CFeS2FeS2Fe2S3CSCFeS2FeS2Fe2S4CHC2H7CH3C5H2C2SH2CHC5HC4H3C2H2C6H4C6H9CHCHC7H5CHCH2CH2C8H4C4NH2SCH2SHSH3CNC4HCSCHC3H5CS2H2NH8FeH8NC12H26CH2CSC2HC3HCH3SH3SCHFeCH6FeHNSC2H2CSCH7C2H2C2H2C2H2CH2CHCH3C3H5C2H2CFeHCFeC2H4SH3C2H5SCH2CH2FeHCSCHCSCH3C2H2FeCSHNFeH2CH11NC12H20CH7SC2H3CH6NHCH7FeH3CNC12H28CHFeHCHCHC2H6CFeHCH5FeH2CH3CH2CH2FeSHFeS2FeSFeS3CHSH3CH2S2FeSHSC2H2C2SCH3SFe2HC2H2SHC6H4CFeC4FeH3CH3FeCHSH2CH2C2H4C7H6CH2CH2CHC2HC3HC2H3C2HC2HSH9CH3CH5CH2CHC5H3C3HFeHSC2H3C2HSH3SCH4CHSHCH5C2HSHC2HS2C4H13CHC3H2CH4FeCH6NHCH2CH3FeCH4SHCHNH2CHC2HCH2NHCHC2HNH2C3HCH8C2HSH3C2H3CH2SC2H2C3HC2H4C2HS2H3CHC2HCFeCHCHSC2H3NH2CNC7H2C2H16CH2CNC2H6S2HSHCHSH3C3HC4H2CHFeHFeHSHC2H2C2H2CHCHC3HCHC2H3CHSH4NHCH7SCH5FeHC3HCHCH2CHCH2CHSCHSH3CH4CH3NCH4NCHCHCHCNSHC2H4C2H3C3HCHC2H4CH2CSFeSH2FeCHCHCSCFeSC3HCHSHCHSH2CH2CH3C2HSH4S2HCHFeH2FeCH2FeHC2HCH5CH3CH3C3HCH3SH2FeH2FeHCHSCSCH2NHSH2CH4FeH2CHCHCH4CH5CHCH3CH3FeH3C2HCH3C2H2CH2CH6SHCHCSH2FeCH3C2NSHCH5CHC2HCHCH3CHCHFeCFeS2FeS2HCFeS3H2C2HC2SHCHCHSC2FeS2FeS2FeSFeS3HNHFeHSH3S2HFeH2C2HCH4NH9C6HFeHC6H4C2H6SCH6C6H8CSCH3C5FeC3HCH2C6H5C2FeH3CHC4HCH8CH5NC12H23CH4CH4CSCFeHC2H11CH2CHCH2CHNSHCHC6H7CH2CH3CH8NHCHCHC4H5CH2C2HNC3HFeC2H3SH3CH4CNH9CH6CH4C3HSH2CHCH2SH3C2H5CHNC7HCHC2H2CH5SH6CHCH2CH8C2H2FeH3FeCH2FeSCSHCHFeH5C2H3CS2FeSFeS2FeSFeS3HCSH3FeH2SH3C2H3CHSH2CH4SH4FeH5CHC2H4CHCH2C2HCH3C2NS2H2C6H4C6H4C6H3C5H2C6H4CFe2S2CH6CHCHCH2CHFeCHCSHC2SH4C3HCH2CHNCH2FeHCH2CHCSH2CH2C2H2FeH7CSH2C3H10CH3CHSHSCHSCSH2CHCH4C2NC3H2CSH3CH7C3H2SHC3H3CHCHCHSHCFeH2CHCHCSHFeHCH3C2H4CHC2HCH6CH5CH7CHCH2CSH2CH3SH3CHCNCHSC2HCH4C2H2C4H4CHNH3SH3NHCHFeHNHCHCH2CH8CSH2CHCH4CHCSC3H2SHCH4CH5C2SCNC12H28CHCH3C4H7NCH2CH4C3FeCH2CHCHCSCH2CHFeH2CNHCH6C4HSH7CH8CH3C3HCHNC2H2FeHCH3SH4NCHCFeSHFeS2FeSFeS3HFeS2FeSHFeSFeS4C6H4SHCHC8H4CSH4CHCHC6H4CHFeSC2H4C2NHC5H5CHCH3CH2CH5CHCH2C2SHS2H5SCSHCH2S2C3HSCH18CNHSH8C2H4C2H4CH2NH8CH2Fe2H3CH2CH3C2H2CHSFeC2NC2HFeH2CSCH2CHCH2CSC2FeH2CH2SC2H4C3HC2SH4C2HCHCHFeH2NC6H3C2H4CH8CFeCHFeH15FeH2SCH3SHNC2HC3H12C3H2FeSCHSH4CH2S2H2CHCHC2H2C2HCSCHSHC5HC2HSCHS2HCH4C5HC2H3CHCH2CH3FeCH4C3H3CHCSHFeH3CH2C2H2C2H2CH6CHCSCH3C3H2C2H2CHCHCHCH3CH2CH3C3HCH2CH2C2H2FeH2C2HCH6CHCHCHCHFeC2H4C2H2SH7CH3SH2CHC2HC2HCH6C2HNFeH2NSHFeH2SC3NCH4CH2C4H3FeHCHSHCH2C2H2C2HC3H5CH2C2SH2CHC4H4CH8CFeSC3H3SFeH7SHC2H2SH2CH3SCSHFeCHCH2SH6CHCNCH3C2HCH2SH4NCSH4CHSFeS2Fe2S3FeS2FeSFe2S3C6H2CHCH4NCH3C6H5CH3CH5SHSC6H8CSCH3CSHSCH3CHCSFeCHFeH2C2H2CH2C2NH2SC2H2SHCH4C5HC2H2CSH2SCHCH2C3SHC3H4CHCH6NC3H2CH3C2H3CH14CHCH5C2HCNCHC2HC2HCHC2H2CH6SH7C2HNHCH5CH4CHCH3CHSHCHCH5CHC2H2CH3CH2CH4CNH2C2H5C3H3NC2H5C4FeHFeCHCHC2H2CH2CHCH3CHC4H9CH2CH3C2FeH2C4H3CHCH5CH3FeCHC2HC2HC3SC3SHCNH7CHCH6CHCH2CHCHCH3CHCH7CSCH2CH3CH4FeH2SHCH2CH12SHNHC4H5CHCHNHCH3C2SNC3HSFeHSFeSFeH2CHFeSHFeSHFeSFeS4C6H6CH4C6H4CH3CH2CH7SCH2CH10C2H5SHC2H3C2HCH5CHCH2C2H5CH4CH3CH8C2FeC3H3CH2CNH4CSH2C2HCFeH5FeCH2C2H2FeH3C3H3C2H6C2H7C3H10CH3CH3CH2CH2SH3CHCHCHCH2NSH2SH3SCH2FeH3SHFeH7CH4CHSH4SCHCHS2CH3C5SHC2NH3CHCHCH6CH2C3H2CHCHCH4C2HCH3C2HCHSCHC2HCHCH2CHC3H3NC3HSCH2CH2CHC2NH3SCHCHCH4S2CHC2HCHC2HCH6FeCH2SNC2HNH3C2H2SCH3FeCSCH5C2H2CH2C3HCHCHC2SCHC2H3C2HCSFeCHCH3SH5C2H2CH2FeCH2CH2CHC3H2CH2NCSHSC2H3CHC2HCH6SH2NH2CHC2H2CHCH7CH2C3SHCHCH4CH5CHC2HNHFeNH4C2HCSNCHC2H4SH9CHCH3SHCFeHCHSCH2SCH2CH4FeHSH4CSCH3FeS2FeS2FeSFeS3FeS2FeS2FeSFeHS3H4CHCHCSHCHFeCHCHCH3SCH11CHFeH2C2HFeC2HC6H4C3H2C6H4CH2C6H3SCHCHC7H8CHCHCH7C2HNC11H15Fe2CH8CH3CSFeSCH4FeHCH2SHCH2SC2HS2HCHCH3CHC2NC12H28CNHC3H2C4FeC2H8CFeH4CH2CH2CHSH4NC2HC3SC2H10CH11CHC2HSCHCHCHC2H7CHFeC3H5C2H5C2H3SH2CHCH3CNCHC4HC2H6SCH4CHNC2SC3SCH4CH2CH11NC5FeHC2H4CH4NCH7SH5CH3CH4FeH3C2H4CHC2SH7C3HCH3CSCHCH2C2HC2H3SH3C2H4CHCHCSCH2C4NCHCSC3HCH5CFe2H5SCHCHCH7CH9SH4CHC2HNCHCHCHCHSHCSHFeHSCH2CHCHSH3CH3SH2CHCHC2H2CHC2HCHC3HSFeHSFeH2SH3FeS2FeS2FeSCS2CHFeHNFeSH4CH3C3HCHCH2CH14FeH3C6H4C6H4C3H5C2HCH2CH2CNHC2HC3HCH6C6H5FeC2H5C2NC3HCH2C2H2C2H2C3H5CH4CH3CH2CH2SH2NCHCH7CH3C2H5CHCH3SHCHSCH2CH2C2HCHC3H3CH2CH2C2SHCH3CH2NH8SNH5SH3C3HCH4SH6SH2CHCH2C3H8CH2CHC2H4C2HC4H3C2HNH2C3H3C3H3SH3CH5NHFeH3CHCHC3H5CH6C3HCHCH2CH2CHC2H2CH4CHS
_chemical_formula_sum              "H6144 C3456 S768 Fe384 N192"
_cell_length_a       80.5541
_cell_length_b       81.332
_cell_length_c       81.7255
_cell_angle_alpha    73.6846
_cell_angle_beta     73.7435
_cell_angle_gamma    73.7001

_space_group_name_H-M_alt    "P 1"
_space_group_IT_number       1

loop_
  _space_group_symop_operation_xyz
  'x, y, z'

loop_
  _atom_site_type_symbol
  _atom_site_label
  _atom_site_symmetry_multiplicity
  _atom_site_fract_x
  _atom_site_fract_y
  _atom_site_fract_z
  _atom_site_occupancy
  H   H1        1.0  0.15288  0.14585  0.01898  1.0000
  H   H2        1.0  0.34573  0.99666  0.03051  1.0000
  H   H3        1.0  0.01728  0.07222  0.27626  1.0000
  H   H4        1.0  0.17513  0.02274  0.19790  1.0000
  C   C1        1.0  0.15901  0.10919  0.98696  1.0000
  C   C2        1.0  0.17063  0.02810  0.02563  1.0000
  C   C3        1.0  0.17749  0.05142  0.03447  1.0000
  H   H5        1.0  0.38271  0.00203  0.99356  1.0000
  S   S1        1.0  0.48261  0.08989  0.00385  1.0000
  S   S2        1.0  0.08695  0.19935  0.01777  1.0000
  S   S3        1.0  0.07372  0.99004  0.21187  1.0000
  H   H6        1.0  0.40753  0.01233  0.12929  1.0000
  H   H7        1.0  0.42976  0.08626  0.98828  1.0000
  Fe  Fe1       1.0  0.05264  0.00391  0.23118  1.0000
  H   H8        1.0  0.12633  0.12344  0.00253  1.0000
  C   C4        1.0  0.46602  0.09772  0.99170  1.0000
  H   H9        1.0  0.30404  0.11106  0.99021  1.0000
  C   C5        1.0  0.03668  0.07204  0.22099  1.0000
  C   C6        1.0  0.03792  0.20548  0.04885  1.0000
  H   H10       1.0  0.15528  0.04737  0.21005  1.0000
  H   H11       1.0  0.28797  0.09908  0.02658  1.0000
  C   C7        1.0  0.30013  0.09151  0.03141  1.0000
  H   H12       1.0  0.34758  0.05167  0.03836  1.0000
  C   C8        1.0  0.36070  0.04427  0.03988  1.0000
  H   H13       1.0  0.20001  0.04268  0.00628  1.0000
  C   C9        1.0  0.35944  0.07950  0.05708  1.0000
  C   C10       1.0  0.49374  0.04146  0.02003  1.0000
  H   H14       1.0  0.42848  0.02120  0.09118  1.0000
  H   H15       1.0  0.29790  0.01363  0.06719  1.0000
  C   C11       1.0  0.23704  0.01105  0.04441  1.0000
  H   H16       1.0  0.15136  0.03994  0.98931  1.0000
  C   C12       1.0  0.11374  0.12337  0.06516  1.0000
  H   H17       1.0  0.10352  0.14635  0.04744  1.0000
  H   H18       1.0  0.15859  0.17059  0.02697  1.0000
  S   S4        1.0  0.00111  0.20477  0.13042  1.0000
  C   C13       1.0  0.00823  0.05691  0.22536  1.0000
  H   H19       1.0  0.35480  0.09190  0.06181  1.0000
  C   C14       1.0  0.39598  0.99321  0.01542  1.0000
  C   C15       1.0  0.02069  0.16952  0.20249  1.0000
  H   H20       1.0  0.00011  0.07596  0.17509  1.0000
  H   H21       1.0  0.30343  0.98911  0.12037  1.0000
  H   H22       1.0  0.16417  0.12873  0.99679  1.0000
  C   C16       1.0  0.37538  0.04639  0.02598  1.0000
  H   H23       1.0  0.37348  0.05557  0.01388  1.0000
  H   H24       1.0  0.14421  0.19207  0.02282  1.0000
  H   H25       1.0  0.03058  0.17227  0.19010  1.0000
  C   C17       1.0  0.06383  0.20297  0.02499  1.0000
  H   H26       1.0  0.24350  0.03333  0.02422  1.0000
  C   C18       1.0  0.44820  0.98847  0.07134  1.0000
  H   H27       1.0  0.14021  0.04712  0.13530  1.0000
  C   C19       1.0  0.41773  0.98519  0.07758  1.0000
  H   H28       1.0  0.12648  0.16968  0.03258  1.0000
  C   C20       1.0  0.29570  0.09426  0.97932  1.0000
  H   H29       1.0  0.12658  0.11464  0.06755  1.0000
  N   N1        1.0  0.01541  0.03575  0.28725  1.0000
  H   H30       1.0  0.08256  0.99206  0.28517  1.0000
  H   H31       1.0  0.17378  0.01941  0.13974  1.0000
  C   C21       1.0  0.22732  0.01580  0.07380  1.0000
  H   H32       1.0  0.10519  0.11547  0.06376  1.0000
  H   H33       1.0  0.15662  0.01838  0.00297  1.0000
  C   C22       1.0  0.07805  0.15816  0.01371  1.0000
  H   H34       1.0  0.14772  0.15785  0.99866  1.0000
  H   H35       1.0  0.28579  0.05609  0.00205  1.0000
  H   H36       1.0  0.30751  0.04260  0.00294  1.0000
  H   H37       1.0  0.05864  0.20536  0.99986  1.0000
  C   C23       1.0  0.28438  0.02110  0.06573  1.0000
  H   H38       1.0  0.40110  0.08729  0.07025  1.0000
  H   H39       1.0  0.01424  0.14589  0.22130  1.0000
  C   C24       1.0  0.39463  0.02464  0.04347  1.0000
  C   C25       1.0  0.23888  0.02853  0.03802  1.0000
  H   H40       1.0  0.45238  0.07705  0.00605  1.0000
  H   H41       1.0  0.35740  0.08213  0.04359  1.0000
  H   H42       1.0  0.03480  0.00383  0.30826  1.0000
  S   S5        1.0  0.22554  0.98389  0.06964  1.0000
  H   H43       1.0  0.40765  0.01686  0.04483  1.0000
  C   C26       1.0  0.45262  0.08851  0.99553  1.0000
  H   H44       1.0  0.03740  0.01984  0.27258  1.0000
  H   H45       1.0  0.04771  0.07795  0.21921  1.0000
  H   H46       1.0  0.06478  0.20099  0.05157  1.0000
  H   H47       1.0  0.23638  0.02004  0.00226  1.0000
  C   C27       1.0  0.23428  0.03984  0.04946  1.0000
  C   C28       1.0  0.09614  0.14541  0.01285  1.0000
  C   C29       1.0  0.22668  0.01545  0.99825  1.0000
  C   C30       1.0  0.00960  0.20327  0.17741  1.0000
  C   C31       1.0  0.32619  0.09160  0.98058  1.0000
  H   H48       1.0  0.02419  0.21824  0.14340  1.0000
  C   C32       1.0  0.21002  0.01431  0.01276  1.0000
  N   N2        1.0  0.12837  0.14289  0.01500  1.0000
  H   H49       1.0  0.24011  0.00249  0.03546  1.0000
  H   H50       1.0  0.34907  0.01875  0.02478  1.0000
  H   H51       1.0  0.43083  0.06182  0.09084  1.0000
  H   H52       1.0  0.32053  0.01669  0.01957  1.0000
  H   H53       1.0  0.15547  0.11148  0.01314  1.0000
  H   H54       1.0  0.18205  0.98522  0.20495  1.0000
  C   C33       1.0  0.37898  0.07163  0.05747  1.0000
  H   H55       1.0  0.00880  0.99499  0.18122  1.0000
  H   H56       1.0  0.44323  0.99928  0.03457  1.0000
  H   H57       1.0  0.99923  0.02180  0.19269  1.0000
  C   C34       1.0  0.19860  0.99658  0.18061  1.0000
  C   C35       1.0  0.23071  0.00478  0.06228  1.0000
  C   C36       1.0  0.16381  0.05008  0.19675  1.0000
  C   C37       1.0  0.12919  0.99333  0.16680  1.0000
  H   H58       1.0  0.19385  0.03765  0.17274  1.0000
  H   H59       1.0  0.02066  0.14395  0.19876  1.0000
  H   H60       1.0  0.35130  0.07004  0.06567  1.0000
  H   H61       1.0  0.27793  0.02548  0.09219  1.0000
  H   H62       1.0  0.00916  0.03167  0.26476  1.0000
  C   C38       1.0  0.42823  0.99156  0.11818  1.0000
  C   C39       1.0  0.27268  0.02000  0.08416  1.0000
  H   H63       1.0  0.41014  0.06447  0.07232  1.0000
  C   C40       1.0  0.39231  0.03632  0.02766  1.0000
  H   H64       1.0  0.44282  0.07881  0.08632  1.0000
  Fe  Fe2       1.0  0.49059  0.99025  0.07076  1.0000
  C   C41       1.0  0.20232  0.02275  0.14763  1.0000
  H   H65       1.0  0.22302  0.01103  0.08759  1.0000
  H   H66       1.0  0.07392  0.16315  0.02591  1.0000
  S   S6        1.0  0.12523  0.20825  0.97920  1.0000
  Fe  Fe3       1.0  0.22136  0.07501  0.98100  1.0000
  C   C42       1.0  0.00733  0.06900  0.28834  1.0000
  H   H67       1.0  0.30261  0.09865  0.03993  1.0000
  H   H68       1.0  0.17386  0.01377  0.02606  1.0000
  C   C43       1.0  0.11080  0.15471  0.01212  1.0000
  C   C44       1.0  0.01168  0.04940  0.29790  1.0000
  H   H69       1.0  0.40110  0.99958  0.02270  1.0000
  C   C45       1.0  0.02327  0.14956  0.20849  1.0000
  C   C46       1.0  0.28982  0.03043  0.99732  1.0000
  H   H70       1.0  0.34234  0.00818  0.04741  1.0000
  C   C47       1.0  0.36301  0.03218  0.05550  1.0000
  S   S7        1.0  0.24011  0.98921  0.14114  1.0000
  H   H71       1.0  0.23302  0.00230  0.99529  1.0000
  S   S8        1.0  0.02786  0.02384  0.22559  1.0000
  H   H72       1.0  0.21267  0.01956  0.15534  1.0000
  H   H73       1.0  0.40347  0.00746  0.11077  1.0000
  C   C48       1.0  0.12095  0.99418  0.18423  1.0000
  S   S9        1.0  0.07144  0.00453  0.24676  1.0000
  H   H74       1.0  0.14850  0.01879  0.16770  1.0000
  H   H75       1.0  0.20147  0.00599  0.18642  1.0000
  C   C49       1.0  0.41198  0.07756  0.06400  1.0000
  C   C50       1.0  0.38001  0.02277  0.05742  1.0000
  H   H76       1.0  0.44657  0.01831  0.98363  1.0000
  H   H77       1.0  0.37869  0.01801  0.00648  1.0000
  H   H78       1.0  0.41897  0.08394  0.09288  1.0000
  C   C51       1.0  0.43049  0.07600  0.08523  1.0000
  H   H79       1.0  0.99567  0.22085  0.20360  1.0000
  H   H80       1.0  0.15638  0.06159  0.18862  1.0000
  C   C52       1.0  0.07776  0.98815  0.29913  1.0000
  C   C53       1.0  0.47701  0.03130  0.97816  1.0000
  C   C54       1.0  0.31451  0.03559  0.03629  1.0000
  H   H81       1.0  0.99808  0.00201  0.24093  1.0000
  H   H82       1.0  0.15031  0.09966  0.99086  1.0000
  S   S10       1.0  0.23440  0.06229  0.04178  1.0000
  C   C55       1.0  0.18867  0.05781  0.04315  1.0000
  H   H83       1.0  0.12507  0.03548  0.15216  1.0000
  N   N3        1.0  0.41031  0.07884  0.04570  1.0000
  C   C56       1.0  0.41942  0.09228  0.03212  1.0000
  C   C57       1.0  0.41773  0.06134  0.04052  1.0000
  C   C58       1.0  0.39090  0.08415  0.04504  1.0000
  C   C59       1.0  0.42944  0.08063  0.06603  1.0000
  C   C60       1.0  0.41159  0.11170  0.03349  1.0000
  C   C61       1.0  0.43743  0.05277  0.04088  1.0000
  C   C62       1.0  0.44417  0.03774  0.03131  1.0000
  C   C63       1.0  0.42444  0.12337  0.02233  1.0000
  H   H84       1.0  0.41887  0.09165  0.01886  1.0000
  H   H85       1.0  0.43373  0.08935  0.03205  1.0000
  H   H86       1.0  0.41048  0.05128  0.04932  1.0000
  H   H87       1.0  0.41576  0.06257  0.02720  1.0000
  H   H88       1.0  0.38938  0.08572  0.03148  1.0000
  H   H89       1.0  0.38482  0.09716  0.04846  1.0000
  H   H90       1.0  0.43016  0.09463  0.06082  1.0000
  H   H91       1.0  0.44141  0.07276  0.05902  1.0000
  H   H92       1.0  0.39918  0.11671  0.02851  1.0000
  H   H93       1.0  0.40842  0.11317  0.04718  1.0000
  H   H94       1.0  0.44627  0.06205  0.03462  1.0000
  H   H95       1.0  0.43880  0.04719  0.05463  1.0000
  H   H96       1.0  0.43541  0.02826  0.03671  1.0000
  H   H97       1.0  0.44449  0.04285  0.01714  1.0000
  H   H98       1.0  0.45775  0.03073  0.03299  1.0000
  H   H99       1.0  0.42742  0.12259  0.00840  1.0000
  H   H100      1.0  0.41840  0.13724  0.02322  1.0000
  H   H101      1.0  0.43704  0.11929  0.02691  1.0000
  C   C64       1.0  0.13067  0.98697  0.19729  1.0000
  C   C65       1.0  0.18108  0.03698  0.17043  1.0000
  H   H102      1.0  0.27842  0.06952  0.03015  1.0000
  C   C66       1.0  0.13522  0.13230  0.00100  1.0000
  H   H103      1.0  0.06792  0.15137  0.01356  1.0000
  C   C67       1.0  0.34082  0.00970  0.03396  1.0000
  C   C68       1.0  0.04323  0.04563  0.26482  1.0000
  C   C69       1.0  0.14163  0.15380  0.01276  1.0000
  S   S11       1.0  0.00387  0.21054  0.04522  1.0000
  Fe  Fe4       1.0  0.40180  0.05976  0.98842  1.0000
  H   H104      1.0  0.41110  0.03620  0.10247  1.0000
  H   H105      1.0  0.18205  0.99387  0.07851  1.0000
  H   H106      1.0  0.09489  0.13447  0.02448  1.0000
  H   H107      1.0  0.04310  0.02608  0.28889  1.0000
  H   H108      1.0  0.29800  0.01698  0.00064  1.0000
  C   C70       1.0  0.22488  0.03769  0.12405  1.0000
  H   H109      1.0  0.16728  0.03360  0.06756  1.0000
  H   H110      1.0  0.10292  0.23186  0.00838  1.0000
  C   C71       1.0  0.29317  0.04256  0.00676  1.0000
  C   C72       1.0  0.03490  0.03110  0.27888  1.0000
  C   C73       1.0  0.28471  0.04044  0.05631  1.0000
  H   H111      1.0  0.38035  0.06891  0.07116  1.0000
  C   C74       1.0  0.15421  0.12055  0.00038  1.0000
  H   H112      1.0  0.04567  0.06016  0.28269  1.0000
  H   H113      1.0  0.01203  0.00916  0.29173  1.0000
  H   H114      1.0  0.02355  0.17435  0.21260  1.0000
  H   H115      1.0  0.10718  0.00078  0.18749  1.0000
  H   H116      1.0  0.14276  0.02377  0.13785  1.0000
  Fe  Fe5       1.0  0.23333  0.07429  0.01350  1.0000
  H   H117      1.0  0.18429  0.99648  0.16198  1.0000
  H   H118      1.0  0.29346  0.03549  0.98298  1.0000
  H   H119      1.0  0.03712  0.14360  0.20996  1.0000
  H   H120      1.0  0.02320  0.20102  0.17952  1.0000
  C   C75       1.0  0.17199  0.02042  0.06447  1.0000
  H   H121      1.0  0.14669  0.04213  0.16423  1.0000
  C   C76       1.0  0.17748  0.00747  0.08067  1.0000
  H   H122      1.0  0.39484  0.98626  0.13534  1.0000
  C   C77       1.0  0.41392  0.00891  0.11640  1.0000
  H   H123      1.0  0.20557  0.01183  0.14083  1.0000
  H   H124      1.0  0.17597  0.05324  0.19781  1.0000
  C   C78       1.0  0.44066  0.98769  0.01473  1.0000
  Fe  Fe6       1.0  0.09674  0.20634  0.98864  1.0000
  C   C79       1.0  0.14715  0.98518  0.16233  1.0000
  C   C80       1.0  0.22901  0.03328  0.06741  1.0000
  H   H125      1.0  0.11277  0.16402  0.99915  1.0000
  C   C81       1.0  0.02694  0.20772  0.03747  1.0000
  H   H126      1.0  0.30038  0.06648  0.01724  1.0000
  C   C82       1.0  0.16772  0.03810  0.00707  1.0000
  S   S12       1.0  0.34155  0.09937  0.98639  1.0000
  H   H127      1.0  0.31164  0.09067  0.02015  1.0000
  H   H128      1.0  0.12610  0.18089  0.01055  1.0000
  C   C83       1.0  0.05633  0.20300  0.04264  1.0000
  H   H129      1.0  0.38236  0.05902  0.05341  1.0000
  C   C84       1.0  0.05395  0.05397  0.27178  1.0000
  H   H130      1.0  0.15753  0.03052  0.03481  1.0000
  C   C85       1.0  0.48854  0.04976  0.98927  1.0000
  H   H131      1.0  0.03375  0.05597  0.25805  1.0000
  H   H132      1.0  0.20077  0.01003  0.00786  1.0000
  H   H133      1.0  0.06521  0.04389  0.27636  1.0000
  H   H134      1.0  0.20186  0.05855  0.03447  1.0000
  H   H135      1.0  0.05941  0.06424  0.26110  1.0000
  H   H136      1.0  0.43161  0.02691  0.10977  1.0000
  C   C86       1.0  0.12668  0.13019  0.03258  1.0000
  C   C87       1.0  0.45179  0.99368  0.02336  1.0000
  H   H137      1.0  0.17598  0.05038  0.16302  1.0000
  H   H138      1.0  0.22936  0.02634  0.11762  1.0000
  N   N4        1.0  0.18435  0.03291  0.03169  1.0000
  H   H139      1.0  0.99634  0.02181  0.30624  1.0000
  H   H140      1.0  0.46639  0.03358  0.98997  1.0000
  H   H141      1.0  0.31369  0.00738  0.04230  1.0000
  H   H142      1.0  0.00070  0.09496  0.29383  1.0000
  C   C88       1.0  0.29798  0.07310  0.04169  1.0000
  C   C89       1.0  0.16856  0.03398  0.18884  1.0000
  H   H143      1.0  0.16604  0.00776  0.09206  1.0000
  C   C90       1.0  0.43975  0.09377  0.98550  1.0000
  H   H144      1.0  0.47501  0.05654  0.99493  1.0000
  H   H145      1.0  0.22671  0.04976  0.11385  1.0000
  S   S13       1.0  0.34469  0.02770  0.07221  1.0000
  H   H146      1.0  0.40388  0.99097  0.07792  1.0000
  C   C91       1.0  0.29253  0.06333  0.03087  1.0000
  H   H147      1.0  0.38178  0.01391  0.06970  1.0000
  C   C92       1.0  0.11673  0.13797  0.04883  1.0000
  H   H148      1.0  0.42601  0.00975  0.06620  1.0000
  H   H149      1.0  0.07847  0.16949  0.00234  1.0000
  C   C93       1.0  0.03962  0.05386  0.22214  1.0000
  C   C94       1.0  0.42181  0.02421  0.10420  1.0000
  H   H150      1.0  0.17715  0.08562  0.03433  1.0000
  H   H151      1.0  0.23329  0.03572  0.13343  1.0000
  C   C95       1.0  0.13910  0.03454  0.14493  1.0000
  H   H152      1.0  0.28755  0.07456  0.05373  1.0000
  N   N5        1.0  0.18412  0.02365  0.15959  1.0000
  C   C96       1.0  0.15097  0.03083  0.15782  1.0000
  H   H153      1.0  0.20117  0.05125  0.13914  1.0000
  H   H154      1.0  0.22579  0.04186  0.07638  1.0000
  H   H155      1.0  0.17140  0.04197  0.13938  1.0000
  H   H156      1.0  0.45834  0.00394  0.01384  1.0000
  S   S14       1.0  0.41062  0.03812  0.01012  1.0000
  H   H157      1.0  0.10699  0.12926  0.07670  1.0000
  C   C97       1.0  0.43409  0.99190  0.15162  1.0000
  N   N6        1.0  0.29492  0.04366  0.03755  1.0000
  H   H158      1.0  0.10525  0.16323  0.02169  1.0000
  H   H159      1.0  0.31070  0.06589  0.04554  1.0000
  H   H160      1.0  0.05273  0.03942  0.25434  1.0000
  C   C98       1.0  0.14972  0.17952  0.01838  1.0000
  S   S15       1.0  0.20444  0.99351  0.11715  1.0000
  H   H161      1.0  0.44203  0.00048  0.17058  1.0000
  C   C99       1.0  0.02530  0.04631  0.22433  1.0000
  H   H162      1.0  0.27902  0.01465  0.05869  1.0000
  H   H163      1.0  0.19784  0.04165  0.12316  1.0000
  H   H164      1.0  0.05290  0.04577  0.22116  1.0000
  C   C100      1.0  0.03446  0.20757  0.01981  1.0000
  C   C101      1.0  0.17070  0.02894  0.14827  1.0000
  C   C102      1.0  0.20534  0.03951  0.13338  1.0000
  S   S16       1.0  0.46334  0.00226  0.06479  1.0000
  H   H165      1.0  0.12167  0.99920  0.15671  1.0000
  S   S17       1.0  0.39014  0.08711  0.99256  1.0000
  C   C103      1.0  0.28674  0.03701  0.02686  1.0000
  C   C104      1.0  0.13457  0.17129  0.01913  1.0000
  S   S18       1.0  0.24470  0.05923  0.99247  1.0000
  H   H166      1.0  0.19147  0.00628  0.04647  1.0000
  H   H167      1.0  0.12479  0.14561  0.05137  1.0000
  H   H168      1.0  0.32267  0.04383  0.02555  1.0000
  C   C105      1.0  0.43028  0.99578  0.07099  1.0000
  C   C106      1.0  0.05289  0.20544  0.01351  1.0000
  S   S19       1.0  0.24772  0.09588  0.99949  1.0000
  C   C107      1.0  0.38887  0.00752  0.00081  1.0000
  H   H169      1.0  0.15755  0.18243  0.00477  1.0000
  C   C108      1.0  0.01946  0.08258  0.22203  1.0000
  S   S20       1.0  0.01542  0.10528  0.22058  1.0000
  H   H170      1.0  0.21164  0.03519  0.02306  1.0000
  H   H171      1.0  0.27207  0.04186  0.02977  1.0000
  H   H172      1.0  0.31845  0.03550  0.04836  1.0000
  H   H173      1.0  0.15605  0.03099  0.18867  1.0000
  H   H174      1.0  0.14001  0.12313  0.03509  1.0000
  H   H175      1.0  0.12024  0.11973  0.03261  1.0000
  H   H176      1.0  0.03230  0.20508  0.06255  1.0000
  H   H177      1.0  0.43140  0.99953  0.00915  1.0000
  H   H178      1.0  0.29026  0.04541  0.06453  1.0000
  S   S21       1.0  0.21188  0.13737  0.98681  1.0000
  H   H179      1.0  0.27067  0.04794  0.05711  1.0000
  H   H180      1.0  0.17680  0.06093  0.02174  1.0000
  H   H181      1.0  0.99716  0.05122  0.22704  1.0000
  C   C109      1.0  0.01052  0.01912  0.29937  1.0000
  H   H182      1.0  0.41968  0.99718  0.17720  1.0000
  H   H183      1.0  0.00142  0.13205  0.28158  1.0000
  H   H184      1.0  0.39968  0.01361  0.99161  1.0000
  H   H185      1.0  0.19067  0.04901  0.05585  1.0000
  C   C110      1.0  0.32137  0.01673  0.03287  1.0000
  H   H186      1.0  0.02604  0.20920  0.01097  1.0000
  C   C111      1.0  0.18352  0.00537  0.17049  1.0000
  H   H187      1.0  0.28875  0.02251  0.03058  1.0000
  S   S22       1.0  0.12106  0.98889  0.21904  1.0000
  H   H188      1.0  0.00607  0.17232  0.15597  1.0000
  H   H189      1.0  0.42984  0.00573  0.14479  1.0000
  C   C112      1.0  0.20156  0.03217  0.01821  1.0000
  H   H190      1.0  0.18848  0.08072  0.05183  1.0000
  H   H191      1.0  0.38460  0.98788  0.02440  1.0000
  H   H192      1.0  0.16694  0.07579  0.05634  1.0000
  H   H193      1.0  0.41942  0.98448  0.99618  1.0000
  H   H194      1.0  0.48500  0.01783  0.98211  1.0000
  C   C113      1.0  0.00529  0.07490  0.22426  1.0000
  H   H195      1.0  0.21095  0.99159  0.17155  1.0000
  H   H196      1.0  0.17991  0.03528  0.99689  1.0000
  H   H197      1.0  0.16381  0.05250  0.00605  1.0000
  H   H198      1.0  0.27133  0.00333  0.12542  1.0000
  H   H199      1.0  0.16075  0.01668  0.06216  1.0000
  H   H200      1.0  0.21398  0.00395  0.02397  1.0000
  H   H201      1.0  0.25886  0.02729  0.08367  1.0000
  H   H202      1.0  0.19935  0.02170  0.05193  1.0000
  C   C114      1.0  0.18772  0.01998  0.04836  1.0000
  C   C115      1.0  0.17967  0.07612  0.04659  1.0000
  C   C116      1.0  0.43343  0.99197  0.17048  1.0000
  S   S23       1.0  0.20851  0.08822  0.00352  1.0000
  H   H203      1.0  0.27243  0.00609  0.09064  1.0000
  H   H204      1.0  0.16363  0.05320  0.04229  1.0000
  C   C117      1.0  0.30824  0.09995  0.98407  1.0000
  H   H205      1.0  0.40802  0.98767  0.15593  1.0000
  H   H206      1.0  0.17297  0.10173  0.98606  1.0000
  C   C118      1.0  0.46616  0.11267  0.97808  1.0000
  H   H207      1.0  0.09448  0.00086  0.30567  1.0000
  H   H208      1.0  0.43132  0.98721  0.10576  1.0000
  C   C119      1.0  0.27549  0.98923  0.12937  1.0000
  H   H209      1.0  0.18761  0.17085  0.98506  1.0000
  H   H210      1.0  0.17067  0.00508  0.17999  1.0000
  H   H211      1.0  0.13518  0.14122  0.98780  1.0000
  H   H212      1.0  0.01961  0.08061  0.30167  1.0000
  H   H213      1.0  0.00145  0.23205  0.17591  1.0000
  H   H214      1.0  0.48685  0.02449  0.00832  1.0000
  H   H215      1.0  0.27561  0.02984  0.00100  1.0000
  S   S24       1.0  0.15726  0.98535  0.14019  1.0000
  H   H216      1.0  0.44068  0.99469  0.11844  1.0000
  H   H217      1.0  0.18836  0.01105  0.08386  1.0000
  H   H218      1.0  0.09915  0.14016  0.00093  1.0000
  H   H219      1.0  0.00706  0.05385  0.26428  1.0000
  S   S25       1.0  0.01040  0.23094  0.08165  1.0000
  H   H220      1.0  0.14029  0.03582  0.01205  1.0000
  C   C120      1.0  0.00624  0.08121  0.30000  1.0000
  H   H221      1.0  0.48014  0.04898  0.02449  1.0000
  H   H222      1.0  0.44806  0.98720  0.14536  1.0000
  H   H223      1.0  0.22320  0.02461  0.98618  1.0000
  C   C121      1.0  0.00471  0.04133  0.27333  1.0000
  Fe  Fe7       1.0  0.35055  0.99842  0.08210  1.0000
  C   C122      1.0  0.15308  0.03267  0.00267  1.0000
  Fe  Fe8       1.0  0.22392  0.10867  0.98761  1.0000
  H   H224      1.0  0.28204  0.10127  0.98146  1.0000
  Fe  Fe9       1.0  0.37041  0.08714  0.97778  1.0000
  H   H225      1.0  0.02296  0.04736  0.30407  1.0000
  C   C123      1.0  0.99476  0.00230  0.18245  1.0000
  H   H226      1.0  0.01080  0.19494  0.16820  1.0000
  Fe  Fe10      1.0  0.09201  0.98827  0.22889  1.0000
  Fe  Fe11      1.0  0.25745  0.08176  0.97753  1.0000
  C   C124      1.0  0.18422  0.16373  0.97754  1.0000
  H   H227      1.0  0.01357  0.20336  0.20816  1.0000
  C   C125      1.0  0.00475  0.22266  0.16735  1.0000
  H   H228      1.0  0.99549  0.04966  0.19815  1.0000
  C   C126      1.0  0.02010  0.22744  0.15233  1.0000
  C   C127      1.0  0.00156  0.17806  0.19985  1.0000
  H   H229      1.0  0.00851  0.20219  0.23964  1.0000
  N   N7        1.0  0.99696  0.19786  0.19451  1.0000
  C   C128      1.0  0.99933  0.20632  0.20770  1.0000
  H   H230      1.0  0.99947  0.17235  0.18991  1.0000
  H   H231      1.0  0.03166  0.22700  0.15744  1.0000
  H   H232      1.0  0.00021  0.04767  0.30916  1.0000
  H   H233      1.0  0.02325  0.01809  0.43824  1.0000
  H   H234      1.0  0.06501  0.15200  0.54200  1.0000
  H   H235      1.0  0.07778  0.99664  0.61820  1.0000
  C   C129      1.0  0.06262  0.05095  0.61469  1.0000
  H   H236      1.0  0.01696  0.04495  0.38478  1.0000
  H   H237      1.0  0.05541  0.13377  0.52609  1.0000
  H   H238      1.0  0.08445  0.06342  0.64087  1.0000
  C   C130      1.0  0.02520  0.99477  0.37570  1.0000
  H   H239      1.0  0.05540  0.15041  0.56499  1.0000
  C   C131      1.0  0.07141  0.08296  0.37886  1.0000
  C   C132      1.0  0.00471  0.09756  0.41484  1.0000
  H   H240      1.0  0.04988  0.99872  0.46174  1.0000
  H   H241      1.0  0.07967  0.06931  0.34857  1.0000
  C   C133      1.0  0.12783  0.01040  0.60448  1.0000
  S   S26       1.0  0.99633  0.06989  0.52619  1.0000
  H   H242      1.0  0.09413  0.01519  0.62122  1.0000
  H   H243      1.0  0.04969  0.03260  0.61198  1.0000
  S   S27       1.0  0.04270  0.07887  0.50138  1.0000
  H   H244      1.0  0.99786  0.04801  0.46962  1.0000
  C   C134      1.0  0.11218  0.01323  0.59615  1.0000
  H   H245      1.0  0.01812  0.05020  0.43131  1.0000
  H   H246      1.0  0.09637  0.03539  0.60625  1.0000
  H   H247      1.0  0.11219  0.02453  0.38214  1.0000
  H   H248      1.0  0.02813  0.09273  0.42482  1.0000
  C   C135      1.0  0.01026  0.16908  0.35596  1.0000
  S   S28       1.0  0.04456  0.01185  0.56205  1.0000
  C   C136      1.0  0.01185  0.13201  0.53739  1.0000
  H   H249      1.0  0.99702  0.08152  0.55451  1.0000
  H   H250      1.0  0.05522  0.08774  0.53496  1.0000
  C   C137      1.0  0.05479  0.05256  0.43326  1.0000
  C   C138      1.0  0.06090  0.13186  0.63963  1.0000
  H   H251      1.0  0.11323  0.00578  0.37383  1.0000
  H   H252      1.0  0.06350  0.10278  0.54120  1.0000
  C   C139      1.0  0.07570  0.06414  0.37650  1.0000
  H   H253      1.0  0.03604  0.10273  0.36323  1.0000
  H   H254      1.0  0.08112  0.03005  0.38080  1.0000
  H   H255      1.0  0.05171  0.01359  0.59381  1.0000
  C   C140      1.0  0.01403  0.09819  0.42670  1.0000
  S   S29       1.0  0.00287  0.04123  0.34815  1.0000
  C   C141      1.0  0.05323  0.09490  0.54535  1.0000
  H   H256      1.0  0.07353  0.05125  0.62030  1.0000
  H   H257      1.0  0.07518  0.03123  0.33786  1.0000
  H   H258      1.0  0.07030  0.07355  0.55971  1.0000
  H   H259      1.0  0.00738  0.01349  0.57231  1.0000
  C   C142      1.0  0.07740  0.03331  0.58386  1.0000
  H   H260      1.0  0.03694  0.16069  0.34078  1.0000
  C   C143      1.0  0.05256  0.15145  0.55215  1.0000
  H   H261      1.0  0.00150  0.15970  0.39283  1.0000
  S   S30       1.0  0.01193  0.08329  0.35267  1.0000
  H   H262      1.0  0.09691  0.04357  0.54931  1.0000
  H   H263      1.0  0.00437  0.12290  0.53615  1.0000
  H   H264      1.0  0.07684  0.08327  0.38982  1.0000
  S   S31       1.0  0.01425  0.09316  0.60175  1.0000
  C   C144      1.0  0.99827  0.09435  0.59022  1.0000
  H   H265      1.0  0.08213  0.04297  0.43605  1.0000
  H   H266      1.0  0.04147  0.05095  0.35975  1.0000
  C   C145      1.0  0.01444  0.99410  0.39250  1.0000
  S   S32       1.0  0.08844  0.00244  0.41870  1.0000
  H   H267      1.0  0.07735  0.09167  0.36682  1.0000
  H   H268      1.0  0.05339  0.03341  0.39430  1.0000
  H   H269      1.0  0.06893  0.05633  0.38859  1.0000
  H   H270      1.0  0.02822  0.02282  0.39308  1.0000
  H   H271      1.0  0.13363  0.99671  0.40165  1.0000
  H   H272      1.0  0.10683  0.02565  0.34594  1.0000
  C   C146      1.0  0.06263  0.03183  0.61485  1.0000
  H   H273      1.0  0.05143  0.11288  0.51404  1.0000
  Fe  Fe12      1.0  0.01338  0.08485  0.50365  1.0000
  H   H274      1.0  0.03562  0.14989  0.52944  1.0000
  C   C147      1.0  0.04425  0.04224  0.38603  1.0000
  N   N8        1.0  0.06976  0.04530  0.35841  1.0000
  H   H275      1.0  0.06225  0.02405  0.62854  1.0000
  N   N9        1.0  0.07773  0.02283  0.60231  1.0000
  H   H276      1.0  0.02084  0.03867  0.40655  1.0000
  H   H277      1.0  0.08153  0.01779  0.36605  1.0000
  H   H278      1.0  0.14028  0.00459  0.59604  1.0000
  H   H279      1.0  0.04255  0.16380  0.54923  1.0000
  H   H280      1.0  0.99757  0.07768  0.31306  1.0000
  C   C148      1.0  0.08705  0.03571  0.55102  1.0000
  C   C149      1.0  0.04117  0.11316  0.35257  1.0000
  C   C150      1.0  0.09188  0.99591  0.44022  1.0000
  C   C151      1.0  0.99590  0.02218  0.38188  1.0000
  H   H281      1.0  0.02431  0.13773  0.37058  1.0000
  C   C152      1.0  0.07378  0.04483  0.33931  1.0000
  C   C153      1.0  0.07470  0.05077  0.42578  1.0000
  H   H282      1.0  0.03586  0.17944  0.63586  1.0000
  H   H283      1.0  0.12913  0.02301  0.60621  1.0000
  C   C154      1.0  0.00292  0.13788  0.55482  1.0000
  H   H284      1.0  0.03154  0.00758  0.48530  1.0000
  C   C155      1.0  0.04891  0.04844  0.32387  1.0000
  H   H285      1.0  0.08695  0.04794  0.33259  1.0000
  H   H286      1.0  0.03754  0.11769  0.48297  1.0000
  C   C156      1.0  0.05701  0.00288  0.60409  1.0000
  H   H287      1.0  0.10696  0.01549  0.43532  1.0000
  H   H288      1.0  0.05710  0.07235  0.35941  1.0000
  C   C157      1.0  0.99821  0.02526  0.56651  1.0000
  C   C158      1.0  0.10155  0.00502  0.44489  1.0000
  H   H289      1.0  0.05151  0.05787  0.44517  1.0000
  C   C159      1.0  0.03550  0.03303  0.46827  1.0000
  H   H290      1.0  0.07411  0.04471  0.54944  1.0000
  C   C160      1.0  0.10465  0.00044  0.46177  1.0000
  C   C161      1.0  0.07027  0.06325  0.35997  1.0000
  C   C162      1.0  0.08445  0.99314  0.31073  1.0000
  C   C163      1.0  0.04620  0.03082  0.54569  1.0000
  C   C164      1.0  0.03594  0.04699  0.54899  1.0000
  C   C165      1.0  0.03573  0.06199  0.53546  1.0000
  C   C166      1.0  0.04607  0.06095  0.51877  1.0000
  C   C167      1.0  0.05720  0.04499  0.51571  1.0000
  C   C168      1.0  0.05716  0.02985  0.52918  1.0000
  H   H291      1.0  0.02750  0.04777  0.56176  1.0000
  H   H292      1.0  0.09015  0.05896  0.37546  1.0000
  H   H293      1.0  0.06509  0.04412  0.50275  1.0000
  H   H294      1.0  0.06530  0.01739  0.52665  1.0000
  H   H295      1.0  0.05207  0.99984  0.43897  1.0000
  H   H296      1.0  0.04760  0.06230  0.42357  1.0000
  C   C169      1.0  0.08523  0.02312  0.56894  1.0000
  H   H297      1.0  0.02520  0.09858  0.54801  1.0000
  C   C170      1.0  0.01806  0.04855  0.44533  1.0000
  C   C171      1.0  0.02584  0.02173  0.48487  1.0000
  H   H298      1.0  0.04844  0.10736  0.34107  1.0000
  H   H299      1.0  0.06352  0.03985  0.58256  1.0000
  H   H300      1.0  0.12915  0.01938  0.36338  1.0000
  H   H301      1.0  0.03206  0.04670  0.47024  1.0000
  H   H302      1.0  0.06405  0.05925  0.60125  1.0000
  H   H303      1.0  0.02092  0.98901  0.33714  1.0000
  H   H304      1.0  0.05131  0.02833  0.36499  1.0000
  H   H305      1.0  0.06057  0.02422  0.44132  1.0000
  H   H306      1.0  0.03356  0.13527  0.56359  1.0000
  H   H307      1.0  0.05735  0.12426  0.48260  1.0000
  H   H308      1.0  0.00566  0.03245  0.55427  1.0000
  H   H309      1.0  0.03136  0.13769  0.33635  1.0000
  C   C172      1.0  0.11510  0.01947  0.37011  1.0000
  C   C173      1.0  0.08323  0.03069  0.36665  1.0000
  C   C174      1.0  0.04552  0.13559  0.55291  1.0000
  H   H310      1.0  0.01157  0.02417  0.48531  1.0000
  N   N10       1.0  0.03242  0.03299  0.45078  1.0000
  H   H311      1.0  0.09840  0.01450  0.56980  1.0000
  H   H312      1.0  0.11502  0.02190  0.58300  1.0000
  H   H313      1.0  0.00804  0.12611  0.37250  1.0000
  H   H314      1.0  0.03036  0.10897  0.56151  1.0000
  C   C175      1.0  0.04529  0.05934  0.62573  1.0000
  H   H315      1.0  0.03011  0.10888  0.51687  1.0000
  H   H316      1.0  0.11174  0.00023  0.59477  1.0000
  H   H317      1.0  0.07788  0.06396  0.42121  1.0000
  C   C176      1.0  0.02759  0.01640  0.45055  1.0000
  H   H318      1.0  0.99979  0.13727  0.39706  1.0000
  C   C177      1.0  0.05640  0.08117  0.56196  1.0000
  H   H319      1.0  0.00002  0.18157  0.35556  1.0000
  H   H320      1.0  0.02136  0.01690  0.51312  1.0000
  S   S33       1.0  0.01611  0.08765  0.39711  1.0000
  H   H321      1.0  0.04340  0.05174  0.63948  1.0000
  H   H322      1.0  0.05408  0.08753  0.57303  1.0000
  C   C178      1.0  0.07549  0.00435  0.60511  1.0000
  C   C179      1.0  0.99967  0.00774  0.39556  1.0000
  H   H323      1.0  0.04984  0.02834  0.46862  1.0000
  C   C180      1.0  0.04278  0.12863  0.48380  1.0000
  C   C181      1.0  0.02497  0.17128  0.33915  1.0000
  H   H324      1.0  0.00355  0.00094  0.54952  1.0000
  H   H325      1.0  0.05683  0.08795  0.38216  1.0000
  H   H326      1.0  0.10532  0.04446  0.35406  1.0000
  H   H327      1.0  0.05206  0.06857  0.33473  1.0000
  H   H328      1.0  0.07557  0.12769  0.63635  1.0000
  C   C182      1.0  0.03375  0.13437  0.50105  1.0000
  H   H329      1.0  0.01652  0.16815  0.36678  1.0000
  H   H330      1.0  0.01628  0.07641  0.57492  1.0000
  H   H331      1.0  0.11254  0.00732  0.46509  1.0000
  C   C183      1.0  0.03047  0.18871  0.33553  1.0000
  H   H332      1.0  0.02062  0.06098  0.44628  1.0000
  C   C184      1.0  0.02800  0.02543  0.50143  1.0000
  C   C185      1.0  0.01494  0.13645  0.36347  1.0000
  C   C186      1.0  0.04255  0.99960  0.45179  1.0000
  H   H333      1.0  0.05708  0.03965  0.31495  1.0000
  H   H334      1.0  0.00367  0.15270  0.33282  1.0000
  C   C187      1.0  0.99893  0.04795  0.45586  1.0000
  H   H335      1.0  0.03889  0.14564  0.50114  1.0000
  H   H336      1.0  0.01912  0.19994  0.33325  1.0000
  Fe  Fe13      1.0  0.99889  0.08795  0.37952  1.0000
  N   N11       1.0  0.03142  0.12363  0.53463  1.0000
  H   H337      1.0  0.12601  0.00114  0.61738  1.0000
  C   C188      1.0  0.00514  0.10583  0.44109  1.0000
  C   C189      1.0  0.05157  0.04144  0.36657  1.0000
  H   H338      1.0  0.03382  0.05995  0.62041  1.0000
  H   H339      1.0  0.01242  0.10630  0.45018  1.0000
  H   H340      1.0  0.00927  0.14411  0.52714  1.0000
  C   C190      1.0  0.04206  0.13615  0.53492  1.0000
  C   C191      1.0  0.03421  0.10666  0.54807  1.0000
  C   C192      1.0  0.10294  0.03098  0.35793  1.0000
  H   H341      1.0  0.08437  0.04422  0.58082  1.0000
  S   S34       1.0  0.06132  0.99555  0.39031  1.0000
  C   C193      1.0  0.09471  0.02202  0.60724  1.0000
  C   C194      1.0  0.03702  0.11898  0.51691  1.0000
  H   H342      1.0  0.04187  0.05589  0.38754  1.0000
  S   S35       1.0  0.02665  0.10647  0.63837  1.0000
  C   C195      1.0  0.02648  0.03683  0.39300  1.0000
  H   H343      1.0  0.04747  0.07191  0.56549  1.0000
  H   H344      1.0  0.07912  0.04408  0.41468  1.0000
  H   H345      1.0  0.04844  0.03267  0.42462  1.0000
  H   H346      1.0  0.05560  0.12366  0.55680  1.0000
  H   H347      1.0  0.02169  0.01966  0.32099  1.0000
  H   H348      1.0  0.02700  0.07426  0.53773  1.0000
  C   C196      1.0  0.02138  0.00911  0.36205  1.0000
  C   C197      1.0  0.04933  0.03475  0.43722  1.0000
  H   H349      1.0  0.03010  0.00971  0.34925  1.0000
  C   C198      1.0  0.00682  0.02290  0.36515  1.0000
  H   H350      1.0  0.04010  0.13979  0.47268  1.0000
  H   H351      1.0  0.04225  0.02264  0.50168  1.0000
  H   H352      1.0  0.08569  0.99718  0.59577  1.0000
  H   H353      1.0  0.09157  0.02808  0.54062  1.0000
  H   H354      1.0  0.07639  0.01465  0.56943  1.0000
  H   H355      1.0  0.02190  0.03934  0.50217  1.0000
  H   H356      1.0  0.01602  0.01365  0.46118  1.0000
  H   H357      1.0  0.01938  0.13885  0.50114  1.0000
  C   C199      1.0  0.06055  0.05780  0.32835  1.0000
  H   H358      1.0  0.03533  0.18952  0.34668  1.0000
  S   S36       1.0  0.08768  0.99331  0.34325  1.0000
  H   H359      1.0  0.01714  0.12253  0.34339  1.0000
  H   H360      1.0  0.02062  0.17110  0.32750  1.0000
  H   H361      1.0  0.04186  0.04046  0.33574  1.0000
  C   C200      1.0  0.00344  0.08526  0.57678  1.0000
  H   H362      1.0  0.04751  0.00396  0.61677  1.0000
  H   H363      1.0  0.05051  0.11802  0.35680  1.0000
  Fe  Fe14      1.0  0.00603  0.10260  0.62694  1.0000
  H   H364      1.0  0.05555  0.12977  0.62941  1.0000
  C   C201      1.0  0.02583  0.12814  0.34768  1.0000
  H   H365      1.0  0.04561  0.07294  0.62558  1.0000
  C   C202      1.0  0.02110  0.01010  0.31393  1.0000
  H   H366      1.0  0.03887  0.05836  0.31732  1.0000
  H   H367      1.0  0.00867  0.14837  0.55578  1.0000
  S   S37       1.0  0.00274  0.07969  0.48357  1.0000
  H   H368      1.0  0.00431  0.12674  0.56620  1.0000
  S   S38       1.0  0.99756  0.12431  0.31878  1.0000
  H   H369      1.0  0.04132  0.18979  0.32366  1.0000
  C   C203      1.0  0.01274  0.99563  0.32725  1.0000
  N   N12       1.0  0.00174  0.15371  0.35971  1.0000
  H   H370      1.0  0.99923  0.00127  0.33412  1.0000
  Fe  Fe15      1.0  0.05891  0.98840  0.55088  1.0000
  C   C204      1.0  0.09763  0.98707  0.47442  1.0000
  H   H371      1.0  0.05710  0.14610  0.63953  1.0000
  H   H372      1.0  0.00948  0.98997  0.49844  1.0000
  C   C205      1.0  0.05754  0.98537  0.60031  1.0000
  H   H373      1.0  0.06818  0.06431  0.31577  1.0000
  C   C206      1.0  0.07850  0.98781  0.32886  1.0000
  S   S39       1.0  0.01411  0.15568  0.64090  1.0000
  S   S40       1.0  0.99523  0.11121  0.50474  1.0000
  H   H374      1.0  0.01211  0.98563  0.32069  1.0000
  H   H375      1.0  0.01375  0.98661  0.52866  1.0000
  Fe  Fe16      1.0  0.08061  0.98404  0.40763  1.0000
  S   S41       1.0  0.05480  0.98417  0.52643  1.0000
  H   H376      1.0  0.04402  0.98485  0.59995  1.0000
  H   H377      1.0  0.03668  0.98434  0.37327  1.0000
  H   H378      1.0  0.99488  0.03626  0.45518  1.0000
  H   H379      1.0  0.06632  0.98406  0.58735  1.0000
  C   C207      1.0  0.34855  0.09193  0.76952  1.0000
  H   H380      1.0  0.26623  0.02782  0.95299  1.0000
  H   H381      1.0  0.33878  0.12181  0.89452  1.0000
  Fe  Fe17      1.0  0.36265  0.99618  0.78304  1.0000
  C   C208      1.0  0.24746  0.01824  0.84881  1.0000
  C   C209      1.0  0.01979  0.16360  0.65621  1.0000
  H   H382      1.0  0.05490  0.07982  0.65346  1.0000
  Fe  Fe18      1.0  0.48395  0.11029  0.82576  1.0000
  S   S42       1.0  0.47842  0.09039  0.85062  1.0000
  S   S43       1.0  0.45961  0.12787  0.81705  1.0000
  H   H383      1.0  0.06010  0.14687  0.69224  1.0000
  H   H384      1.0  0.07986  0.13739  0.71341  1.0000
  C   C210      1.0  0.05358  0.03957  0.68018  1.0000
  C   C211      1.0  0.15067  0.03376  0.78419  1.0000
  C   C212      1.0  0.24094  0.01152  0.78840  1.0000
  C   C213      1.0  0.40883  0.08540  0.72084  1.0000
  C   C214      1.0  0.45873  0.10260  0.74338  1.0000
  H   H385      1.0  0.08272  0.06057  0.69002  1.0000
  H   H386      1.0  0.48511  0.00301  0.81679  1.0000
  Fe  Fe19      1.0  0.36703  0.06416  0.84161  1.0000
  S   S44       1.0  0.36764  0.07515  0.81321  1.0000
  S   S45       1.0  0.36696  0.03597  0.85500  1.0000
  Fe  Fe20      1.0  0.36753  0.09923  0.84796  1.0000
  S   S46       1.0  0.36784  0.11319  0.82005  1.0000
  S   S47       1.0  0.36917  0.11311  0.86743  1.0000
  Fe  Fe21      1.0  0.34762  0.09802  0.82221  1.0000
  S   S48       1.0  0.32288  0.10991  0.81172  1.0000
  Fe  Fe22      1.0  0.38778  0.08899  0.81398  1.0000
  S   S49       1.0  0.41465  0.08770  0.79604  1.0000
  S   S50       1.0  0.34561  0.08614  0.85077  1.0000
  S   S51       1.0  0.38881  0.07609  0.84169  1.0000
  Fe  Fe23      1.0  0.40727  0.09505  0.96619  1.0000
  N   N13       1.0  0.48843  0.04473  0.97287  1.0000
  H   H387      1.0  0.02391  0.18789  0.81736  1.0000
  C   C215      1.0  0.07022  0.03011  0.67279  1.0000
  H   H388      1.0  0.44872  0.04806  0.74259  1.0000
  H   H389      1.0  0.08096  0.08350  0.70646  1.0000
  S   S52       1.0  0.10224  0.02747  0.64872  1.0000
  C   C216      1.0  0.02765  0.10648  0.71476  1.0000
  Fe  Fe24      1.0  0.39850  0.06964  0.95087  1.0000
  S   S53       1.0  0.40320  0.05851  0.92737  1.0000
  H   H390      1.0  0.01103  0.21862  0.82941  1.0000
  S   S54       1.0  0.38642  0.09789  0.95169  1.0000
  H   H391      1.0  0.31459  0.00920  0.69854  1.0000
  C   C217      1.0  0.33155  0.07742  0.97239  1.0000
  Fe  Fe25      1.0  0.09047  0.21599  0.95190  1.0000
  S   S55       1.0  0.11838  0.21882  0.93958  1.0000
  H   H392      1.0  0.45672  0.01706  0.67207  1.0000
  Fe  Fe26      1.0  0.12585  0.19400  0.95917  1.0000
  S   S56       1.0  0.14590  0.17024  0.95148  1.0000
  H   H393      1.0  0.26892  0.98814  0.69443  1.0000
  H   H394      1.0  0.46405  0.07638  0.75948  1.0000
  C   C218      1.0  0.08137  0.03870  0.65856  1.0000
  H   H395      1.0  0.44133  0.08726  0.76263  1.0000
  C   C219      1.0  0.47425  0.01143  0.87249  1.0000
  S   S57       1.0  0.07599  0.20922  0.83882  1.0000
  Fe  Fe27      1.0  0.12633  0.20462  0.83480  1.0000
  S   S58       1.0  0.11550  0.18237  0.83425  1.0000
  S   S59       1.0  0.15471  0.19970  0.83658  1.0000
  Fe  Fe28      1.0  0.09882  0.20263  0.81685  1.0000
  S   S60       1.0  0.09669  0.20138  0.79036  1.0000
  Fe  Fe29      1.0  0.09387  0.19110  0.85619  1.0000
  S   S61       1.0  0.08641  0.17314  0.88212  1.0000
  S   S62       1.0  0.11161  0.22434  0.81550  1.0000
  S   S63       1.0  0.10578  0.21213  0.85780  1.0000
  H   H396      1.0  0.00238  0.10545  0.73313  1.0000
  H   H397      1.0  0.07856  0.05298  0.71346  1.0000
  H   H398      1.0  0.42951  0.98544  0.75628  1.0000
  S   S64       1.0  0.23501  0.09648  0.96419  1.0000
  C   C220      1.0  0.27709  0.98649  0.75421  1.0000
  H   H399      1.0  0.14946  0.06146  0.77470  1.0000
  C   C221      1.0  0.19015  0.13789  0.96590  1.0000
  C   C222      1.0  0.49057  0.06097  0.78950  1.0000
  H   H400      1.0  0.43245  0.02833  0.76751  1.0000
  C   C223      1.0  0.46680  0.03091  0.96475  1.0000
  Fe  Fe30      1.0  0.01344  0.09112  0.66362  1.0000
  Fe  Fe31      1.0  0.23512  0.08122  0.85239  1.0000
  S   S65       1.0  0.21557  0.06791  0.87343  1.0000
  S   S66       1.0  0.26338  0.06776  0.85383  1.0000
  Fe  Fe32      1.0  0.20602  0.10741  0.83579  1.0000
  S   S67       1.0  0.18432  0.09585  0.85546  1.0000
  S   S68       1.0  0.19781  0.12892  0.81355  1.0000
  Fe  Fe33      1.0  0.19965  0.09499  0.87493  1.0000
  S   S69       1.0  0.18683  0.10555  0.89932  1.0000
  Fe  Fe34      1.0  0.20248  0.06995  0.85185  1.0000
  S   S70       1.0  0.19478  0.04594  0.85013  1.0000
  S   S71       1.0  0.22026  0.10842  0.85542  1.0000
  S   S72       1.0  0.22309  0.08155  0.83066  1.0000
  Fe  Fe35      1.0  0.02653  0.17856  0.75817  1.0000
  C   C224      1.0  0.19600  0.04360  0.82903  1.0000
  C   C225      1.0  0.19351  0.02802  0.82684  1.0000
  C   C226      1.0  0.19423  0.02598  0.81011  1.0000
  C   C227      1.0  0.19730  0.03962  0.79554  1.0000
  C   C228      1.0  0.19975  0.05519  0.79775  1.0000
  C   C229      1.0  0.19931  0.05710  0.81441  1.0000
  H   H401      1.0  0.19094  0.01753  0.83812  1.0000
  H   H402      1.0  0.19220  0.01398  0.80851  1.0000
  H   H403      1.0  0.20113  0.06919  0.81597  1.0000
  C   C230      1.0  0.20176  0.07316  0.95075  1.0000
  C   C231      1.0  0.20241  0.06469  0.93776  1.0000
  C   C232      1.0  0.19808  0.07452  0.92179  1.0000
  C   C233      1.0  0.19248  0.09280  0.91906  1.0000
  C   C234      1.0  0.19129  0.10118  0.93231  1.0000
  C   C235      1.0  0.19628  0.09143  0.94797  1.0000
  H   H404      1.0  0.20646  0.05054  0.93996  1.0000
  H   H405      1.0  0.19874  0.06795  0.91175  1.0000
  H   H406      1.0  0.18690  0.11530  0.93030  1.0000
  H   H407      1.0  0.19572  0.09803  0.95795  1.0000
  C   C236      1.0  0.42042  0.04054  0.71052  1.0000
  H   H408      1.0  0.11350  0.11972  0.80627  1.0000
  H   H409      1.0  0.43633  0.07781  0.70957  1.0000
  C   C237      1.0  0.19416  0.05631  0.72117  1.0000
  H   H410      1.0  0.14130  0.15064  0.77166  1.0000
  H   H411      1.0  0.41359  0.09998  0.85545  1.0000
  H   H412      1.0  0.12759  0.17151  0.87634  1.0000
  C   C238      1.0  0.16707  0.18028  0.82992  1.0000
  C   C239      1.0  0.16342  0.17548  0.81638  1.0000
  C   C240      1.0  0.17332  0.15993  0.81115  1.0000
  C   C241      1.0  0.18623  0.14867  0.81999  1.0000
  C   C242      1.0  0.18979  0.15337  0.83366  1.0000
  C   C243      1.0  0.18057  0.16942  0.83826  1.0000
  H   H413      1.0  0.15329  0.18402  0.80963  1.0000
  H   H414      1.0  0.17098  0.15655  0.80030  1.0000
  H   H415      1.0  0.19994  0.14487  0.84037  1.0000
  H   H416      1.0  0.18367  0.17329  0.84849  1.0000
  C   C244      1.0  0.16503  0.16197  0.96018  1.0000
  C   C245      1.0  0.17561  0.14548  0.95794  1.0000
  C   C246      1.0  0.00758  0.11303  0.71996  1.0000
  H   H417      1.0  0.48981  0.08192  0.96590  1.0000
  H   H418      1.0  0.46534  0.08669  0.71532  1.0000
  H   H419      1.0  0.31482  0.01490  0.80592  1.0000
  H   H420      1.0  0.17237  0.13837  0.95031  1.0000
  H   H421      1.0  0.07375  0.12441  0.66815  1.0000
  H   H422      1.0  0.47761  0.00147  0.67294  1.0000
  C   C247      1.0  0.06520  0.14026  0.71779  1.0000
  C   C248      1.0  0.07524  0.20815  0.92065  1.0000
  C   C249      1.0  0.06882  0.21437  0.90528  1.0000
  C   C250      1.0  0.07211  0.20348  0.89367  1.0000
  C   C251      1.0  0.08140  0.18608  0.89754  1.0000
  C   C252      1.0  0.08751  0.17960  0.91311  1.0000
  C   C253      1.0  0.08468  0.19073  0.92454  1.0000
  H   H423      1.0  0.45297  0.12990  0.95787  1.0000
  H   H424      1.0  0.06747  0.20859  0.88162  1.0000
  H   H425      1.0  0.09481  0.16616  0.91608  1.0000
  H   H426      1.0  0.08967  0.18580  0.93639  1.0000
  C   C254      1.0  0.48533  0.06170  0.69892  1.0000
  H   H427      1.0  0.31407  0.09733  0.78668  1.0000
  S   S73       1.0  0.49263  0.10897  0.88249  1.0000
  C   C255      1.0  0.13720  0.06881  0.74422  1.0000
  H   H428      1.0  0.47498  0.01671  0.88336  1.0000
  C   C256      1.0  0.41043  0.99508  0.69990  1.0000
  C   C257      1.0  0.18252  0.99305  0.70818  1.0000
  C   C258      1.0  0.39386  0.00060  0.69232  1.0000
  H   H429      1.0  0.20281  0.04525  0.72849  1.0000
  C   C259      1.0  0.46668  0.07409  0.72526  1.0000
  C   C260      1.0  0.30629  0.09809  0.82287  1.0000
  C   C261      1.0  0.28863  0.10548  0.82155  1.0000
  C   C262      1.0  0.27528  0.09622  0.83089  1.0000
  C   C263      1.0  0.27968  0.07947  0.84133  1.0000
  C   C264      1.0  0.29739  0.07185  0.84211  1.0000
  C   C265      1.0  0.31066  0.08117  0.83299  1.0000
  H   H430      1.0  0.28521  0.11853  0.81363  1.0000
  H   H431      1.0  0.26161  0.10213  0.83015  1.0000
  H   H432      1.0  0.30087  0.05878  0.84998  1.0000
  H   H433      1.0  0.32430  0.07519  0.83373  1.0000
  C   C266      1.0  0.37849  0.09799  0.88414  1.0000
  C   C267      1.0  0.37946  0.08007  0.88658  1.0000
  C   C268      1.0  0.38696  0.06803  0.90001  1.0000
  C   C269      1.0  0.39352  0.07386  0.91096  1.0000
  C   C270      1.0  0.39246  0.09180  0.90857  1.0000
  C   C271      1.0  0.38486  0.10388  0.89522  1.0000
  H   H434      1.0  0.37409  0.07548  0.87839  1.0000
  H   H435      1.0  0.38747  0.05421  0.90212  1.0000
  H   H436      1.0  0.39782  0.09635  0.91674  1.0000
  H   H437      1.0  0.38404  0.11775  0.89340  1.0000
  H   H438      1.0  0.14176  0.19267  0.87556  1.0000
  C   C272      1.0  0.08019  0.19259  0.78780  1.0000
  S   S74       1.0  0.04261  0.16467  0.77882  1.0000
  H   H439      1.0  0.44336  0.07304  0.87174  1.0000
  C   C273      1.0  0.32737  0.07777  0.91998  1.0000
  C   C274      1.0  0.11797  0.13737  0.82553  1.0000
  H   H440      1.0  0.20489  0.16816  0.86945  1.0000
  C   C275      1.0  0.48237  0.99020  0.81734  1.0000
  C   C276      1.0  0.44719  0.11618  0.81183  1.0000
  C   C277      1.0  0.42867  0.12122  0.81549  1.0000
  C   C278      1.0  0.41863  0.11210  0.81119  1.0000
  C   C279      1.0  0.42708  0.09825  0.80272  1.0000
  C   C280      1.0  0.44560  0.09312  0.79916  1.0000
  C   C281      1.0  0.45563  0.10203  0.80379  1.0000
  H   H441      1.0  0.48505  0.08728  0.92878  1.0000
  H   H442      1.0  0.40436  0.11619  0.81398  1.0000
  H   H443      1.0  0.45217  0.08242  0.79262  1.0000
  H   H444      1.0  0.46992  0.09848  0.80048  1.0000
  H   H445      1.0  0.44979  0.01604  0.96164  1.0000
  S   S75       1.0  0.28580  0.07415  0.96329  1.0000
  C   C282      1.0  0.33174  0.06157  0.73417  1.0000
  C   C283      1.0  0.28974  0.01822  0.79871  1.0000
  C   C284      1.0  0.24825  0.02219  0.81135  1.0000
  C   C285      1.0  0.30818  0.00758  0.80106  1.0000
  C   C286      1.0  0.23868  0.02298  0.86653  1.0000
  H   H446      1.0  0.04503  0.03295  0.69126  1.0000
  S   S76       1.0  0.19224  0.00682  0.71404  1.0000
  H   H447      1.0  0.22523  0.03138  0.86630  1.0000
  C   C287      1.0  0.36418  0.99917  0.82301  1.0000
  H   H448      1.0  0.46657  0.06649  0.96764  1.0000
  C   C288      1.0  0.36262  0.00546  0.85081  1.0000
  C   C289      1.0  0.36623  0.02199  0.84230  1.0000
  C   C290      1.0  0.36926  0.02692  0.82402  1.0000
  C   C291      1.0  0.36824  0.01551  0.81437  1.0000
  H   H449      1.0  0.23921  0.99355  0.68838  1.0000
  H   H450      1.0  0.36039  0.00152  0.86490  1.0000
  H   H451      1.0  0.37255  0.03938  0.81728  1.0000
  H   H452      1.0  0.37057  0.01939  0.80028  1.0000
  C   C292      1.0  0.43396  0.08476  0.73423  1.0000
  H   H453      1.0  0.39942  0.08325  0.73365  1.0000
  H   H454      1.0  0.41928  0.16242  0.86253  1.0000
  Fe  Fe36      1.0  0.49008  0.01028  0.72667  1.0000
  H   H455      1.0  0.13159  0.11431  0.73787  1.0000
  H   H456      1.0  0.00105  0.11128  0.71047  1.0000
  H   H457      1.0  0.20747  0.16684  0.89117  1.0000
  H   H458      1.0  0.26026  0.00897  0.85027  1.0000
  H   H459      1.0  0.48472  0.07326  0.78175  1.0000
  C   C293      1.0  0.41250  0.03481  0.72805  1.0000
  C   C294      1.0  0.42301  0.02342  0.73944  1.0000
  C   C295      1.0  0.44147  0.01822  0.73345  1.0000
  H   H460      1.0  0.41687  0.01885  0.75296  1.0000
  H   H461      1.0  0.44947  0.00940  0.74232  1.0000
  H   H462      1.0  0.19953  0.05689  0.70698  1.0000
  C   C296      1.0  0.31381  0.10967  0.75973  1.0000
  H   H463      1.0  0.01859  0.19352  0.79615  1.0000
  C   C297      1.0  0.03620  0.18199  0.66125  1.0000
  C   C298      1.0  0.42773  0.07633  0.72289  1.0000
  H   H464      1.0  0.23884  0.01136  0.84596  1.0000
  H   H465      1.0  0.17337  0.17301  0.90372  1.0000
  S   S77       1.0  0.03773  0.18551  0.69287  1.0000
  C   C299      1.0  0.04789  0.05751  0.67311  1.0000
  C   C300      1.0  0.10606  0.14352  0.78702  1.0000
  N   N14       1.0  0.26364  0.06717  0.90804  1.0000
  C   C301      1.0  0.24996  0.06053  0.90380  1.0000
  C   C302      1.0  0.25765  0.08675  0.90731  1.0000
  C   C303      1.0  0.28032  0.06444  0.89400  1.0000
  C   C304      1.0  0.26809  0.05728  0.92548  1.0000
  C   C305      1.0  0.25244  0.05375  0.94107  1.0000
  C   C306      1.0  0.25504  0.04078  0.90304  1.0000
  C   C307      1.0  0.29638  0.06973  0.89647  1.0000
  C   C308      1.0  0.23756  0.09420  0.91338  1.0000
  C   C309      1.0  0.23383  0.11362  0.91376  1.0000
  C   C310      1.0  0.25921  0.04062  0.95652  1.0000
  C   C311      1.0  0.23878  0.03281  0.90778  1.0000
  C   C312      1.0  0.31185  0.06829  0.88074  1.0000
  H   H466      1.0  0.24702  0.06827  0.89092  1.0000
  H   H467      1.0  0.23705  0.06295  0.91314  1.0000
  H   H468      1.0  0.26472  0.09076  0.91496  1.0000
  H   H469      1.0  0.26124  0.09437  0.89364  1.0000
  H   H470      1.0  0.27762  0.07178  0.88093  1.0000
  H   H471      1.0  0.28492  0.05043  0.89308  1.0000
  H   H472      1.0  0.27732  0.04440  0.92426  1.0000
  H   H473      1.0  0.27569  0.06430  0.92968  1.0000
  H   H474      1.0  0.24305  0.04801  0.93800  1.0000
  H   H475      1.0  0.24517  0.06607  0.94541  1.0000
  H   H476      1.0  0.26233  0.03943  0.88958  1.0000
  H   H477      1.0  0.26373  0.03270  0.91205  1.0000
  H   H478      1.0  0.30111  0.06087  0.90811  1.0000
  H   H479      1.0  0.29288  0.08343  0.89818  1.0000
  H   H480      1.0  0.23022  0.09328  0.90412  1.0000
  H   H481      1.0  0.23219  0.08698  0.92656  1.0000
  H   H482      1.0  0.23970  0.11529  0.92379  1.0000
  H   H483      1.0  0.23923  0.12138  0.90077  1.0000
  H   H484      1.0  0.21931  0.11889  0.91709  1.0000
  H   H485      1.0  0.26118  0.02572  0.78298  1.0000
  C   C313      1.0  0.46551  0.00524  0.66754  1.0000
  S   S78       1.0  0.42071  0.06759  0.96328  1.0000
  H   H486      1.0  0.23185  0.03276  0.92160  1.0000
  H   H487      1.0  0.22941  0.04032  0.89925  1.0000
  H   H488      1.0  0.24295  0.01905  0.90612  1.0000
  H   H489      1.0  0.31504  0.05522  0.87747  1.0000
  H   H490      1.0  0.30859  0.07872  0.86928  1.0000
  H   H491      1.0  0.32382  0.07000  0.88367  1.0000
  C   C314      1.0  0.41181  0.02824  0.86948  1.0000
  C   C315      1.0  0.39642  0.02499  0.88501  1.0000
  H   H492      1.0  0.42091  0.04243  0.88297  1.0000
  H   H493      1.0  0.40761  0.05554  0.86808  1.0000
  H   H494      1.0  0.40667  0.03094  0.85747  1.0000
  H   H495      1.0  0.42221  0.01599  0.86988  1.0000
  H   H496      1.0  0.31843  0.10664  0.74656  1.0000
  H   H497      1.0  0.38508  0.03651  0.88431  1.0000
  H   H498      1.0  0.03863  0.12492  0.65950  1.0000
  H   H499      1.0  0.09664  0.15278  0.79469  1.0000
  H   H500      1.0  0.34784  0.12588  0.94997  1.0000
  C   C316      1.0  0.32537  0.06715  0.75168  1.0000
  H   H501      1.0  0.17568  0.04155  0.72214  1.0000
  C   C317      1.0  0.46017  0.11172  0.75675  1.0000
  H   H502      1.0  0.48688  0.10313  0.93953  1.0000
  H   H503      1.0  0.01395  0.22697  0.85243  1.0000
  H   H504      1.0  0.39752  0.00231  0.67789  1.0000
  Fe  Fe37      1.0  0.11493  0.23288  0.96075  1.0000
  H   H505      1.0  0.43402  0.06212  0.77614  1.0000
  C   C318      1.0  0.48183  0.09120  0.94147  1.0000
  C   C319      1.0  0.02320  0.22150  0.81961  1.0000
  H   H506      1.0  0.44960  0.98390  0.72667  1.0000
  H   H507      1.0  0.47917  0.05824  0.94897  1.0000
  S   S79       1.0  0.02716  0.06930  0.68263  1.0000
  N   N15       1.0  0.05493  0.11326  0.69018  1.0000
  H   H508      1.0  0.25245  0.00778  0.81637  1.0000
  C   C320      1.0  0.01686  0.19838  0.80807  1.0000
  C   C321      1.0  0.02978  0.17736  0.67930  1.0000
  H   H509      1.0  0.44466  0.99674  0.69838  1.0000
  H   H510      1.0  0.46454  0.12417  0.74994  1.0000
  H   H511      1.0  0.45620  0.08190  0.90223  1.0000
  H   H512      1.0  0.44611  0.01413  0.87951  1.0000
  C   C322      1.0  0.06324  0.11814  0.70210  1.0000
  H   H513      1.0  0.32227  0.05553  0.76182  1.0000
  H   H514      1.0  0.00421  0.12715  0.72041  1.0000
  S   S80       1.0  0.07104  0.22244  0.93471  1.0000
  C   C323      1.0  0.05663  0.13732  0.70465  1.0000
  H   H515      1.0  0.07444  0.01624  0.67813  1.0000
  H   H516      1.0  0.45083  0.04332  0.87524  1.0000
  C   C324      1.0  0.06283  0.09438  0.68855  1.0000
  C   C325      1.0  0.31898  0.07166  0.96771  1.0000
  H   H517      1.0  0.46721  0.09455  0.94598  1.0000
  H   H518      1.0  0.16875  0.01424  0.69081  1.0000
  S   S81       1.0  0.47230  0.01697  0.70763  1.0000
  H   H519      1.0  0.04208  0.14051  0.70968  1.0000
  H   H520      1.0  0.12469  0.15270  0.89353  1.0000
  H   H521      1.0  0.15398  0.13252  0.81376  1.0000
  C   C326      1.0  0.14019  0.17738  0.90275  1.0000
  H   H522      1.0  0.19450  0.06877  0.72403  1.0000
  S   S82       1.0  0.09799  0.19016  0.97001  1.0000
  H   H523      1.0  0.28635  0.10976  0.76100  1.0000
  H   H524      1.0  0.38582  0.01329  0.69550  1.0000
  H   H525      1.0  0.42082  0.06047  0.76238  1.0000
  H   H526      1.0  0.48485  0.01494  0.86094  1.0000
  H   H527      1.0  0.12581  0.15088  0.92554  1.0000
  C   C327      1.0  0.45352  0.08460  0.75235  1.0000
  C   C328      1.0  0.17135  0.00026  0.69627  1.0000
  C   C329      1.0  0.06536  0.18720  0.76823  1.0000
  H   H528      1.0  0.03055  0.23083  0.93853  1.0000
  H   H529      1.0  0.03025  0.09223  0.71519  1.0000
  H   H530      1.0  0.15106  0.01025  0.73142  1.0000
  Fe  Fe38      1.0  0.02289  0.18796  0.72031  1.0000
  H   H531      1.0  0.30963  0.06893  0.80343  1.0000
  H   H532      1.0  0.32123  0.05677  0.73171  1.0000
  H   H533      1.0  0.02920  0.13045  0.69512  1.0000
  H   H534      1.0  0.47180  0.10090  0.73412  1.0000
  H   H535      1.0  0.25098  0.99894  0.78902  1.0000
  H   H536      1.0  0.42276  0.03529  0.78780  1.0000
  H   H537      1.0  0.44656  0.02965  0.78042  1.0000
  H   H538      1.0  0.13215  0.10230  0.72219  1.0000
  H   H539      1.0  0.32090  0.11935  0.76028  1.0000
  H   H540      1.0  0.19805  0.12504  0.96440  1.0000
  C   C330      1.0  0.13904  0.12728  0.94040  1.0000
  H   H541      1.0  0.16509  0.13538  0.91165  1.0000
  H   H542      1.0  0.15973  0.14160  0.88392  1.0000
  H   H543      1.0  0.18790  0.14455  0.88157  1.0000
  H   H544      1.0  0.19086  0.14293  0.90310  1.0000
  H   H545      1.0  0.13543  0.13291  0.91434  1.0000
  H   H546      1.0  0.12682  0.12205  0.94594  1.0000
  H   H547      1.0  0.15057  0.11610  0.93861  1.0000
  H   H548      1.0  0.14216  0.15245  0.85491  1.0000
  H   H549      1.0  0.21738  0.14839  0.88087  1.0000
  N   N16       1.0  0.25905  0.03198  0.81612  1.0000
  C   C331      1.0  0.25896  0.04980  0.80386  1.0000
  H   H550      1.0  0.48006  0.99036  0.80450  1.0000
  C   C332      1.0  0.25027  0.03493  0.83431  1.0000
  H   H551      1.0  0.24675  0.03008  0.86992  1.0000
  Fe  Fe39      1.0  0.11104  0.99815  0.65803  1.0000
  C   C333      1.0  0.26882  0.06170  0.80768  1.0000
  C   C334      1.0  0.02422  0.21493  0.80310  1.0000
  H   H552      1.0  0.06162  0.22772  0.90204  1.0000
  S   S83       1.0  0.02114  0.16376  0.74148  1.0000
  C   C335      1.0  0.45287  0.11833  0.96839  1.0000
  C   C336      1.0  0.26964  0.07837  0.79330  1.0000
  H   H553      1.0  0.01679  0.22463  0.79374  1.0000
  H   H554      1.0  0.24500  0.05722  0.80395  1.0000
  H   H555      1.0  0.26487  0.04859  0.79015  1.0000
  H   H556      1.0  0.22862  0.00933  0.79816  1.0000
  H   H557      1.0  0.47478  0.15349  0.83396  1.0000
  H   H558      1.0  0.23701  0.04401  0.83431  1.0000
  H   H559      1.0  0.25815  0.04137  0.83879  1.0000
  H   H560      1.0  0.28451  0.02692  0.82281  1.0000
  H   H561      1.0  0.15409  0.02438  0.75272  1.0000
  H   H562      1.0  0.41239  0.04940  0.70165  1.0000
  H   H563      1.0  0.05760  0.22453  0.80227  1.0000
  H   H564      1.0  0.26179  0.06596  0.82000  1.0000
  H   H565      1.0  0.28259  0.05482  0.80868  1.0000
  H   H566      1.0  0.42656  0.99282  0.72647  1.0000
  Fe  Fe40      1.0  0.00624  0.12980  0.64622  1.0000
  H   H567      1.0  0.42786  0.06229  0.72867  1.0000
  C   C337      1.0  0.16957  0.17125  0.96970  1.0000
  H   H568      1.0  0.03439  0.21262  0.82545  1.0000
  H   H569      1.0  0.30852  0.13812  0.87172  1.0000
  C   C338      1.0  0.31704  0.09291  0.77426  1.0000
  C   C339      1.0  0.05921  0.12503  0.67229  1.0000
  C   C340      1.0  0.03097  0.17546  0.64980  1.0000
  H   H570      1.0  0.40576  0.99366  0.71423  1.0000
  H   H571      1.0  0.27625  0.08685  0.79672  1.0000
  H   H572      1.0  0.27730  0.07507  0.78061  1.0000
  H   H573      1.0  0.25606  0.08589  0.79200  1.0000
  H   H574      1.0  0.05343  0.08917  0.68466  1.0000
  S   S84       1.0  0.14003  0.98622  0.64958  1.0000
  H   H575      1.0  0.07789  0.11586  0.69710  1.0000
  H   H576      1.0  0.17583  0.10191  0.81824  1.0000
  H   H577      1.0  0.16677  0.08269  0.82370  1.0000
  H   H578      1.0  0.14876  0.04272  0.72132  1.0000
  H   H579      1.0  0.17562  0.03838  0.75197  1.0000
  C   C341      1.0  0.13807  0.01963  0.73094  1.0000
  H   H580      1.0  0.46186  0.04993  0.75571  1.0000
  H   H581      1.0  0.06065  0.05855  0.70241  1.0000
  H   H582      1.0  0.30674  0.08558  0.77596  1.0000
  H   H583      1.0  0.32673  0.98672  0.70291  1.0000
  C   C342      1.0  0.43390  0.03590  0.77615  1.0000
  H   H584      1.0  0.48417  0.07101  0.81270  1.0000
  H   H585      1.0  0.06345  0.18909  0.75518  1.0000
  H   H586      1.0  0.13366  0.04044  0.80846  1.0000
  H   H587      1.0  0.31738  0.13497  0.89938  1.0000
  S   S85       1.0  0.03093  0.20194  0.73625  1.0000
  H   H588      1.0  0.25770  0.01013  0.74765  1.0000
  C   C343      1.0  0.28130  0.01592  0.75019  1.0000
  S   S86       1.0  0.38790  0.99493  0.76267  1.0000
  H   H589      1.0  0.47663  0.99690  0.87661  1.0000
  H   H590      1.0  0.47001  0.10325  0.76450  1.0000
  H   H591      1.0  0.32322  0.06074  0.96131  1.0000
  H   H592      1.0  0.07496  0.09354  0.67782  1.0000
  H   H593      1.0  0.45963  0.05697  0.71241  1.0000
  C   C344      1.0  0.14338  0.03628  0.75040  1.0000
  H   H594      1.0  0.39184  0.01346  0.88463  1.0000
  C   C345      1.0  0.05908  0.06602  0.65892  1.0000
  H   H595      1.0  0.33476  0.07282  0.72329  1.0000
  H   H596      1.0  0.16724  0.06507  0.71863  1.0000
  H   H597      1.0  0.09062  0.14221  0.82268  1.0000
  C   C346      1.0  0.01819  0.16579  0.68587  1.0000
  S   S87       1.0  0.31126  0.02345  0.75312  1.0000
  H   H598      1.0  0.07577  0.15488  0.84827  1.0000
  H   H599      1.0  0.48878  0.05023  0.69282  1.0000
  C   C347      1.0  0.29836  0.00904  0.75350  1.0000
  H   H600      1.0  0.34295  0.14607  0.93395  1.0000
  H   H601      1.0  0.28435  0.01050  0.79304  1.0000
  H   H602      1.0  0.47656  0.04633  0.72437  1.0000
  H   H603      1.0  0.03822  0.21183  0.79591  1.0000
  H   H604      1.0  0.05209  0.16532  0.80993  1.0000
  H   H605      1.0  0.35178  0.12880  0.91079  1.0000
  H   H606      1.0  0.16496  0.02864  0.77959  1.0000
  C   C348      1.0  0.43976  0.10876  0.97200  1.0000
  C   C349      1.0  0.35105  0.13244  0.93592  1.0000
  H   H607      1.0  0.46948  0.00867  0.65306  1.0000
  H   H608      1.0  0.12285  0.06888  0.74968  1.0000
  H   H609      1.0  0.08965  0.13353  0.85442  1.0000
  C   C350      1.0  0.16788  0.05125  0.74615  1.0000
  H   H610      1.0  0.12579  0.04651  0.73189  1.0000
  N   N17       1.0  0.45075  0.07480  0.74041  1.0000
  H   H611      1.0  0.01319  0.16212  0.69982  1.0000
  S   S88       1.0  0.18391  0.99917  0.76358  1.0000
  H   H612      1.0  0.23911  0.03850  0.78788  1.0000
  H   H613      1.0  0.28902  0.12190  0.77524  1.0000
  H   H614      1.0  0.17186  0.06100  0.75066  1.0000
  H   H615      1.0  0.14354  0.02371  0.78465  1.0000
  H   H616      1.0  0.31301  0.07739  0.75092  1.0000
  C   C351      1.0  0.08970  0.14728  0.84709  1.0000
  N   N18       1.0  0.14825  0.05201  0.75279  1.0000
  H   H617      1.0  0.34537  0.07098  0.96951  1.0000
  H   H618      1.0  0.13912  0.06971  0.73005  1.0000
  S   S89       1.0  0.35062  0.02387  0.77128  1.0000
  C   C352      1.0  0.41895  0.04410  0.86958  1.0000
  C   C353      1.0  0.13362  0.15751  0.88117  1.0000
  C   C354      1.0  0.15264  0.15560  0.88330  1.0000
  C   C355      1.0  0.18894  0.15210  0.89050  1.0000
  Fe  Fe41      1.0  0.37487  0.02158  0.74953  1.0000
  H   H619      1.0  0.42050  0.07191  0.87784  1.0000
  H   H620      1.0  0.15928  0.16295  0.87066  1.0000
  H   H621      1.0  0.17096  0.09480  0.80134  1.0000
  H   H622      1.0  0.14367  0.10692  0.83276  1.0000
  C   C356      1.0  0.15474  0.14710  0.91451  1.0000
  C   C357      1.0  0.13756  0.14019  0.92293  1.0000
  C   C358      1.0  0.20567  0.15941  0.88251  1.0000
  H   H623      1.0  0.44875  0.11164  0.73614  1.0000
  Fe  Fe42      1.0  0.08985  0.22968  0.83867  1.0000
  H   H624      1.0  0.14057  0.13402  0.94982  1.0000
  C   C359      1.0  0.16647  0.09604  0.81517  1.0000
  C   C360      1.0  0.13400  0.14739  0.86784  1.0000
  H   H625      1.0  0.12032  0.14903  0.86640  1.0000
  H   H626      1.0  0.15843  0.15120  0.92466  1.0000
  C   C361      1.0  0.17218  0.16703  0.89348  1.0000
  C   C362      1.0  0.31348  0.99560  0.70562  1.0000
  N   N19       1.0  0.15455  0.16175  0.89836  1.0000
  C   C363      1.0  0.13895  0.03758  0.73269  1.0000
  C   C364      1.0  0.27072  0.00468  0.75047  1.0000
  C   C365      1.0  0.31937  0.11318  0.88787  1.0000
  S   S90       1.0  0.38976  0.04303  0.73581  1.0000
  C   C366      1.0  0.43106  0.07621  0.86679  1.0000
  H   H627      1.0  0.42373  0.07426  0.84384  1.0000
  N   N20       1.0  0.43546  0.04782  0.85595  1.0000
  C   C367      1.0  0.43432  0.06741  0.85127  1.0000
  C   C368      1.0  0.42550  0.09612  0.86117  1.0000
  H   H628      1.0  0.42428  0.04988  0.83417  1.0000
  H   H629      1.0  0.43646  0.10156  0.85146  1.0000
  H   H630      1.0  0.17309  0.17731  0.88114  1.0000
  H   H631      1.0  0.40988  0.14470  0.84779  1.0000
  C   C369      1.0  0.01342  0.15869  0.67430  1.0000
  H   H632      1.0  0.43975  0.07813  0.92224  1.0000
  C   C370      1.0  0.43628  0.04242  0.83946  1.0000
  C   C371      1.0  0.45187  0.03907  0.86311  1.0000
  H   H633      1.0  0.43589  0.02840  0.84204  1.0000
  H   H634      1.0  0.36526  0.13304  0.93228  1.0000
  H   H635      1.0  0.12684  0.17468  0.90545  1.0000
  H   H636      1.0  0.42290  0.08733  0.74558  1.0000
  H   H637      1.0  0.39196  0.14079  0.86648  1.0000
  H   H638      1.0  0.39229  0.16275  0.85368  1.0000
  H   H639      1.0  0.13952  0.13316  0.87226  1.0000
  H   H640      1.0  0.42207  0.13220  0.82163  1.0000
  Fe  Fe43      1.0  0.33933  0.01162  0.75660  1.0000
  H   H641      1.0  0.20207  0.06580  0.78653  1.0000
  H   H642      1.0  0.44673  0.07074  0.84235  1.0000
  C   C372      1.0  0.40070  0.15004  0.85896  1.0000
  H   H643      1.0  0.15181  0.20021  0.88834  1.0000
  C   C373      1.0  0.45607  0.01877  0.86788  1.0000
  C   C374      1.0  0.45281  0.04474  0.82460  1.0000
  H   H644      1.0  0.46366  0.04351  0.85386  1.0000
  H   H645      1.0  0.45422  0.05853  0.82049  1.0000
  H   H646      1.0  0.40055  0.02235  0.89755  1.0000
  H   H647      1.0  0.43916  0.04793  0.80419  1.0000
  H   H648      1.0  0.42200  0.10176  0.87283  1.0000
  C   C375      1.0  0.14047  0.19477  0.88873  1.0000
  H   H649      1.0  0.14104  0.18009  0.91510  1.0000
  C   C376      1.0  0.14766  0.10724  0.81853  1.0000
  H   H650      1.0  0.15497  0.12573  0.79458  1.0000
  H   H651      1.0  0.13884  0.10099  0.81515  1.0000
  H   H652      1.0  0.34920  0.05774  0.92931  1.0000
  S   S91       1.0  0.36254  0.01182  0.73372  1.0000
  H   H653      1.0  0.31797  0.98541  0.75946  1.0000
  C   C377      1.0  0.45132  0.03965  0.80857  1.0000
  H   H654      1.0  0.45619  0.01319  0.85693  1.0000
  H   H655      1.0  0.45080  0.02559  0.81159  1.0000
  H   H656      1.0  0.41303  0.12733  0.88743  1.0000
  H   H657      1.0  0.42968  0.12795  0.86793  1.0000
  H   H658      1.0  0.42740  0.11004  0.91887  1.0000
  H   H659      1.0  0.26836  0.04573  0.96078  1.0000
  H   H660      1.0  0.26755  0.11489  0.93024  1.0000
  H   H661      1.0  0.23738  0.01085  0.87680  1.0000
  H   H662      1.0  0.46498  0.03618  0.82871  1.0000
  C   C378      1.0  0.14681  0.12646  0.80793  1.0000
  C   C379      1.0  0.44936  0.02385  0.71586  1.0000
  C   C380      1.0  0.41114  0.15284  0.87058  1.0000
  H   H663      1.0  0.08592  0.14382  0.77398  1.0000
  C   C381      1.0  0.12364  0.20871  0.89290  1.0000
  C   C382      1.0  0.42262  0.13517  0.87850  1.0000
  H   H664      1.0  0.40143  0.15876  0.88115  1.0000
  H   H665      1.0  0.33581  0.05000  0.91996  1.0000
  H   H666      1.0  0.37010  0.07040  0.77861  1.0000
  H   H667      1.0  0.40769  0.09971  0.71535  1.0000
  H   H668      1.0  0.46291  0.04186  0.79775  1.0000
  H   H669      1.0  0.15727  0.15373  0.78112  1.0000
  H   H670      1.0  0.41765  0.00587  0.69446  1.0000
  H   H671      1.0  0.12493  0.14205  0.83280  1.0000
  C   C383      1.0  0.34186  0.06111  0.91872  1.0000
  C   C384      1.0  0.42540  0.14472  0.90330  1.0000
  H   H672      1.0  0.11472  0.10220  0.74184  1.0000
  H   H673      1.0  0.11176  0.20415  0.89329  1.0000
  H   H674      1.0  0.13492  0.02086  0.71820  1.0000
  C   C385      1.0  0.43872  0.03487  0.70440  1.0000
  C   C386      1.0  0.43546  0.10496  0.90718  1.0000
  H   H675      1.0  0.44673  0.14631  0.85004  1.0000
  H   H676      1.0  0.42656  0.10190  0.90083  1.0000
  H   H677      1.0  0.30262  0.10321  0.94135  1.0000
  H   H678      1.0  0.41420  0.13833  0.91099  1.0000
  H   H679      1.0  0.33872  0.08888  0.93368  1.0000
  H   H680      1.0  0.31712  0.07464  0.93197  1.0000
  H   H681      1.0  0.35125  0.06291  0.90585  1.0000
  H   H682      1.0  0.06131  0.13187  0.73091  1.0000
  H   H683      1.0  0.13017  0.12375  0.78725  1.0000
  S   S92       1.0  0.47904  0.01178  0.75469  1.0000
  H   H684      1.0  0.47894  0.07265  0.72986  1.0000
  N   N21       1.0  0.43559  0.13643  0.88803  1.0000
  H   H685      1.0  0.45672  0.11884  0.90006  1.0000
  H   H686      1.0  0.41903  0.15867  0.89852  1.0000
  S   S93       1.0  0.19764  0.03792  0.77447  1.0000
  H   H687      1.0  0.14245  0.18588  0.77811  1.0000
  C   C387      1.0  0.14328  0.15840  0.77986  1.0000
  C   C388      1.0  0.44615  0.11823  0.89406  1.0000
  S   S94       1.0  0.22214  0.00960  0.74253  1.0000
  C   C389      1.0  0.17520  0.05361  0.72620  1.0000
  H   H688      1.0  0.12748  0.18250  0.76707  1.0000
  H   H689      1.0  0.05769  0.10721  0.65679  1.0000
  N   N22       1.0  0.12848  0.13772  0.80698  1.0000
  C   C390      1.0  0.11994  0.13032  0.79715  1.0000
  C   C391      1.0  0.14085  0.17763  0.77011  1.0000
  H   H690      1.0  0.13570  0.16157  0.80650  1.0000
  C   C392      1.0  0.45686  0.14379  0.85778  1.0000
  C   C393      1.0  0.44777  0.08761  0.91348  1.0000
  H   H691      1.0  0.44185  0.16179  0.87457  1.0000
  H   H692      1.0  0.41313  0.15067  0.93676  1.0000
  C   C394      1.0  0.30362  0.10989  0.92740  1.0000
  C   C395      1.0  0.33478  0.09312  0.92084  1.0000
  H   H693      1.0  0.29917  0.10152  0.92163  1.0000
  H   H694      1.0  0.07203  0.18092  0.81504  1.0000
  H   H695      1.0  0.29135  0.03082  0.78936  1.0000
  H   H696      1.0  0.31229  0.03923  0.82082  1.0000
  C   C396      1.0  0.13059  0.15623  0.79819  1.0000
  H   H697      1.0  0.11268  0.15161  0.77494  1.0000
  H   H698      1.0  0.44470  0.03937  0.69081  1.0000
  H   H699      1.0  0.23398  0.02570  0.81791  1.0000
  H   H700      1.0  0.15764  0.11743  0.97385  1.0000
  C   C397      1.0  0.03506  0.11628  0.69612  1.0000
  C   C398      1.0  0.44835  0.14759  0.87627  1.0000
  H   H701      1.0  0.48120  0.15255  0.85373  1.0000
  H   H702      1.0  0.42150  0.16964  0.92305  1.0000
  C   C399      1.0  0.27107  0.12386  0.93610  1.0000
  H   H703      1.0  0.32422  0.11571  0.94351  1.0000
  H   H704      1.0  0.09664  0.15320  0.85312  1.0000
  H   H705      1.0  0.04516  0.19087  0.65605  1.0000
  H   H706      1.0  0.30462  0.99081  0.68535  1.0000
  H   H707      1.0  0.37579  0.09971  0.77832  1.0000
  C   C400      1.0  0.31878  0.12593  0.87018  1.0000
  C   C401      1.0  0.32472  0.12105  0.90031  1.0000
  C   C402      1.0  0.24798  0.02555  0.79175  1.0000
  H   H708      1.0  0.12926  0.05519  0.77712  1.0000
  C   C403      1.0  0.05637  0.17625  0.78222  1.0000
  C   C404      1.0  0.43640  0.14472  0.91614  1.0000
  C   C405      1.0  0.42531  0.15561  0.92955  1.0000
  H   H709      1.0  0.46427  0.12996  0.85857  1.0000
  C   C406      1.0  0.07044  0.18246  0.80197  1.0000
  H   H710      1.0  0.34738  0.09346  0.91082  1.0000
  H   H711      1.0  0.29211  0.13634  0.93307  1.0000
  H   H712      1.0  0.32117  0.08106  0.90871  1.0000
  H   H713      1.0  0.26097  0.13641  0.93510  1.0000
  C   C407      1.0  0.45585  0.99016  0.67332  1.0000
  C   C408      1.0  0.32461  0.04353  0.81296  1.0000
  H   H714      1.0  0.34812  0.05534  0.78458  1.0000
  H   H715      1.0  0.33043  0.04751  0.82168  1.0000
  H   H716      1.0  0.33411  0.03227  0.80802  1.0000
  S   S95       1.0  0.20794  0.06078  0.97036  1.0000
  H   H717      1.0  0.02933  0.11236  0.68725  1.0000
  H   H718      1.0  0.10410  0.12488  0.77332  1.0000
  H   H719      1.0  0.11700  0.12375  0.83265  1.0000
  C   C409      1.0  0.05329  0.12122  0.65745  1.0000
  C   C410      1.0  0.46976  0.15565  0.84748  1.0000
  H   H720      1.0  0.44103  0.13115  0.92337  1.0000
  H   H721      1.0  0.46303  0.16970  0.84666  1.0000
  N   N23       1.0  0.32261  0.11122  0.91913  1.0000
  C   C411      1.0  0.28945  0.12735  0.92662  1.0000
  H   H722      1.0  0.27073  0.11784  0.95017  1.0000
  C   C412      1.0  0.44950  0.05646  0.75081  1.0000
  H   H723      1.0  0.38025  0.10440  0.75473  1.0000
  H   H724      1.0  0.31545  0.11972  0.86136  1.0000
  H   H725      1.0  0.37283  0.07679  0.75535  1.0000
  C   C413      1.0  0.36822  0.08179  0.76754  1.0000
  H   H726      1.0  0.15092  0.17896  0.75764  1.0000
  H   H727      1.0  0.34033  0.07116  0.79769  1.0000
  C   C414      1.0  0.38024  0.09374  0.76671  1.0000
  H   H728      1.0  0.03345  0.10849  0.72465  1.0000
  H   H729      1.0  0.06126  0.10957  0.71536  1.0000
  H   H730      1.0  0.15458  0.08691  0.74031  1.0000
  H   H731      1.0  0.05849  0.08195  0.71689  1.0000
  H   H732      1.0  0.45333  0.11216  0.88270  1.0000
  H   H733      1.0  0.45958  0.14595  0.88244  1.0000
  H   H734      1.0  0.44817  0.15036  0.90920  1.0000
  H   H735      1.0  0.43313  0.15459  0.93917  1.0000
  C   C415      1.0  0.32775  0.12137  0.92918  1.0000
  H   H736      1.0  0.35630  0.10883  0.92693  1.0000
  C   C416      1.0  0.09527  0.13402  0.78160  1.0000
  H   H737      1.0  0.13722  0.08700  0.75985  1.0000
  C   C417      1.0  0.33694  0.06646  0.78771  1.0000
  C   C418      1.0  0.32036  0.05880  0.79775  1.0000
  H   H738      1.0  0.31516  0.05399  0.78925  1.0000
  H   H739      1.0  0.08735  0.12664  0.79331  1.0000
  H   H740      1.0  0.30612  0.11005  0.89324  1.0000
  H   H741      1.0  0.15559  0.04496  0.80326  1.0000
  H   H742      1.0  0.39399  0.08594  0.76654  1.0000
  H   H743      1.0  0.11763  0.16526  0.79692  1.0000
  C   C419      1.0  0.27761  0.02119  0.81645  1.0000
  H   H744      1.0  0.44707  0.11496  0.76565  1.0000
  H   H745      1.0  0.12768  0.01426  0.74159  1.0000
  C   C420      1.0  0.29412  0.11853  0.76219  1.0000
  Fe  Fe44      1.0  0.20333  0.99611  0.73841  1.0000
  H   H746      1.0  0.13133  0.03335  0.76040  1.0000
  Fe  Fe45      1.0  0.20359  0.01108  0.76852  1.0000
  C   C421      1.0  0.07583  0.05670  0.65181  1.0000
  H   H747      1.0  0.35180  0.06304  0.75535  1.0000
  H   H748      1.0  0.34509  0.09829  0.78083  1.0000
  H   H749      1.0  0.32940  0.10110  0.88539  1.0000
  H   H750      1.0  0.12234  0.21162  0.90571  1.0000
  C   C422      1.0  0.47123  0.05880  0.71578  1.0000
  C   C423      1.0  0.34763  0.12215  0.92462  1.0000
  C   C424      1.0  0.07750  0.19507  0.77098  1.0000
  H   H751      1.0  0.08491  0.20301  0.75999  1.0000
  C   C425      1.0  0.05903  0.17380  0.79908  1.0000
  Fe  Fe46      1.0  0.00166  0.21245  0.74482  1.0000
  C   C426      1.0  0.07295  0.06215  0.70244  1.0000
  C   C427      1.0  0.43359  0.05503  0.76661  1.0000
  N   N24       1.0  0.33528  0.08112  0.77159  1.0000
  C   C428      1.0  0.29992  0.99009  0.69958  1.0000
  H   H752      1.0  0.40511  0.07968  0.71189  1.0000
  H   H753      1.0  0.27627  0.02999  0.74730  1.0000
  H   H754      1.0  0.43542  0.09800  0.72624  1.0000
  H   H755      1.0  0.45637  0.08968  0.92088  1.0000
  H   H756      1.0  0.32025  0.13524  0.92713  1.0000
  H   H757      1.0  0.48028  0.07363  0.68951  1.0000
  H   H758      1.0  0.06062  0.15422  0.71889  1.0000
  H   H759      1.0  0.12419  0.22100  0.88268  1.0000
  C   C429      1.0  0.48040  0.06115  0.96101  1.0000
  C   C430      1.0  0.33982  0.07398  0.75529  1.0000
  H   H760      1.0  0.34380  0.05079  0.73428  1.0000
  H   H761      1.0  0.34817  0.10285  0.75775  1.0000
  C   C431      1.0  0.14388  0.05156  0.77217  1.0000
  C   C432      1.0  0.09855  0.14794  0.82783  1.0000
  H   H762      1.0  0.09786  0.16189  0.82119  1.0000
  H   H763      1.0  0.34370  0.08419  0.74351  1.0000
  C   C433      1.0  0.36158  0.99410  0.84121  1.0000
  C   C434      1.0  0.06874  0.08102  0.70473  1.0000
  C   C435      1.0  0.12901  0.10215  0.73636  1.0000
  H   H764      1.0  0.27718  0.00784  0.82472  1.0000
  H   H765      1.0  0.29218  0.13083  0.75202  1.0000
  H   H766      1.0  0.28889  0.13407  0.91288  1.0000
  C   C436      1.0  0.14053  0.08607  0.74597  1.0000
  H   H767      1.0  0.45675  0.04335  0.96243  1.0000
  H   H768      1.0  0.04102  0.22041  0.86309  1.0000
  H   H769      1.0  0.33186  0.12938  0.86392  1.0000
  H   H770      1.0  0.38560  0.99061  0.69808  1.0000
  H   H771      1.0  0.30928  0.99531  0.71982  1.0000
  S   S96       1.0  0.36220  0.98480  0.81149  1.0000
  H   H772      1.0  0.31644  0.00495  0.78834  1.0000
  H   H773      1.0  0.16170  0.18412  0.97118  1.0000
  H   H774      1.0  0.47007  0.98857  0.82741  1.0000
  H   H775      1.0  0.23784  0.01585  0.77523  1.0000
  H   H776      1.0  0.15276  0.02274  0.81118  1.0000
  C   C437      1.0  0.14792  0.03568  0.80290  1.0000
  C   C438      1.0  0.49066  0.05989  0.80685  1.0000
  H   H777      1.0  0.47571  0.02921  0.95204  1.0000
  H   H778      1.0  0.00480  0.14953  0.67927  1.0000
  C   C439      1.0  0.49034  0.07635  0.95483  1.0000
  H   H779      1.0  0.44385  0.99473  0.66775  1.0000
  H   H780      1.0  0.05274  0.13901  0.67252  1.0000
  C   C440      1.0  0.30479  0.99085  0.75710  1.0000
  C   C441      1.0  0.30104  0.08014  0.97108  1.0000
  H   H781      1.0  0.00248  0.20129  0.81408  1.0000
  H   H782      1.0  0.24782  0.03834  0.96756  1.0000
  H   H783      1.0  0.46594  0.00318  0.97442  1.0000
  C   C442      1.0  0.45673  0.01613  0.97159  1.0000
  H   H784      1.0  0.30737  0.99479  0.81037  1.0000
  H   H785      1.0  0.23209  0.99018  0.71187  1.0000
  H   H786      1.0  0.43058  0.98631  0.79036  1.0000
  H   H787      1.0  0.15464  0.99510  0.68250  1.0000
  Fe  Fe47      1.0  0.37373  0.98527  0.74856  1.0000
  H   H788      1.0  0.28721  0.99983  0.70194  1.0000
  S   S97       1.0  0.42369  0.11521  0.95941  1.0000
  H   H789      1.0  0.47638  0.11995  0.97512  1.0000
  S   S98       1.0  0.99774  0.18984  0.76775  1.0000
  C   C443      1.0  0.16337  0.98945  0.69154  1.0000
  S   S99       1.0  0.08633  0.23196  0.97170  1.0000
  H   H790      1.0  0.02323  0.23248  0.87701  1.0000
  S   S100      1.0  0.21767  0.98541  0.78255  1.0000
  S   S101      1.0  0.99457  0.08522  0.65163  1.0000
  C   C444      1.0  0.45098  0.98451  0.69352  1.0000
  S   S102      1.0  0.34954  0.98396  0.77013  1.0000
  C   C445      1.0  0.03177  0.23335  0.86365  1.0000
  C   C446      1.0  0.19435  0.14693  0.97590  1.0000
  S   S103      1.0  0.38077  0.05898  0.97584  1.0000
  S   S104      1.0  0.00648  0.34214  0.09429  1.0000
  C   C447      1.0  0.12778  0.42119  0.00017  1.0000
  S   S105      1.0  0.09399  0.47001  0.99675  1.0000
  C   C448      1.0  0.04764  0.42244  0.00380  1.0000
  C   C449      1.0  0.02288  0.38610  0.98260  1.0000
  C   C450      1.0  0.04358  0.47920  0.02412  1.0000
  H   H791      1.0  0.10135  0.25163  0.01509  1.0000
  H   H792      1.0  0.03121  0.39952  0.10324  1.0000
  C   C451      1.0  0.00754  0.25677  0.01203  1.0000
  H   H793      1.0  0.02499  0.28864  0.03403  1.0000
  H   H794      1.0  0.04040  0.45316  0.04001  1.0000
  H   H795      1.0  0.05149  0.27519  0.05514  1.0000
  C   C452      1.0  0.07765  0.38451  0.05092  1.0000
  H   H796      1.0  0.06287  0.45438  0.02841  1.0000
  C   C453      1.0  0.05080  0.25085  0.07386  1.0000
  H   H797      1.0  0.04275  0.37704  0.03988  1.0000
  H   H798      1.0  0.01830  0.39834  0.08897  1.0000
  H   H799      1.0  0.04690  0.24296  0.04486  1.0000
  C   C454      1.0  0.05513  0.37355  0.04470  1.0000
  C   C455      1.0  0.10595  0.40828  0.99574  1.0000
  H   H800      1.0  0.07284  0.39532  0.01869  1.0000
  C   C456      1.0  0.00588  0.32487  0.08550  1.0000
  H   H801      1.0  0.00811  0.47451  0.99357  1.0000
  H   H802      1.0  0.01570  0.31969  0.01696  1.0000
  H   H803      1.0  0.15149  0.37382  0.98205  1.0000
  H   H804      1.0  0.14123  0.34667  0.98640  1.0000
  H   H805      1.0  0.06522  0.41394  0.02833  1.0000
  H   H806      1.0  0.02702  0.29513  0.00132  1.0000
  H   H807      1.0  0.03226  0.39786  0.05821  1.0000
  C   C457      1.0  0.00922  0.37901  0.99489  1.0000
  H   H808      1.0  0.04465  0.41382  0.05446  1.0000
  H   H809      1.0  0.03970  0.36461  0.07090  1.0000
  H   H810      1.0  0.00943  0.27646  0.02373  1.0000
  C   C458      1.0  0.04677  0.39434  0.07808  1.0000
  N   N25       1.0  0.04588  0.26738  0.02523  1.0000
  H   H811      1.0  0.00415  0.28142  0.09774  1.0000
  H   H812      1.0  0.04906  0.38001  0.08341  1.0000
  C   C459      1.0  0.00678  0.30773  0.09582  1.0000
  C   C460      1.0  0.00409  0.29443  0.08953  1.0000
  C   C461      1.0  0.03819  0.28666  0.02493  1.0000
  H   H813      1.0  0.05179  0.46997  0.00021  1.0000
  C   C462      1.0  0.00109  0.29815  0.07268  1.0000
  H   H814      1.0  0.04287  0.39687  0.01582  1.0000
  H   H815      1.0  0.07210  0.27218  0.02092  1.0000
  H   H816      1.0  0.09168  0.40542  0.03559  1.0000
  N   N26       1.0  0.05983  0.38976  0.04607  1.0000
  S   S106      1.0  0.06713  0.36772  0.98931  1.0000
  H   H817      1.0  0.06635  0.27168  0.00179  1.0000
  C   C463      1.0  0.12726  0.39045  0.01300  1.0000
  H   H818      1.0  0.14565  0.40361  0.01598  1.0000
  H   H819      1.0  0.05302  0.46371  0.04736  1.0000
  H   H820      1.0  0.03814  0.32247  0.01310  1.0000
  C   C464      1.0  0.03628  0.29875  0.00681  1.0000
  S   S107      1.0  0.99630  0.28264  0.06440  1.0000
  C   C465      1.0  0.00346  0.32834  0.06848  1.0000
  H   H821      1.0  0.09668  0.38901  0.07313  1.0000
  H   H822      1.0  0.05026  0.43380  0.00691  1.0000
  C   C466      1.0  0.00135  0.31495  0.06204  1.0000
  H   H823      1.0  0.04655  0.29205  0.02996  1.0000
  H   H824      1.0  0.08735  0.37599  0.04236  1.0000
  H   H825      1.0  0.05904  0.25338  0.08135  1.0000
  H   H826      1.0  0.02727  0.41751  0.08493  1.0000
  S   S108      1.0  0.00499  0.38288  0.05428  1.0000
  H   H827      1.0  0.17896  0.40947  0.99203  1.0000
  H   H828      1.0  0.01590  0.24093  0.14468  1.0000
  H   H829      1.0  0.05884  0.41739  0.99367  1.0000
  C   C467      1.0  0.04381  0.25737  0.04401  1.0000
  S   S109      1.0  0.13967  0.43793  0.99422  1.0000
  C   C468      1.0  0.06174  0.40171  0.02810  1.0000
  C   C469      1.0  0.11340  0.39186  0.00518  1.0000
  C   C470      1.0  0.07593  0.24607  0.01646  1.0000
  H   H830      1.0  0.03902  0.26612  0.00185  1.0000
  C   C471      1.0  0.01605  0.26261  0.02333  1.0000
  H   H831      1.0  0.05386  0.23652  0.07447  1.0000
  C   C472      1.0  0.09550  0.24566  0.00799  1.0000
  H   H832      1.0  0.09711  0.25287  0.99412  1.0000
  C   C473      1.0  0.00148  0.46353  0.05888  1.0000
  H   H833      1.0  0.00931  0.26507  0.99857  1.0000
  C   C474      1.0  0.02984  0.40298  0.08946  1.0000
  H   H834      1.0  0.03303  0.41273  0.02935  1.0000
  H   H835      1.0  0.03547  0.42700  0.99853  1.0000
  H   H836      1.0  0.10801  0.43535  0.98514  1.0000
  H   H837      1.0  0.99922  0.31787  0.04892  1.0000
  H   H838      1.0  0.01315  0.25444  0.03675  1.0000
  H   H839      1.0  0.06075  0.33707  0.04924  1.0000
  H   H840      1.0  0.07636  0.41071  0.05500  1.0000
  H   H841      1.0  0.07095  0.23954  0.00916  1.0000
  S   S110      1.0  0.00410  0.43041  0.05550  1.0000
  H   H842      1.0  0.04169  0.24592  0.01724  1.0000
  H   H843      1.0  0.05790  0.39890  0.07959  1.0000
  C   C475      1.0  0.02906  0.31795  0.00814  1.0000
  C   C476      1.0  0.05032  0.46148  0.03563  1.0000
  S   S111      1.0  0.10620  0.37271  0.00708  1.0000
  H   H844      1.0  0.03721  0.34669  0.05207  1.0000
  H   H845      1.0  0.00960  0.46530  0.04581  1.0000
  C   C477      1.0  0.10153  0.39380  0.05889  1.0000
  H   H846      1.0  0.04927  0.29799  0.99743  1.0000
  C   C478      1.0  0.05188  0.35944  0.06175  1.0000
  C   C479      1.0  0.03921  0.47682  0.00778  1.0000
  C   C480      1.0  0.04887  0.34318  0.05810  1.0000
  C   C481      1.0  0.04541  0.39939  0.05863  1.0000
  C   C482      1.0  0.03638  0.26030  0.01614  1.0000
  H   H847      1.0  0.06563  0.36717  0.03478  1.0000
  H   H848      1.0  0.06327  0.35514  0.06818  1.0000
  C   C483      1.0  0.06514  0.26524  0.01588  1.0000
  C   C484      1.0  0.08619  0.39992  0.04951  1.0000
  C   C485      1.0  0.04512  0.40777  0.02002  1.0000
  H   H849      1.0  0.04621  0.33340  0.07056  1.0000
  H   H850      1.0  0.10779  0.40496  0.05696  1.0000
  H   H851      1.0  0.01349  0.24282  0.01145  1.0000
  H   H852      1.0  0.02972  0.26047  0.05103  1.0000
  H   H853      1.0  0.11173  0.38315  0.05347  1.0000
  H   H854      1.0  0.07697  0.37621  0.06431  1.0000
  H   H855      1.0  0.00978  0.42794  0.98864  1.0000
  H   H856      1.0  0.00907  0.36536  0.99662  1.0000
  C   C486      1.0  0.02067  0.47282  0.98360  1.0000
  C   C487      1.0  0.99642  0.40701  0.00319  1.0000
  C   C488      1.0  0.05477  0.26105  0.05492  1.0000
  C   C489      1.0  0.11319  0.42294  0.99318  1.0000
  H   H857      1.0  0.09485  0.40965  0.99019  1.0000
  C   C490      1.0  0.13443  0.40502  0.01049  1.0000
  H   H858      1.0  0.00887  0.30493  0.10892  1.0000
  H   H859      1.0  0.06919  0.25706  0.04958  1.0000
  H   H860      1.0  0.03027  0.46742  0.01281  1.0000
  H   H861      1.0  0.13289  0.37789  0.02054  1.0000
  H   H862      1.0  0.00297  0.34142  0.06032  1.0000
  H   H863      1.0  0.02798  0.32633  0.99499  1.0000
  C   C491      1.0  0.00968  0.41430  0.99039  1.0000
  Fe  Fe48      1.0  0.12356  0.46572  0.98971  1.0000
  H   H864      1.0  0.07520  0.23817  0.03001  1.0000
  Fe  Fe49      1.0  0.09428  0.37235  0.98536  1.0000
  C   C492      1.0  0.99615  0.38939  0.00536  1.0000
  H   H865      1.0  0.03661  0.25514  0.08008  1.0000
  H   H866      1.0  0.15578  0.40303  0.97994  1.0000
  H   H867      1.0  0.16446  0.33684  0.97942  1.0000
  C   C493      1.0  0.02313  0.40373  0.98036  1.0000
  C   C494      1.0  0.99607  0.47732  0.06768  1.0000
  H   H868      1.0  0.18270  0.38090  0.98433  1.0000
  H   H869      1.0  0.20191  0.39895  0.98537  1.0000
  H   H870      1.0  0.02927  0.46013  0.98857  1.0000
  C   C495      1.0  0.99641  0.44752  0.06688  1.0000
  C   C496      1.0  0.18941  0.40544  0.98081  1.0000
  H   H871      1.0  0.01461  0.29307  0.88261  1.0000
  H   H872      1.0  0.15158  0.30891  0.88318  1.0000
  H   H873      1.0  0.15699  0.25291  0.89953  1.0000
  C   C497      1.0  0.10302  0.26279  0.77559  1.0000
  C   C498      1.0  0.01358  0.27679  0.76154  1.0000
  S   S112      1.0  0.04086  0.41218  0.96580  1.0000
  C   C499      1.0  0.14471  0.25195  0.90984  1.0000
  H   H874      1.0  0.04570  0.41011  0.91086  1.0000
  C   C500      1.0  0.16606  0.40121  0.96795  1.0000
  S   S113      1.0  0.09166  0.47043  0.85113  1.0000
  H   H875      1.0  0.07993  0.42752  0.72454  1.0000
  H   H876      1.0  0.13245  0.39864  0.96873  1.0000
  H   H877      1.0  0.05301  0.44144  0.75784  1.0000
  H   H878      1.0  0.12776  0.27178  0.89489  1.0000
  H   H879      1.0  0.01325  0.41123  0.84091  1.0000
  S   S114      1.0  0.11320  0.47357  0.79928  1.0000
  C   C501      1.0  0.04254  0.29249  0.81251  1.0000
  H   H880      1.0  0.12775  0.25069  0.78445  1.0000
  C   C502      1.0  0.05490  0.39724  0.77251  1.0000
  Fe  Fe50      1.0  0.07716  0.35981  0.84221  1.0000
  S   S115      1.0  0.08466  0.36016  0.81358  1.0000
  S   S116      1.0  0.04934  0.36089  0.85808  1.0000
  Fe  Fe51      1.0  0.11467  0.35763  0.84432  1.0000
  S   S117      1.0  0.12490  0.35776  0.81591  1.0000
  S   S118      1.0  0.13713  0.35500  0.85669  1.0000
  Fe  Fe52      1.0  0.10092  0.37912  0.81209  1.0000
  S   S119      1.0  0.10311  0.40254  0.78960  1.0000
  Fe  Fe53      1.0  0.10773  0.33891  0.82058  1.0000
  S   S120      1.0  0.11893  0.31434  0.81037  1.0000
  S   S121      1.0  0.09174  0.38047  0.84026  1.0000
  S   S122      1.0  0.09916  0.33709  0.84941  1.0000
  H   H881      1.0  0.10326  0.33083  0.88823  1.0000
  S   S123      1.0  0.09077  0.39594  0.96370  1.0000
  H   H882      1.0  0.13667  0.28219  0.92430  1.0000
  C   C503      1.0  0.01661  0.47133  0.96697  1.0000
  S   S124      1.0  0.07526  0.37310  0.94626  1.0000
  Fe  Fe54      1.0  0.10171  0.37697  0.94623  1.0000
  S   S125      1.0  0.12314  0.38468  0.92345  1.0000
  C   C504      1.0  0.10426  0.30611  0.96473  1.0000
  C   C505      1.0  0.12163  0.25101  0.77371  1.0000
  C   C506      1.0  0.09458  0.26298  0.89055  1.0000
  H   H883      1.0  0.00582  0.26613  0.81615  1.0000
  H   H884      1.0  0.04018  0.33506  0.89025  1.0000
  S   S126      1.0  0.07373  0.25638  0.84265  1.0000
  C   C507      1.0  0.03504  0.24741  0.79967  1.0000
  H   H885      1.0  0.06669  0.27881  0.78823  1.0000
  H   H886      1.0  0.03813  0.25846  0.75471  1.0000
  H   H887      1.0  0.11477  0.34301  0.75762  1.0000
  H   H888      1.0  0.12747  0.43607  0.87568  1.0000
  H   H889      1.0  0.12403  0.41898  0.89513  1.0000
  H   H890      1.0  0.13244  0.39287  0.82281  1.0000
  C   C508      1.0  0.07281  0.28758  0.79192  1.0000
  C   C509      1.0  0.11806  0.41684  0.85073  1.0000
  H   H891      1.0  0.14805  0.24835  0.92287  1.0000
  H   H892      1.0  0.04171  0.44193  0.79802  1.0000
  C   C510      1.0  0.10682  0.29807  0.82129  1.0000
  C   C511      1.0  0.11461  0.28064  0.82017  1.0000
  C   C512      1.0  0.10469  0.26766  0.82752  1.0000
  C   C513      1.0  0.08681  0.27213  0.83562  1.0000
  C   C514      1.0  0.07910  0.28952  0.83715  1.0000
  C   C515      1.0  0.08914  0.30248  0.83011  1.0000
  H   H893      1.0  0.12831  0.27717  0.81347  1.0000
  H   H894      1.0  0.06522  0.29314  0.84316  1.0000
  H   H895      1.0  0.08299  0.31598  0.83088  1.0000
  C   C516      1.0  0.13253  0.36131  0.87649  1.0000
  C   C517      1.0  0.14671  0.36329  0.88187  1.0000
  C   C518      1.0  0.14363  0.37026  0.89648  1.0000
  C   C519      1.0  0.12641  0.37466  0.90618  1.0000
  C   C520      1.0  0.11220  0.37177  0.90144  1.0000
  C   C521      1.0  0.11525  0.36530  0.88636  1.0000
  H   H896      1.0  0.16008  0.35993  0.87437  1.0000
  H   H897      1.0  0.15462  0.37219  0.90030  1.0000
  H   H898      1.0  0.09886  0.37517  0.90896  1.0000
  H   H899      1.0  0.10426  0.36374  0.88220  1.0000
  C   C522      1.0  0.09216  0.27834  0.96142  1.0000
  C   C523      1.0  0.02331  0.28541  0.85811  1.0000
  H   H900      1.0  0.10940  0.28091  0.78664  1.0000
  H   H901      1.0  0.03736  0.29121  0.91780  1.0000
  H   H902      1.0  0.15123  0.42879  0.85194  1.0000
  H   H903      1.0  0.03079  0.44258  0.74416  1.0000
  C   C524      1.0  0.10391  0.31970  0.76498  1.0000
  H   H904      1.0  0.06134  0.24453  0.80436  1.0000
  C   C525      1.0  0.08467  0.42555  0.73660  1.0000
  C   C526      1.0  0.03107  0.25861  0.93198  1.0000
  C   C527      1.0  0.08610  0.30768  0.96672  1.0000
  C   C528      1.0  0.10900  0.45424  0.79713  1.0000
  C   C529      1.0  0.10162  0.44245  0.81154  1.0000
  C   C530      1.0  0.09954  0.42650  0.80954  1.0000
  C   C531      1.0  0.10472  0.42249  0.79299  1.0000
  C   C532      1.0  0.11161  0.43460  0.77854  1.0000
  C   C533      1.0  0.11393  0.45028  0.78062  1.0000
  H   H905      1.0  0.09807  0.44550  0.82425  1.0000
  H   H906      1.0  0.09399  0.41734  0.82073  1.0000
  H   H907      1.0  0.11562  0.43165  0.76571  1.0000
  H   H908      1.0  0.11967  0.45932  0.76939  1.0000
  C   C534      1.0  0.10492  0.42162  0.73165  1.0000
  H   H909      1.0  0.00887  0.24550  0.94139  1.0000
  H   H910      1.0  0.06907  0.45606  0.97155  1.0000
  H   H911      1.0  0.02934  0.29697  0.85159  1.0000
  H   H912      1.0  0.10695  0.29636  0.89687  1.0000
  C   C535      1.0  0.04117  0.27515  0.88162  1.0000
  H   H913      1.0  0.06469  0.39209  0.90926  1.0000
  H   H914      1.0  0.12794  0.46677  0.91137  1.0000
  H   H915      1.0  0.17650  0.38847  0.89784  1.0000
  H   H916      1.0  0.07393  0.44481  0.84677  1.0000
  C   C536      1.0  0.03558  0.35186  0.85127  1.0000
  C   C537      1.0  0.04062  0.34648  0.83537  1.0000
  C   C538      1.0  0.02918  0.33927  0.83053  1.0000
  C   C539      1.0  0.01296  0.33695  0.84187  1.0000
  C   C540      1.0  0.00807  0.34222  0.85775  1.0000
  C   C541      1.0  0.01914  0.34998  0.86225  1.0000
  H   H917      1.0  0.05326  0.34782  0.82681  1.0000
  H   H918      1.0  0.03311  0.33507  0.81830  1.0000
  H   H919      1.0  0.99868  0.43790  0.76555  1.0000
  H   H920      1.0  0.01504  0.35429  0.87443  1.0000
  H   H921      1.0  0.08487  0.45433  0.94119  1.0000
  H   H922      1.0  0.07439  0.47190  0.91292  1.0000
  C   C542      1.0  0.13648  0.40470  0.85141  1.0000
  H   H923      1.0  0.03774  0.32205  0.91217  1.0000
  C   C543      1.0  0.05250  0.42877  0.76740  1.0000
  C   C544      1.0  0.03346  0.43555  0.72005  1.0000
  H   H924      1.0  0.16702  0.41470  0.96021  1.0000
  Fe  Fe55      1.0  0.00200  0.46093  0.78799  1.0000
  H   H925      1.0  0.13043  0.44497  0.82920  1.0000
  C   C545      1.0  0.00426  0.39397  0.76918  1.0000
  H   H926      1.0  0.01762  0.39216  0.90322  1.0000
  H   H927      1.0  0.17366  0.36603  0.97113  1.0000
  S   S127      1.0  0.12564  0.25711  0.95598  1.0000
  H   H928      1.0  0.02448  0.45191  0.85620  1.0000
  C   C546      1.0  0.00099  0.41203  0.76183  1.0000
  H   H929      1.0  0.15933  0.30861  0.85114  1.0000
  H   H930      1.0  0.11017  0.42556  0.95350  1.0000
  H   H931      1.0  0.10329  0.29802  0.91875  1.0000
  H   H932      1.0  0.06409  0.39339  0.78156  1.0000
  H   H933      1.0  0.16611  0.38282  0.84215  1.0000
  H   H934      1.0  0.05501  0.40794  0.73533  1.0000
  H   H935      1.0  0.20270  0.38322  0.84622  1.0000
  H   H936      1.0  0.03788  0.31040  0.87931  1.0000
  H   H937      1.0  0.11743  0.42966  0.85337  1.0000
  H   H938      1.0  0.99690  0.24883  0.83169  1.0000
  C   C547      1.0  0.08908  0.31164  0.77885  1.0000
  C   C548      1.0  0.02426  0.41412  0.87001  1.0000
  H   H939      1.0  0.07292  0.42749  0.94174  1.0000
  H   H940      1.0  0.02838  0.44936  0.71366  1.0000
  C   C549      1.0  0.14637  0.46085  0.83174  1.0000
  H   H941      1.0  0.11042  0.41963  0.74327  1.0000
  H   H942      1.0  0.04669  0.39815  0.84444  1.0000
  S   S128      1.0  0.01947  0.33096  0.78576  1.0000
  H   H943      1.0  0.19160  0.41737  0.97052  1.0000
  H   H944      1.0  0.19673  0.38061  0.86961  1.0000
  C   C550      1.0  0.12125  0.43339  0.88980  1.0000
  H   H945      1.0  0.03247  0.30213  0.81948  1.0000
  C   C551      1.0  0.05779  0.30092  0.80104  1.0000
  H   H946      1.0  0.07627  0.26216  0.87650  1.0000
  H   H947      1.0  0.12137  0.42108  0.93210  1.0000
  C   C552      1.0  0.07083  0.45336  0.94544  1.0000
  H   H948      1.0  0.06349  0.44299  0.79889  1.0000
  H   H949      1.0  0.15532  0.38198  0.82148  1.0000
  Fe  Fe56      1.0  0.00657  0.31387  0.77799  1.0000
  H   H950      1.0  0.03526  0.41147  0.75137  1.0000
  C   C553      1.0  0.05643  0.38051  0.76601  1.0000
  C   C554      1.0  0.05379  0.36486  0.78134  1.0000
  H   H951      1.0  0.06959  0.37673  0.75750  1.0000
  H   H952      1.0  0.04617  0.38257  0.75854  1.0000
  H   H953      1.0  0.04368  0.42905  0.71017  1.0000
  H   H954      1.0  0.04117  0.36819  0.79086  1.0000
  H   H955      1.0  0.05331  0.35359  0.77647  1.0000
  H   H956      1.0  0.06491  0.36078  0.78814  1.0000
  H   H957      1.0  0.02310  0.27043  0.93701  1.0000
  C   C555      1.0  0.04772  0.41615  0.74507  1.0000
  H   H958      1.0  0.03325  0.38758  0.82677  1.0000
  H   H959      1.0  0.03707  0.40604  0.80885  1.0000
  C   C556      1.0  0.14627  0.39417  0.81634  1.0000
  H   H960      1.0  0.17940  0.39785  0.82865  1.0000
  H   H961      1.0  0.11503  0.41876  0.83792  1.0000
  H   H962      1.0  0.02002  0.29531  0.90699  1.0000
  H   H963      1.0  0.03599  0.24865  0.90851  1.0000
  H   H964      1.0  0.13821  0.42154  0.81573  1.0000
  H   H965      1.0  0.11087  0.25425  0.82664  1.0000
  H   H966      1.0  0.10942  0.43284  0.72164  1.0000
  H   H967      1.0  0.01720  0.26616  0.91128  1.0000
  C   C557      1.0  0.03435  0.32414  0.89936  1.0000
  C   C558      1.0  0.17533  0.39553  0.85649  1.0000
  H   H968      1.0  0.01972  0.32804  0.90094  1.0000
  H   H969      1.0  0.16877  0.42807  0.83307  1.0000
  H   H970      1.0  0.16047  0.46071  0.83062  1.0000
  C   C559      1.0  0.16833  0.39619  0.84034  1.0000
  C   C560      1.0  0.14956  0.41092  0.81930  1.0000
  C   C561      1.0  0.03132  0.26161  0.91227  1.0000
  C   C562      1.0  0.15453  0.42750  0.83812  1.0000
  H   H971      1.0  0.16532  0.39295  0.86877  1.0000
  H   H972      1.0  0.09767  0.26250  0.76460  1.0000
  H   H973      1.0  0.18907  0.36792  0.85953  1.0000
  H   H974      1.0  0.10898  0.31671  0.96615  1.0000
  C   C563      1.0  0.06127  0.44874  0.84242  1.0000
  H   H975      1.0  0.13876  0.46179  0.84520  1.0000
  H   H976      1.0  0.02898  0.46950  0.95679  1.0000
  H   H977      1.0  0.17893  0.40800  0.85559  1.0000
  C   C564      1.0  0.02272  0.24312  0.94277  1.0000
  C   C565      1.0  0.03121  0.44131  0.84882  1.0000
  C   C566      1.0  0.06310  0.31215  0.75721  1.0000
  N   N27       1.0  0.04226  0.27429  0.89999  1.0000
  H   H978      1.0  0.13021  0.25578  0.76097  1.0000
  C   C567      1.0  0.07799  0.41013  0.75051  1.0000
  N   N28       1.0  0.05842  0.41341  0.75857  1.0000
  C   C568      1.0  0.04136  0.43525  0.73512  1.0000
  H   H979      1.0  0.03852  0.40768  0.86840  1.0000
  C   C569      1.0  0.05508  0.44335  0.79005  1.0000
  H   H980      1.0  0.06247  0.46681  0.94271  1.0000
  H   H981      1.0  0.06441  0.41596  0.79048  1.0000
  C   C570      1.0  0.04189  0.39714  0.82038  1.0000
  H   H982      1.0  0.15229  0.28254  0.90415  1.0000
  H   H983      1.0  0.10518  0.26510  0.87859  1.0000
  H   H984      1.0  0.03213  0.44808  0.83478  1.0000
  H   H985      1.0  0.03319  0.37790  0.97482  1.0000
  H   H986      1.0  0.09094  0.34725  0.76400  1.0000
  H   H987      1.0  0.12338  0.29940  0.87073  1.0000
  C   C571      1.0  0.00063  0.42403  0.77146  1.0000
  H   H988      1.0  0.07955  0.27901  0.80251  1.0000
  H   H989      1.0  0.04129  0.40011  0.78070  1.0000
  H   H990      1.0  0.06328  0.41088  0.89128  1.0000
  H   H991      1.0  0.03831  0.42998  0.77425  1.0000
  H   H992      1.0  0.04941  0.43328  0.86649  1.0000
  C   C572      1.0  0.05930  0.31457  0.73928  1.0000
  H   H993      1.0  0.14519  0.30075  0.84280  1.0000
  H   H994      1.0  0.06604  0.43987  0.89469  1.0000
  H   H995      1.0  0.06182  0.25703  0.77218  1.0000
  H   H996      1.0  0.05433  0.46183  0.84508  1.0000
  C   C573      1.0  0.00343  0.41792  0.78847  1.0000
  C   C574      1.0  0.10335  0.33802  0.76691  1.0000
  H   H997      1.0  0.08742  0.26785  0.95985  1.0000
  H   H998      1.0  0.04927  0.28409  0.87200  1.0000
  H   H999      1.0  0.08579  0.40596  0.76086  1.0000
  H   H1000     1.0  0.10261  0.32093  0.75153  1.0000
  C   C575      1.0  0.06670  0.44122  0.93611  1.0000
  H   H1001     1.0  0.11713  0.31140  0.76666  1.0000
  S   S129      1.0  0.00564  0.47487  0.75976  1.0000
  H   H1002     1.0  0.03327  0.25595  0.82866  1.0000
  C   C576      1.0  0.11555  0.47637  0.91296  1.0000
  H   H1003     1.0  0.11332  0.28608  0.76341  1.0000
  C   C577      1.0  0.13736  0.30959  0.88422  1.0000
  H   H1004     1.0  0.13168  0.32368  0.87965  1.0000
  C   C578      1.0  0.00519  0.25211  0.81837  1.0000
  C   C579      1.0  0.13707  0.29966  0.87071  1.0000
  H   H1005     1.0  0.04679  0.32456  0.73811  1.0000
  C   C580      1.0  0.13100  0.26930  0.90775  1.0000
  H   H1006     1.0  0.12733  0.43972  0.89636  1.0000
  H   H1007     1.0  0.09559  0.26999  0.89996  1.0000
  H   H1008     1.0  0.08016  0.43793  0.74132  1.0000
  C   C581      1.0  0.06025  0.40660  0.90575  1.0000
  H   H1009     1.0  0.05552  0.38982  0.81589  1.0000
  H   H1010     1.0  0.00970  0.24981  0.85281  1.0000
  H   H1011     1.0  0.05759  0.30206  0.73767  1.0000
  H   H1012     1.0  0.09860  0.44753  0.91653  1.0000
  H   H1013     1.0  0.07140  0.46726  0.89429  1.0000
  H   H1014     1.0  0.07542  0.28374  0.87882  1.0000
  C   C582      1.0  0.12977  0.31486  0.91376  1.0000
  C   C583      1.0  0.09727  0.32287  0.90074  1.0000
  C   C584      1.0  0.14865  0.31436  0.91542  1.0000
  C   C585      1.0  0.07902  0.32218  0.89927  1.0000
  C   C586      1.0  0.14772  0.32498  0.92854  1.0000
  H   H1015     1.0  0.12155  0.31167  0.92722  1.0000
  H   H1016     1.0  0.12420  0.32887  0.90826  1.0000
  H   H1017     1.0  0.09523  0.32982  0.91132  1.0000
  H   H1018     1.0  0.15645  0.32021  0.90265  1.0000
  H   H1019     1.0  0.15593  0.30078  0.91998  1.0000
  H   H1020     1.0  0.08035  0.31652  0.88797  1.0000
  H   H1021     1.0  0.07067  0.33570  0.89706  1.0000
  H   H1022     1.0  0.14045  0.33876  0.92470  1.0000
  H   H1023     1.0  0.14088  0.31905  0.94183  1.0000
  H   H1024     1.0  0.16132  0.32510  0.92903  1.0000
  Fe  Fe57      1.0  0.06472  0.38995  0.96595  1.0000
  C   C587      1.0  0.01424  0.39894  0.87633  1.0000
  H   H1025     1.0  0.13779  0.32189  0.84828  1.0000
  C   C588      1.0  0.02030  0.38572  0.89214  1.0000
  H   H1026     1.0  0.11182  0.47168  0.94096  1.0000
  H   H1027     1.0  0.02135  0.42085  0.88098  1.0000
  S   S130      1.0  0.00727  0.37889  0.75635  1.0000
  C   C589      1.0  0.10652  0.47924  0.92966  1.0000
  H   H1028     1.0  0.04047  0.46888  0.90464  1.0000
  H   H1029     1.0  0.01677  0.39167  0.86593  1.0000
  H   H1030     1.0  0.01301  0.37497  0.89635  1.0000
  C   C590      1.0  0.00602  0.38799  0.78652  1.0000
  H   H1031     1.0  0.06391  0.25289  0.90755  1.0000
  H   H1032     1.0  0.09475  0.25684  0.78799  1.0000
  H   H1033     1.0  0.14822  0.33486  0.96914  1.0000
  H   H1034     1.0  0.02224  0.42877  0.72492  1.0000
  H   H1035     1.0  0.10618  0.40619  0.87781  1.0000
  H   H1036     1.0  0.09051  0.41805  0.86421  1.0000
  H   H1037     1.0  0.11982  0.44195  0.93661  1.0000
  H   H1038     1.0  0.11016  0.40964  0.72618  1.0000
  C   C591      1.0  0.02233  0.28113  0.87773  1.0000
  H   H1039     1.0  0.06403  0.44964  0.82813  1.0000
  H   H1040     1.0  0.15066  0.44534  0.81308  1.0000
  C   C592      1.0  0.10358  0.40886  0.86456  1.0000
  H   H1041     1.0  0.04707  0.26200  0.87835  1.0000
  H   H1042     1.0  0.13556  0.39140  0.85124  1.0000
  C   C593      1.0  0.02395  0.26151  0.75596  1.0000
  S   S131      1.0  0.01639  0.47719  0.79485  1.0000
  H   H1043     1.0  0.14500  0.38409  0.79480  1.0000
  H   H1044     1.0  0.09667  0.24866  0.89650  1.0000
  C   C594      1.0  0.06129  0.26731  0.90224  1.0000
  Fe  Fe58      1.0  0.07985  0.35099  0.96942  1.0000
  H   H1045     1.0  0.06368  0.27273  0.91226  1.0000
  H   H1046     1.0  0.05407  0.45624  0.78059  1.0000
  C   C595      1.0  0.13779  0.28452  0.90996  1.0000
  H   H1047     1.0  0.05224  0.44164  0.94030  1.0000
  H   H1048     1.0  0.09094  0.30098  0.74807  1.0000
  C   C596      1.0  0.11631  0.29054  0.96135  1.0000
  N   N29       1.0  0.12848  0.30310  0.90295  1.0000
  C   C597      1.0  0.10901  0.30413  0.90500  1.0000
  H   H1049     1.0  0.07021  0.31910  0.72870  1.0000
  H   H1050     1.0  0.14099  0.47264  0.82241  1.0000
  H   H1051     1.0  0.03132  0.27410  0.85232  1.0000
  C   C598      1.0  0.04178  0.30758  0.89200  1.0000
  H   H1052     1.0  0.09697  0.42569  0.91903  1.0000
  H   H1053     1.0  0.07741  0.28570  0.75853  1.0000
  H   H1054     1.0  0.05635  0.30488  0.88969  1.0000
  H   H1055     1.0  0.16307  0.39476  0.79020  1.0000
  H   H1056     1.0  0.16142  0.41446  0.80937  1.0000
  C   C599      1.0  0.11027  0.27655  0.95989  1.0000
  H   H1057     1.0  0.09570  0.43388  0.88618  1.0000
  H   H1058     1.0  0.05217  0.44246  0.72970  1.0000
  C   C600      1.0  0.19196  0.38091  0.85801  1.0000
  H   H1059     1.0  0.05337  0.44470  0.97005  1.0000
  H   H1060     1.0  0.06405  0.32511  0.75834  1.0000
  C   C601      1.0  0.14469  0.44447  0.82724  1.0000
  C   C602      1.0  0.06339  0.42837  0.78048  1.0000
  H   H1061     1.0  0.04933  0.43854  0.91404  1.0000
  H   H1062     1.0  0.08431  0.41057  0.90874  1.0000
  H   H1063     1.0  0.99790  0.44160  0.86988  1.0000
  H   H1064     1.0  0.05748  0.42264  0.84843  1.0000
  H   H1065     1.0  0.06677  0.41011  0.92809  1.0000
  H   H1066     1.0  0.02132  0.42936  0.82667  1.0000
  H   H1067     1.0  0.09248  0.30908  0.79177  1.0000
  H   H1068     1.0  0.10414  0.33766  0.78037  1.0000
  C   C603      1.0  0.03473  0.29187  0.90493  1.0000
  H   H1069     1.0  0.00976  0.28859  0.85565  1.0000
  H   H1070     1.0  0.03372  0.26181  0.79765  1.0000
  H   H1071     1.0  0.09932  0.45487  0.88543  1.0000
  S   S132      1.0  0.02380  0.28998  0.76781  1.0000
  C   C604      1.0  0.04707  0.47255  0.91293  1.0000
  C   C605      1.0  0.08015  0.29796  0.75962  1.0000
  N   N30       1.0  0.15181  0.41009  0.83729  1.0000
  C   C606      1.0  0.10129  0.44092  0.89237  1.0000
  C   C607      1.0  0.01607  0.24999  0.75220  1.0000
  N   N31       1.0  0.02035  0.42748  0.85370  1.0000
  C   C608      1.0  0.06398  0.43536  0.90916  1.0000
  H   H1072     1.0  0.07693  0.43000  0.77333  1.0000
  C   C609      1.0  0.04198  0.40764  0.83317  1.0000
  C   C610      1.0  0.06726  0.46446  0.90879  1.0000
  H   H1073     1.0  0.06301  0.30602  0.80939  1.0000
  H   H1074     1.0  0.03469  0.37981  0.88872  1.0000
  C   C611      1.0  0.14893  0.39527  0.79681  1.0000
  C   C612      1.0  0.05020  0.43515  0.85230  1.0000
  H   H1075     1.0  0.00152  0.25332  0.79228  1.0000
  S   S133      1.0  0.07047  0.32654  0.97181  1.0000
  C   C613      1.0  0.10356  0.28178  0.77547  1.0000
  S   S134      1.0  0.10742  0.35344  0.96768  1.0000
  H   H1076     1.0  0.10300  0.39637  0.86200  1.0000
  H   H1077     1.0  0.08200  0.39890  0.74400  1.0000
  C   C614      1.0  0.07647  0.26980  0.88574  1.0000
  C   C615      1.0  0.02335  0.41908  0.83856  1.0000
  N   N32       1.0  0.08607  0.29504  0.77639  1.0000
  C   C616      1.0  0.09252  0.43945  0.91197  1.0000
  H   H1078     1.0  0.03607  0.28846  0.80439  1.0000
  H   H1079     1.0  0.05158  0.30796  0.76699  1.0000
  H   H1080     1.0  0.05160  0.41615  0.82641  1.0000
  H   H1081     1.0  0.04456  0.25592  0.93438  1.0000
  C   C617      1.0  0.06988  0.41507  0.91373  1.0000
  H   H1082     1.0  0.04750  0.28090  0.82227  1.0000
  H   H1083     1.0  0.01496  0.27048  0.88381  1.0000
  H   H1084     1.0  0.11873  0.26754  0.91789  1.0000
  H   H1085     1.0  0.14076  0.40762  0.79060  1.0000
  N   N33       1.0  0.16052  0.39140  0.95789  1.0000
  C   C618      1.0  0.14190  0.40058  0.95586  1.0000
  H   H1086     1.0  0.02267  0.24132  0.95677  1.0000
  Fe  Fe59      1.0  0.00056  0.35351  0.77307  1.0000
  C   C619      1.0  0.17369  0.39108  0.94061  1.0000
  C   C620      1.0  0.16677  0.39028  0.92497  1.0000
  C   C621      1.0  0.13894  0.42065  0.94818  1.0000
  H   H1087     1.0  0.06610  0.29504  0.96626  1.0000
  Fe  Fe60      1.0  0.99729  0.33021  0.80949  1.0000
  H   H1088     1.0  0.19466  0.38902  0.96255  1.0000
  C   C622      1.0  0.18193  0.38805  0.90905  1.0000
  C   C623      1.0  0.12145  0.42769  0.94225  1.0000
  C   C624      1.0  0.14538  0.30829  0.85215  1.0000
  C   C625      1.0  0.08011  0.29381  0.96494  1.0000
  H   H1089     1.0  0.13729  0.39464  0.94777  1.0000
  H   H1090     1.0  0.13863  0.40361  0.86455  1.0000
  H   H1091     1.0  0.13928  0.24135  0.90858  1.0000
  H   H1092     1.0  0.04065  0.46796  0.92671  1.0000
  S   S135      1.0  0.00558  0.43207  0.80010  1.0000
  H   H1093     1.0  0.17939  0.40302  0.93612  1.0000
  H   H1094     1.0  0.18523  0.37985  0.94224  1.0000
  H   H1095     1.0  0.15716  0.40260  0.92099  1.0000
  H   H1096     1.0  0.16001  0.37933  0.92814  1.0000
  H   H1097     1.0  0.13838  0.42765  0.95828  1.0000
  H   H1098     1.0  0.14981  0.42395  0.93690  1.0000
  H   H1099     1.0  0.05235  0.31239  0.79167  1.0000
  H   H1100     1.0  0.03041  0.24617  0.78865  1.0000
  C   C626      1.0  0.00568  0.39995  0.79612  1.0000
  H   H1101     1.0  0.00836  0.37408  0.79234  1.0000
  H   H1102     1.0  0.07685  0.32212  0.77942  1.0000
  H   H1103     1.0  0.07237  0.31418  0.91145  1.0000
  N   N34       1.0  0.07259  0.44512  0.91645  1.0000
  H   H1104     1.0  0.18913  0.39884  0.90530  1.0000
  H   H1105     1.0  0.19134  0.37522  0.91184  1.0000
  H   H1106     1.0  0.07649  0.43383  0.96864  1.0000
  H   H1107     1.0  0.99922  0.41668  0.74854  1.0000
  H   H1108     1.0  0.00209  0.46243  0.83955  1.0000
  C   C627      1.0  0.18393  0.39275  0.97366  1.0000
  C   C628      1.0  0.06717  0.44654  0.96516  1.0000
  C   C629      1.0  0.15437  0.36067  0.96136  1.0000
  H   H1109     1.0  0.14506  0.28606  0.87342  1.0000
  C   C630      1.0  0.99775  0.25391  0.75353  1.0000
  H   H1110     1.0  0.99548  0.44745  0.83138  1.0000
  H   H1111     1.0  0.03962  0.24336  0.86123  1.0000
  H   H1112     1.0  0.00772  0.39516  0.80933  1.0000
  H   H1113     1.0  0.06008  0.23580  0.77055  1.0000
  S   S136      1.0  0.99896  0.32642  0.83737  1.0000
  H   H1114     1.0  0.14161  0.36671  0.95729  1.0000
  H   H1115     1.0  0.99976  0.40393  0.88039  1.0000
  H   H1116     1.0  0.16471  0.35688  0.95003  1.0000
  H   H1117     1.0  0.01065  0.45978  0.96981  1.0000
  H   H1118     1.0  0.13032  0.28923  0.96015  1.0000
  C   C631      1.0  0.00100  0.43652  0.85777  1.0000
  H   H1119     1.0  0.99556  0.34043  0.86655  1.0000
  C   C632      1.0  0.03126  0.24237  0.83117  1.0000
  N   N35       1.0  0.02363  0.24056  0.81700  1.0000
  C   C633      1.0  0.16025  0.37308  0.96886  1.0000
  S   S137      1.0  0.11923  0.48113  0.87770  1.0000
  H   H1120     1.0  0.07907  0.23780  0.77668  1.0000
  H   H1121     1.0  0.00711  0.48330  0.96197  1.0000
  C   C634      1.0  0.06456  0.24270  0.77795  1.0000
  C   C635      1.0  0.02029  0.23811  0.85020  1.0000
  H   H1122     1.0  0.02418  0.23816  0.74810  1.0000
  C   C636      1.0  0.05515  0.23896  0.79720  1.0000
  C   C637      1.0  0.99526  0.28081  0.76275  1.0000
  H   H1123     1.0  0.12086  0.23740  0.77432  1.0000
  H   H1124     1.0  0.04466  0.23369  0.83093  1.0000
  C   C638      1.0  0.15197  0.34374  0.97495  1.0000
  H   H1125     1.0  0.01554  0.65907  0.02558  1.0000
  S   S138      1.0  0.34549  0.72041  0.01192  1.0000
  H   H1126     1.0  0.99915  0.64263  0.05745  1.0000
  S   S139      1.0  0.13214  0.57699  0.01561  1.0000
  Fe  Fe61      1.0  0.22271  0.73262  0.99126  1.0000
  H   H1127     1.0  0.02572  0.51442  0.08492  1.0000
  H   H1128     1.0  0.00469  0.52104  0.98286  1.0000
  C   C639      1.0  0.32169  0.69926  0.98867  1.0000
  H   H1129     1.0  0.12869  0.58556  0.97929  1.0000
  S   S140      1.0  0.49417  0.71393  0.03096  1.0000
  C   C640      1.0  0.16719  0.63673  0.05787  1.0000
  H   H1130     1.0  0.04979  0.72321  0.17151  1.0000
  H   H1131     1.0  0.04429  0.70531  0.12837  1.0000
  C   C641      1.0  0.02369  0.70193  0.11885  1.0000
  H   H1132     1.0  0.02845  0.57791  0.08431  1.0000
  H   H1133     1.0  0.01203  0.63804  0.18965  1.0000
  C   C642      1.0  0.05884  0.55721  0.05282  1.0000
  C   C643      1.0  0.01832  0.67217  0.27303  1.0000
  Fe  Fe62      1.0  0.11658  0.60500  0.01249  1.0000
  C   C644      1.0  0.00713  0.64982  0.19480  1.0000
  C   C645      1.0  0.06698  0.71709  0.26621  1.0000
  H   H1134     1.0  0.28683  0.72745  0.07155  1.0000
  H   H1135     1.0  0.00063  0.48934  0.06159  1.0000
  H   H1136     1.0  0.07469  0.52774  0.01192  1.0000
  H   H1137     1.0  0.03980  0.71692  0.26778  1.0000
  C   C646      1.0  0.05233  0.70695  0.26910  1.0000
  H   H1138     1.0  0.05300  0.65828  0.30491  1.0000
  H   H1139     1.0  0.04128  0.68230  0.25956  1.0000
  H   H1140     1.0  0.99691  0.57965  0.04168  1.0000
  H   H1141     1.0  0.03221  0.68947  0.11554  1.0000
  C   C647      1.0  0.04219  0.64647  0.14529  1.0000
  C   C648      1.0  0.03017  0.53595  0.02765  1.0000
  H   H1142     1.0  0.03815  0.62223  0.00245  1.0000
  S   S141      1.0  0.17390  0.73045  0.01398  1.0000
  H   H1143     1.0  0.02580  0.53211  0.98540  1.0000
  H   H1144     1.0  0.02186  0.69824  0.28491  1.0000
  S   S142      1.0  0.02652  0.67855  0.21553  1.0000
  C   C649      1.0  0.13112  0.56422  0.00176  1.0000
  C   C650      1.0  0.02558  0.71611  0.10201  1.0000
  Fe  Fe63      1.0  0.47640  0.72300  0.01183  1.0000
  H   H1145     1.0  0.02964  0.59561  0.00571  1.0000
  H   H1146     1.0  0.06230  0.57402  0.97804  1.0000
  H   H1147     1.0  0.40816  0.71458  0.05613  1.0000
  S   S143      1.0  0.02515  0.65559  0.10563  1.0000
  C   C651      1.0  0.18625  0.65522  0.11299  1.0000
  H   H1148     1.0  0.04390  0.50397  0.09567  1.0000
  H   H1149     1.0  0.19255  0.64184  0.11939  1.0000
  Fe  Fe64      1.0  0.19578  0.70912  0.00425  1.0000
  C   C652      1.0  0.12998  0.57159  0.98431  1.0000
  S   S144      1.0  0.19317  0.68154  0.00639  1.0000
  Fe  Fe65      1.0  0.00224  0.64624  0.12592  1.0000
  C   C653      1.0  0.01285  0.50117  0.00595  1.0000
  H   H1150     1.0  0.03890  0.67013  0.16551  1.0000
  H   H1151     1.0  0.04480  0.58719  0.06781  1.0000
  H   H1152     1.0  0.31009  0.71709  0.06690  1.0000
  H   H1153     1.0  0.08819  0.55400  0.02538  1.0000
  S   S145      1.0  0.21552  0.71353  0.01635  1.0000
  H   H1154     1.0  0.20749  0.69766  0.05378  1.0000
  Fe  Fe66      1.0  0.07930  0.62542  0.02409  1.0000
  C   C654      1.0  0.04657  0.53831  0.01706  1.0000
  S   S146      1.0  0.05205  0.62157  0.03930  1.0000
  H   H1155     1.0  0.14361  0.72116  0.30421  1.0000
  S   S147      1.0  0.12668  0.62904  0.99640  1.0000
  H   H1156     1.0  0.08025  0.70809  0.26497  1.0000
  Fe  Fe67      1.0  0.11093  0.64168  0.01879  1.0000
  S   S148      1.0  0.11759  0.66266  0.02764  1.0000
  S   S149      1.0  0.09225  0.61188  0.00186  1.0000
  S   S150      1.0  0.08582  0.65116  0.00876  1.0000
  C   C655      1.0  0.17201  0.67677  0.01150  1.0000
  C   C656      1.0  0.15679  0.68848  0.01794  1.0000
  C   C657      1.0  0.14021  0.68396  0.02282  1.0000
  C   C658      1.0  0.13863  0.66790  0.02086  1.0000
  C   C659      1.0  0.15379  0.65631  0.01409  1.0000
  C   C660      1.0  0.17045  0.66069  0.00956  1.0000
  H   H1157     1.0  0.15781  0.70087  0.01953  1.0000
  H   H1158     1.0  0.12853  0.69296  0.02811  1.0000
  H   H1159     1.0  0.15271  0.64382  0.01270  1.0000
  H   H1160     1.0  0.18219  0.65153  0.00464  1.0000
  C   C661      1.0  0.03314  0.64546  0.08761  1.0000
  H   H1161     1.0  0.16398  0.67607  0.09151  1.0000
  C   C662      1.0  0.05270  0.64367  0.05909  1.0000
  C   C663      1.0  0.04508  0.63067  0.05791  1.0000
  C   C664      1.0  0.03162  0.62498  0.07167  1.0000
  C   C665      1.0  0.02598  0.63204  0.08663  1.0000
  H   H1162     1.0  0.00429  0.68652  0.17135  1.0000
  H   H1163     1.0  0.03952  0.71763  0.09722  1.0000
  H   H1164     1.0  0.02565  0.61496  0.07087  1.0000
  H   H1165     1.0  0.01614  0.62704  0.09741  1.0000
  C   C666      1.0  0.01216  0.67112  0.20780  1.0000
  C   C667      1.0  0.01847  0.65601  0.20084  1.0000
  H   H1166     1.0  0.31347  0.69965  0.00204  1.0000
  C   C668      1.0  0.29848  0.72062  0.07744  1.0000
  H   H1167     1.0  0.09470  0.57379  0.02453  1.0000
  H   H1168     1.0  0.31387  0.72461  0.09285  1.0000
  H   H1169     1.0  0.03214  0.64903  0.20021  1.0000
  H   H1170     1.0  0.02415  0.72041  0.13336  1.0000
  H   H1171     1.0  0.05439  0.48636  0.02014  1.0000
  C   C669      1.0  0.05478  0.56599  0.08790  1.0000
  C   C670      1.0  0.17993  0.64760  0.05779  1.0000
  H   H1172     1.0  0.02656  0.52105  0.10402  1.0000
  H   H1173     1.0  0.06377  0.60078  0.99738  1.0000
  C   C671      1.0  0.04836  0.65267  0.98926  1.0000
  H   H1174     1.0  0.14448  0.72065  0.04297  1.0000
  Fe  Fe68      1.0  0.12288  0.50515  0.97787  1.0000
  H   H1175     1.0  0.02874  0.56759  0.04207  1.0000
  H   H1176     1.0  0.13397  0.52138  0.00227  1.0000
  H   H1177     1.0  0.39670  0.71775  0.00699  1.0000
  H   H1178     1.0  0.00655  0.49074  0.01561  1.0000
  N   N36       1.0  0.04931  0.69355  0.28609  1.0000
  S   S151      1.0  0.12503  0.48568  0.00330  1.0000
  H   H1179     1.0  0.06032  0.59070  0.08820  1.0000
  C   C672      1.0  0.03589  0.67580  0.27307  1.0000
  C   C673      1.0  0.00971  0.58246  0.06054  1.0000
  H   H1180     1.0  0.24345  0.72911  0.01566  1.0000
  H   H1181     1.0  0.20555  0.65927  0.05884  1.0000
  H   H1182     1.0  0.04379  0.49775  0.05558  1.0000
  H   H1183     1.0  0.00885  0.68467  0.26910  1.0000
  S   S152      1.0  0.20517  0.72602  0.97811  1.0000
  H   H1184     1.0  0.02262  0.55140  0.08604  1.0000
  C   C674      1.0  0.99812  0.73353  0.30478  1.0000
  H   H1185     1.0  0.00943  0.59311  0.06670  1.0000
  H   H1186     1.0  0.03173  0.48649  0.03202  1.0000
  H   H1187     1.0  0.04222  0.58402  0.10550  1.0000
  H   H1188     1.0  0.32808  0.71070  0.98407  1.0000
  H   H1189     1.0  0.06317  0.64810  0.04856  1.0000
  H   H1190     1.0  0.15796  0.66398  0.07240  1.0000
  C   C675      1.0  0.05584  0.70893  0.17347  1.0000
  H   H1191     1.0  0.00316  0.58297  0.99110  1.0000
  H   H1192     1.0  0.05234  0.66144  0.07452  1.0000
  H   H1193     1.0  0.18307  0.68433  0.08759  1.0000
  H   H1194     1.0  0.42885  0.71301  0.99346  1.0000
  C   C676      1.0  0.23070  0.67718  0.04985  1.0000
  H   H1195     1.0  0.18797  0.63989  0.06751  1.0000
  H   H1196     1.0  0.02504  0.54488  0.06636  1.0000
  H   H1197     1.0  0.04410  0.50985  0.00247  1.0000
  H   H1198     1.0  0.08856  0.55589  0.98985  1.0000
  C   C677      1.0  0.08605  0.57046  0.98669  1.0000
  C   C678      1.0  0.03959  0.62545  0.98797  1.0000
  H   H1199     1.0  0.15131  0.59823  0.98020  1.0000
  H   H1200     1.0  0.01647  0.51967  0.05007  1.0000
  H   H1201     1.0  0.01675  0.72888  0.10420  1.0000
  Fe  Fe69      1.0  0.99945  0.72818  0.24848  1.0000
  C   C679      1.0  0.04574  0.70272  0.30091  1.0000
  H   H1202     1.0  0.04941  0.64730  0.00311  1.0000
  C   C680      1.0  0.02979  0.70628  0.13320  1.0000
  C   C681      1.0  0.03337  0.68694  0.28658  1.0000
  H   H1203     1.0  0.05332  0.52485  0.06868  1.0000
  H   H1204     1.0  0.04733  0.63987  0.15732  1.0000
  H   H1205     1.0  0.12567  0.69768  0.98082  1.0000
  N   N37       1.0  0.02589  0.69505  0.15139  1.0000
  H   H1206     1.0  0.05333  0.64943  0.13413  1.0000
  Fe  Fe70      1.0  0.09544  0.49126  0.00853  1.0000
  H   H1207     1.0  0.17883  0.70488  0.06101  1.0000
  C   C682      1.0  0.17201  0.69603  0.05843  1.0000
  C   C683      1.0  0.00639  0.69520  0.15811  1.0000
  H   H1208     1.0  0.44037  0.71094  0.04224  1.0000
  H   H1209     1.0  0.03620  0.63730  0.14221  1.0000
  H   H1210     1.0  0.01489  0.68624  0.04562  1.0000
  H   H1211     1.0  0.05030  0.55480  0.09790  1.0000
  C   C684      1.0  0.42432  0.71370  0.00703  1.0000
  C   C685      1.0  0.40614  0.71639  0.01468  1.0000
  C   C686      1.0  0.40027  0.71687  0.03237  1.0000
  H   H1212     1.0  0.14410  0.71617  0.99164  1.0000
  H   H1213     1.0  0.23192  0.67848  0.03569  1.0000
  H   H1214     1.0  0.06952  0.67388  0.27422  1.0000
  H   H1215     1.0  0.29562  0.70832  0.08670  1.0000
  H   H1216     1.0  0.03448  0.58663  0.04358  1.0000
  H   H1217     1.0  0.01730  0.65965  0.15886  1.0000
  C   C687      1.0  0.06708  0.73118  0.24926  1.0000
  C   C688      1.0  0.04658  0.65120  0.07381  1.0000
  H   H1218     1.0  0.26123  0.72927  0.03583  1.0000
  H   H1219     1.0  0.08148  0.64326  0.28847  1.0000
  S   S153      1.0  0.09327  0.51199  0.98400  1.0000
  C   C689      1.0  0.21141  0.68333  0.05891  1.0000
  H   H1220     1.0  0.09089  0.57463  0.99598  1.0000
  H   H1221     1.0  0.17223  0.65840  0.12013  1.0000
  H   H1222     1.0  0.09547  0.55622  0.04353  1.0000
  N   N38       1.0  0.03094  0.49332  0.99608  1.0000
  C   C690      1.0  0.05553  0.57927  0.09760  1.0000
  S   S154      1.0  0.01102  0.55068  0.02261  1.0000
  C   C691      1.0  0.99859  0.59466  0.99701  1.0000
  H   H1223     1.0  0.18037  0.64578  0.09379  1.0000
  H   H1224     1.0  0.01421  0.50950  0.01406  1.0000
  H   H1225     1.0  0.23897  0.68534  0.05131  1.0000
  H   H1226     1.0  0.17396  0.69874  0.04394  1.0000
  C   C692      1.0  0.03462  0.51665  0.09193  1.0000
  H   H1227     1.0  0.15271  0.73012  0.05592  1.0000
  H   H1228     1.0  0.13329  0.54032  0.02162  1.0000
  H   H1229     1.0  0.15840  0.64407  0.04866  1.0000
  C   C693      1.0  0.13281  0.53535  0.99720  1.0000
  S   S155      1.0  0.02755  0.71619  0.23738  1.0000
  H   H1230     1.0  0.04508  0.66293  0.27634  1.0000
  C   C694      1.0  0.05175  0.70099  0.16058  1.0000
  H   H1231     1.0  0.11798  0.66976  0.98290  1.0000
  H   H1232     1.0  0.06843  0.56149  0.08060  1.0000
  H   H1233     1.0  0.06241  0.57935  0.03020  1.0000
  H   H1234     1.0  0.05607  0.70074  0.25774  1.0000
  C   C695      1.0  0.04514  0.53026  0.08019  1.0000
  C   C696      1.0  0.43667  0.71205  0.01683  1.0000
  H   H1235     1.0  0.03379  0.66780  0.02539  1.0000
  H   H1236     1.0  0.19339  0.66470  0.11389  1.0000
  H   H1237     1.0  0.06966  0.58065  0.04869  1.0000
  H   H1238     1.0  0.99593  0.71835  0.16990  1.0000
  C   C697      1.0  0.02832  0.66329  0.14790  1.0000
  H   H1239     1.0  0.04987  0.67631  0.14330  1.0000
  H   H1240     1.0  0.02672  0.69609  0.17735  1.0000
  H   H1241     1.0  0.07040  0.70721  0.17138  1.0000
  H   H1242     1.0  0.14988  0.66553  0.98035  1.0000
  C   C698      1.0  0.03256  0.54803  0.07422  1.0000
  H   H1243     1.0  0.00000  0.68282  0.07512  1.0000
  H   H1244     1.0  0.01431  0.66366  0.05475  1.0000
  C   C699      1.0  0.06094  0.51110  0.03377  1.0000
  C   C700      1.0  0.19917  0.67338  0.05563  1.0000
  H   H1245     1.0  0.16411  0.67280  0.04984  1.0000
  H   H1246     1.0  0.13080  0.72566  0.06324  1.0000
  H   H1247     1.0  0.07727  0.68434  0.28591  1.0000
  C   C701      1.0  0.03651  0.67637  0.15210  1.0000
  C   C702      1.0  0.43085  0.71256  0.03453  1.0000
  C   C703      1.0  0.15198  0.70240  0.06624  1.0000
  C   C704      1.0  0.06200  0.52593  0.02015  1.0000
  H   H1248     1.0  0.00306  0.60065  0.03683  1.0000
  S   S156      1.0  0.07945  0.49386  0.03539  1.0000
  H   H1249     1.0  0.05722  0.70800  0.14726  1.0000
  H   H1250     1.0  0.20146  0.65213  0.08757  1.0000
  H   H1251     1.0  0.06785  0.54797  0.06108  1.0000
  C   C705      1.0  0.14465  0.72763  0.98057  1.0000
  H   H1252     1.0  0.00964  0.70092  0.12286  1.0000
  H   H1253     1.0  0.05904  0.68706  0.16247  1.0000
  H   H1254     1.0  0.14684  0.69202  0.98503  1.0000
  H   H1255     1.0  0.17483  0.62433  0.05376  1.0000
  C   C706      1.0  0.04304  0.50606  0.99082  1.0000
  C   C707      1.0  0.08793  0.56331  0.03318  1.0000
  C   C708      1.0  0.04461  0.50925  0.04503  1.0000
  S   S157      1.0  0.37749  0.72066  0.04202  1.0000
  H   H1256     1.0  0.19993  0.67652  0.04128  1.0000
  S   S158      1.0  0.45933  0.70814  0.00680  1.0000
  H   H1257     1.0  0.06487  0.72375  0.27699  1.0000
  H   H1258     1.0  0.14391  0.69363  0.06564  1.0000
  N   N39       1.0  0.18000  0.67697  0.06529  1.0000
  H   H1259     1.0  0.04722  0.54940  0.00615  1.0000
  H   H1260     1.0  0.01555  0.68212  0.01608  1.0000
  H   H1261     1.0  0.15886  0.63339  0.07117  1.0000
  C   C709      1.0  0.06216  0.59858  0.98511  1.0000
  H   H1262     1.0  0.00145  0.68939  0.15015  1.0000
  C   C710      1.0  0.13263  0.54253  0.97955  1.0000
  C   C711      1.0  0.17820  0.67414  0.08469  1.0000
  C   C712      1.0  0.01919  0.67082  0.02676  1.0000
  H   H1263     1.0  0.99596  0.72314  0.14693  1.0000
  H   H1264     1.0  0.02277  0.66879  0.13612  1.0000
  C   C713      1.0  0.14463  0.72084  0.05645  1.0000
  C   C714      1.0  0.06631  0.57833  0.98777  1.0000
  H   H1265     1.0  0.02178  0.71229  0.09177  1.0000
  H   H1266     1.0  0.06481  0.57297  0.10652  1.0000
  H   H1267     1.0  0.14999  0.70296  0.08009  1.0000
  C   C715      1.0  0.01000  0.67516  0.04458  1.0000
  C   C716      1.0  0.13243  0.54610  0.00815  1.0000
  C   C717      1.0  0.30235  0.73226  0.08710  1.0000
  H   H1268     1.0  0.05682  0.53559  0.98224  1.0000
  C   C718      1.0  0.41267  0.71459  0.04237  1.0000
  C   C719      1.0  0.18726  0.65579  0.09389  1.0000
  H   H1269     1.0  0.05755  0.54946  0.04411  1.0000
  C   C720      1.0  0.06891  0.57158  0.04114  1.0000
  H   H1270     1.0  0.21107  0.68101  0.07301  1.0000
  Fe  Fe71      1.0  0.01614  0.70558  0.22143  1.0000
  H   H1271     1.0  0.11416  0.73155  0.29736  1.0000
  C   C721      1.0  0.02915  0.52162  0.04187  1.0000
  H   H1272     1.0  0.05914  0.57278  0.00102  1.0000
  S   S159      1.0  0.10309  0.61682  0.03601  1.0000
  H   H1273     1.0  0.18894  0.64933  0.04463  1.0000
  C   C722      1.0  0.99783  0.59016  0.04737  1.0000
  H   H1274     1.0  0.00368  0.57234  0.07082  1.0000
  H   H1275     1.0  0.05792  0.66135  0.98294  1.0000
  N   N40       1.0  0.04087  0.56348  0.06382  1.0000
  H   H1276     1.0  0.99682  0.66805  0.24746  1.0000
  H   H1277     1.0  0.00551  0.61888  0.99465  1.0000
  H   H1278     1.0  0.05421  0.53164  0.08744  1.0000
  C   C723      1.0  0.03147  0.70256  0.16347  1.0000
  C   C724      1.0  0.03014  0.59847  0.99143  1.0000
  C   C725      1.0  0.04168  0.57439  0.07565  1.0000
  Fe  Fe72      1.0  0.10103  0.63684  0.98756  1.0000
  H   H1279     1.0  0.05673  0.49959  0.98505  1.0000
  H   H1280     1.0  0.99792  0.59026  0.01125  1.0000
  C   C726      1.0  0.02909  0.57497  0.05156  1.0000
  C   C727      1.0  0.06579  0.67910  0.28629  1.0000
  C   C728      1.0  0.08113  0.64851  0.29976  1.0000
  C   C729      1.0  0.16973  0.66588  0.06157  1.0000
  S   S160      1.0  0.00412  0.62490  0.15025  1.0000
  H   H1281     1.0  0.03338  0.58536  0.98834  1.0000
  C   C730      1.0  0.99901  0.51217  0.99475  1.0000
  H   H1282     1.0  0.02515  0.71677  0.16235  1.0000
  H   H1283     1.0  0.30334  0.68889  0.98198  1.0000
  S   S161      1.0  0.01712  0.72914  0.19944  1.0000
  H   H1284     1.0  0.23589  0.66325  0.05581  1.0000
  C   C731      1.0  0.03741  0.52380  0.97824  1.0000
  H   H1285     1.0  0.15847  0.72949  0.97601  1.0000
  H   H1286     1.0  0.02657  0.63360  0.98547  1.0000
  H   H1287     1.0  0.99906  0.64487  0.25017  1.0000
  C   C732      1.0  0.30993  0.70016  0.97650  1.0000
  C   C733      1.0  0.01107  0.60730  0.98862  1.0000
  H   H1288     1.0  0.06773  0.72557  0.23811  1.0000
  H   H1289     1.0  0.06664  0.63070  0.98024  1.0000
  H   H1290     1.0  0.41718  0.73261  0.07217  1.0000
  C   C734      1.0  0.05284  0.63778  0.97972  1.0000
  H   H1291     1.0  0.05081  0.70227  0.18714  1.0000
  H   H1292     1.0  0.03477  0.66064  0.98872  1.0000
  H   H1293     1.0  0.09356  0.65301  0.29750  1.0000
  H   H1294     1.0  0.01239  0.66501  0.28613  1.0000
  N   N41       1.0  0.04426  0.60874  0.98139  1.0000
  C   C735      1.0  0.25614  0.73265  0.01042  1.0000
  H   H1295     1.0  0.16436  0.61397  0.97699  1.0000
  C   C736      1.0  0.03023  0.48804  0.98002  1.0000
  Fe  Fe73      1.0  0.36054  0.73332  0.02216  1.0000
  H   H1296     1.0  0.33210  0.68694  0.98931  1.0000
  H   H1297     1.0  0.99850  0.68989  0.10291  1.0000
  H   H1298     1.0  0.02074  0.66399  0.26342  1.0000
  H   H1299     1.0  0.03909  0.71677  0.29707  1.0000
  H   H1300     1.0  0.29975  0.71243  0.97682  1.0000
  C   C737      1.0  0.06497  0.66357  0.30237  1.0000
  H   H1301     1.0  0.02886  0.67852  0.29943  1.0000
  H   H1302     1.0  0.05845  0.70301  0.30362  1.0000
  C   C738      1.0  0.26626  0.73274  0.02186  1.0000
  H   H1303     1.0  0.17406  0.70211  0.97614  1.0000
  H   H1304     1.0  0.99602  0.70592  0.45603  1.0000
  H   H1305     1.0  0.06501  0.66789  0.31408  1.0000
  C   C739      1.0  0.07637  0.73232  0.53214  1.0000
  C   C740      1.0  0.05338  0.71179  0.59173  1.0000
  S   S162      1.0  0.06567  0.71260  0.60603  1.0000
  C   C741      1.0  0.03132  0.72153  0.45044  1.0000
  H   H1306     1.0  0.03890  0.69558  0.44531  1.0000
  H   H1307     1.0  0.02170  0.65514  0.63238  1.0000
  H   H1308     1.0  0.00453  0.68355  0.47925  1.0000
  H   H1309     1.0  0.04782  0.69695  0.33688  1.0000
  H   H1310     1.0  0.08339  0.71799  0.45823  1.0000
  C   C742      1.0  0.08415  0.71519  0.52517  1.0000
  C   C743      1.0  0.03750  0.70949  0.43960  1.0000
  C   C744      1.0  0.04360  0.69464  0.57780  1.0000
  H   H1311     1.0  0.06040  0.70458  0.53589  1.0000
  H   H1312     1.0  0.01957  0.69972  0.31707  1.0000
  C   C745      1.0  0.05324  0.69553  0.58925  1.0000
  H   H1313     1.0  0.02420  0.69987  0.34492  1.0000
  H   H1314     1.0  0.11439  0.73176  0.52027  1.0000
  H   H1315     1.0  0.08137  0.71638  0.35209  1.0000
  H   H1316     1.0  0.10321  0.72364  0.42921  1.0000
  H   H1317     1.0  0.01211  0.70386  0.60596  1.0000
  C   C746      1.0  0.07467  0.70057  0.53624  1.0000
  H   H1318     1.0  0.06030  0.68358  0.59645  1.0000
  C   C747      1.0  0.00274  0.71367  0.61320  1.0000
  C   C748      1.0  0.03483  0.70299  0.33325  1.0000
  C   C749      1.0  0.04223  0.71527  0.42143  1.0000
  S   S163      1.0  0.02607  0.71339  0.47315  1.0000
  H   H1319     1.0  0.03686  0.68118  0.32257  1.0000
  S   S164      1.0  0.02249  0.70814  0.55432  1.0000
  H   H1320     1.0  0.04738  0.70581  0.41321  1.0000
  C   C750      1.0  0.03479  0.71002  0.56809  1.0000
  C   C751      1.0  0.03358  0.69566  0.31846  1.0000
  H   H1321     1.0  0.04316  0.68198  0.57628  1.0000
  C   C752      1.0  0.99797  0.70769  0.42881  1.0000
  H   H1322     1.0  0.08050  0.68853  0.53095  1.0000
  C   C753      1.0  0.01350  0.66651  0.63807  1.0000
  H   H1323     1.0  0.05804  0.72402  0.35209  1.0000
  H   H1324     1.0  0.07607  0.69741  0.54999  1.0000
  H   H1325     1.0  0.10233  0.72836  0.63676  1.0000
  C   C754      1.0  0.07107  0.71774  0.34487  1.0000
  S   S165      1.0  0.99988  0.72616  0.51654  1.0000
  H   H1326     1.0  0.10077  0.73211  0.61436  1.0000
  H   H1327     1.0  0.00398  0.68880  0.50770  1.0000
  H   H1328     1.0  0.09846  0.71034  0.52519  1.0000
  H   H1329     1.0  0.03329  0.71747  0.32935  1.0000
  C   C755      1.0  0.07767  0.72513  0.44663  1.0000
  Fe  Fe74      1.0  0.05014  0.72956  0.62507  1.0000
  C   C756      1.0  0.10931  0.73216  0.62293  1.0000
  C   C757      1.0  0.04042  0.73318  0.41390  1.0000
  H   H1330     1.0  0.07455  0.72828  0.54662  1.0000
  C   C758      1.0  0.04424  0.72720  0.58236  1.0000
  H   H1331     1.0  0.11276  0.72636  0.32075  1.0000
  H   H1332     1.0  0.10380  0.72944  0.54261  1.0000
  S   S166      1.0  0.04036  0.73184  0.50559  1.0000
  H   H1333     1.0  0.01045  0.71848  0.61947  1.0000
  Fe  Fe75      1.0  0.01907  0.72912  0.53009  1.0000
  C   C759      1.0  0.03537  0.72637  0.57010  1.0000
  C   C760      1.0  0.07554  0.72867  0.32631  1.0000
  H   H1334     1.0  0.08236  0.71747  0.51166  1.0000
  H   H1335     1.0  0.10527  0.72735  0.39273  1.0000
  H   H1336     1.0  0.99647  0.65262  0.47717  1.0000
  H   H1337     1.0  0.12186  0.72220  0.62064  1.0000
  H   H1338     1.0  0.07054  0.70440  0.34444  1.0000
  C   C761      1.0  0.13984  0.73012  0.37216  1.0000
  Fe  Fe76      1.0  0.02017  0.73123  0.49175  1.0000
  H   H1339     1.0  0.01978  0.67792  0.63160  1.0000
  H   H1340     1.0  0.00205  0.62261  0.47174  1.0000
  H   H1341     1.0  0.07376  0.71555  0.44186  1.0000
  H   H1342     1.0  0.13679  0.71743  0.37279  1.0000
  H   H1343     1.0  0.01166  0.69968  0.42593  1.0000
  H   H1344     1.0  0.99698  0.66668  0.49714  1.0000
  H   H1345     1.0  0.11942  0.73171  0.40325  1.0000
  H   H1346     1.0  0.99874  0.72167  0.42563  1.0000
  H   H1347     1.0  0.00390  0.67558  0.45481  1.0000
  H   H1348     1.0  0.06504  0.72956  0.31949  1.0000
  H   H1349     1.0  0.14790  0.72819  0.38186  1.0000
  H   H1350     1.0  0.08804  0.72140  0.31941  1.0000
  H   H1351     1.0  0.08043  0.63770  0.31163  1.0000
  H   H1352     1.0  0.00004  0.66985  0.63538  1.0000
  H   H1353     1.0  0.13334  0.73322  0.54564  1.0000
  H   H1354     1.0  0.38746  0.70765  0.89973  1.0000
  C   C762      1.0  0.00497  0.64562  0.66721  1.0000
  C   C763      1.0  0.13117  0.56070  0.97313  1.0000
  H   H1355     1.0  0.12146  0.71091  0.95046  1.0000
  H   H1356     1.0  0.09561  0.55541  0.73376  1.0000
  H   H1357     1.0  0.09046  0.54471  0.77980  1.0000
  H   H1358     1.0  0.13089  0.56635  0.95952  1.0000
  H   H1359     1.0  0.09623  0.55959  0.89220  1.0000
  H   H1360     1.0  0.05235  0.64385  0.96583  1.0000
  H   H1361     1.0  0.29652  0.69136  0.93394  1.0000
  H   H1362     1.0  0.06346  0.52733  0.96257  1.0000
  H   H1363     1.0  0.14337  0.66097  0.90203  1.0000
  H   H1364     1.0  0.02764  0.51845  0.88171  1.0000
  C   C764      1.0  0.09251  0.49821  0.90052  1.0000
  C   C765      1.0  0.32095  0.69922  0.95780  1.0000
  S   S167      1.0  0.31337  0.71979  0.88002  1.0000
  S   S168      1.0  0.11264  0.50218  0.82993  1.0000
  H   H1365     1.0  0.00248  0.49102  0.87837  1.0000
  Fe  Fe77      1.0  0.01307  0.60318  0.74365  1.0000
  Fe  Fe78      1.0  0.03822  0.73045  0.66347  1.0000
  S   S169      1.0  0.02585  0.58659  0.72367  1.0000
  S   S170      1.0  0.04021  0.48553  0.86728  1.0000
  N   N42       1.0  0.14517  0.70863  0.95935  1.0000
  H   H1366     1.0  0.00438  0.67414  0.66268  1.0000
  Fe  Fe79      1.0  0.01961  0.61774  0.77113  1.0000
  S   S171      1.0  0.04370  0.61568  0.78119  1.0000
  Fe  Fe80      1.0  0.09959  0.48457  0.82331  1.0000
  C   C766      1.0  0.14060  0.61042  0.90683  1.0000
  S   S172      1.0  0.02430  0.62604  0.74188  1.0000
  H   H1367     1.0  0.11412  0.52477  0.74365  1.0000
  Fe  Fe81      1.0  0.01711  0.49308  0.76737  1.0000
  Fe  Fe82      1.0  0.21450  0.71790  0.88704  1.0000
  C   C767      1.0  0.13480  0.53245  0.90337  1.0000
  S   S173      1.0  0.23525  0.70711  0.90311  1.0000
  Fe  Fe83      1.0  0.18657  0.70654  0.87604  1.0000
  H   H1368     1.0  0.34762  0.72673  0.93378  1.0000
  S   S174      1.0  0.17939  0.68186  0.87493  1.0000
  C   C768      1.0  0.01244  0.66238  0.65772  1.0000
  H   H1369     1.0  0.02393  0.49926  0.97083  1.0000
  S   S175      1.0  0.04179  0.71430  0.69011  1.0000
  C   C769      1.0  0.00582  0.49331  0.86426  1.0000
  S   S176      1.0  0.21478  0.70864  0.86364  1.0000
  S   S177      1.0  0.18732  0.71316  0.90072  1.0000
  C   C770      1.0  0.07590  0.54362  0.75532  1.0000
  Fe  Fe84      1.0  0.11121  0.61206  0.85010  1.0000
  S   S178      1.0  0.08509  0.60760  0.86709  1.0000
  S   S179      1.0  0.12892  0.58878  0.83954  1.0000
  Fe  Fe85      1.0  0.10484  0.64894  0.85622  1.0000
  S   S180      1.0  0.07796  0.64707  0.87367  1.0000
  S   S181      1.0  0.11336  0.67473  0.85123  1.0000
  Fe  Fe86      1.0  0.09142  0.61982  0.88528  1.0000
  S   S182      1.0  0.08911  0.60548  0.91346  1.0000
  Fe  Fe87      1.0  0.07416  0.63505  0.85362  1.0000
  S   S183      1.0  0.04769  0.64227  0.84563  1.0000
  S   S184      1.0  0.11849  0.62241  0.86931  1.0000
  S   S185      1.0  0.10004  0.63887  0.83516  1.0000
  C   C771      1.0  0.09165  0.61803  0.92650  1.0000
  C   C772      1.0  0.08798  0.63633  0.92145  1.0000
  C   C773      1.0  0.08996  0.64628  0.93199  1.0000
  C   C774      1.0  0.09594  0.63797  0.94742  1.0000
  C   C775      1.0  0.09982  0.61964  0.95240  1.0000
  C   C776      1.0  0.09757  0.60968  0.94198  1.0000
  H   H1370     1.0  0.08343  0.64285  0.90952  1.0000
  H   H1371     1.0  0.08674  0.66046  0.92817  1.0000
  C   C777      1.0  0.11641  0.57791  0.83329  1.0000
  H   H1372     1.0  0.10083  0.59551  0.94570  1.0000
  H   H1373     1.0  0.02164  0.66415  0.73243  1.0000
  C   C778      1.0  0.03238  0.63745  0.69092  1.0000
  H   H1374     1.0  0.04312  0.66087  0.68496  1.0000
  C   C779      1.0  0.13599  0.70975  0.94513  1.0000
  C   C780      1.0  0.23982  0.72624  0.93668  1.0000
  C   C781      1.0  0.16061  0.68017  0.86885  1.0000
  C   C782      1.0  0.16005  0.66392  0.86641  1.0000
  C   C783      1.0  0.14534  0.66188  0.86168  1.0000
  C   C784      1.0  0.13116  0.67618  0.85909  1.0000
  C   C785      1.0  0.13164  0.69240  0.86170  1.0000
  C   C786      1.0  0.14624  0.69438  0.86669  1.0000
  H   H1375     1.0  0.17109  0.65285  0.86810  1.0000
  H   H1376     1.0  0.14517  0.64937  0.85961  1.0000
  H   H1377     1.0  0.12060  0.70345  0.85992  1.0000
  H   H1378     1.0  0.14636  0.70683  0.86892  1.0000
  H   H1379     1.0  0.15220  0.60541  0.94847  1.0000
  H   H1380     1.0  0.04376  0.68227  0.71600  1.0000
  C   C787      1.0  0.10230  0.51886  0.74967  1.0000
  H   H1381     1.0  0.21180  0.71089  0.82729  1.0000
  H   H1382     1.0  0.14634  0.61441  0.89265  1.0000
  H   H1383     1.0  0.10775  0.54472  0.76061  1.0000
  H   H1384     1.0  0.06528  0.54861  0.76589  1.0000
  Fe  Fe88      1.0  0.99624  0.64136  0.74641  1.0000
  S   S186      1.0  0.07357  0.50398  0.82325  1.0000
  H   H1385     1.0  0.12641  0.51864  0.93035  1.0000
  C   C788      1.0  0.04402  0.62271  0.79960  1.0000
  C   C789      1.0  0.02875  0.63172  0.80934  1.0000
  C   C790      1.0  0.02993  0.63757  0.82357  1.0000
  C   C791      1.0  0.04635  0.63456  0.82801  1.0000
  C   C792      1.0  0.06154  0.62570  0.81813  1.0000
  C   C793      1.0  0.06036  0.61969  0.80409  1.0000
  H   H1386     1.0  0.01612  0.63425  0.80587  1.0000
  H   H1387     1.0  0.01813  0.64454  0.83111  1.0000
  H   H1388     1.0  0.07424  0.62370  0.82122  1.0000
  H   H1389     1.0  0.07225  0.61279  0.79657  1.0000
  C   C794      1.0  0.00097  0.68102  0.71980  1.0000
  C   C795      1.0  0.47747  0.71410  0.95167  1.0000
  H   H1390     1.0  0.11744  0.54202  0.79273  1.0000
  C   C796      1.0  0.02603  0.70147  0.70108  1.0000
  C   C797      1.0  0.00898  0.70642  0.69778  1.0000
  H   H1391     1.0  0.05010  0.48971  0.78517  1.0000
  H   H1392     1.0  0.24410  0.72739  0.94800  1.0000
  C   C798      1.0  0.99571  0.59319  0.69390  1.0000
  H   H1393     1.0  0.00539  0.71822  0.68815  1.0000
  S   S187      1.0  0.12488  0.48453  0.96352  1.0000
  H   H1394     1.0  0.08541  0.55510  0.92484  1.0000
  H   H1395     1.0  0.12256  0.68310  0.92928  1.0000
  H   H1396     1.0  0.20233  0.62765  0.92215  1.0000
  H   H1397     1.0  0.07189  0.66016  0.81058  1.0000
  H   H1398     1.0  0.29051  0.72554  0.95339  1.0000
  H   H1399     1.0  0.00066  0.66675  0.77713  1.0000
  C   C799      1.0  0.09727  0.54970  0.93069  1.0000
  H   H1400     1.0  0.13531  0.64581  0.93604  1.0000
  H   H1401     1.0  0.07159  0.52343  0.78810  1.0000
  H   H1402     1.0  0.21109  0.65424  0.90044  1.0000
  C   C800      1.0  0.29126  0.71743  0.88581  1.0000
  C   C801      1.0  0.28776  0.70155  0.89663  1.0000
  C   C802      1.0  0.27056  0.69870  0.90163  1.0000
  C   C803      1.0  0.25667  0.71146  0.89545  1.0000
  H   H1403     1.0  0.03913  0.58935  0.96016  1.0000
  H   H1404     1.0  0.13698  0.55734  0.87530  1.0000
  H   H1405     1.0  0.29843  0.69136  0.90118  1.0000
  H   H1406     1.0  0.26802  0.68642  0.91020  1.0000
  C   C804      1.0  0.40875  0.72325  0.96527  1.0000
  H   H1407     1.0  0.99515  0.58845  0.70815  1.0000
  H   H1408     1.0  0.16242  0.58569  0.88058  1.0000
  C   C805      1.0  0.01434  0.49908  0.82781  1.0000
  S   S188      1.0  0.01034  0.59361  0.77257  1.0000
  H   H1409     1.0  0.00800  0.64518  0.70896  1.0000
  H   H1410     1.0  0.03310  0.62387  0.95904  1.0000
  H   H1411     1.0  0.01285  0.53773  0.88844  1.0000
  H   H1412     1.0  0.15199  0.67505  0.90941  1.0000
  H   H1413     1.0  0.45051  0.71195  0.96486  1.0000
  C   C806      1.0  0.05814  0.49635  0.78915  1.0000
  H   H1414     1.0  0.14606  0.59000  0.86784  1.0000
  C   C807      1.0  0.14151  0.68477  0.80439  1.0000
  H   H1415     1.0  0.17980  0.65496  0.92096  1.0000
  C   C808      1.0  0.03570  0.52670  0.74243  1.0000
  C   C809      1.0  0.02472  0.53738  0.75384  1.0000
  C   C810      1.0  0.02159  0.55581  0.74830  1.0000
  C   C811      1.0  0.02930  0.56359  0.73127  1.0000
  C   C812      1.0  0.04027  0.55287  0.71994  1.0000
  C   C813      1.0  0.04368  0.53453  0.72559  1.0000
  H   H1416     1.0  0.01888  0.53145  0.76704  1.0000
  H   H1417     1.0  0.01306  0.56395  0.75712  1.0000
  H   H1418     1.0  0.04629  0.55876  0.70679  1.0000
  H   H1419     1.0  0.05226  0.52638  0.71676  1.0000
  H   H1420     1.0  0.13964  0.48865  0.92586  1.0000
  H   H1421     1.0  0.14632  0.49673  0.90273  1.0000
  H   H1422     1.0  0.16289  0.56992  0.86866  1.0000
  C   C814      1.0  0.13811  0.72584  0.96517  1.0000
  H   H1423     1.0  0.05848  0.64034  0.69048  1.0000
  H   H1424     1.0  0.08394  0.53662  0.88143  1.0000
  S   S189      1.0  0.04024  0.50359  0.74903  1.0000
  C   C815      1.0  0.05209  0.53410  0.97137  1.0000
  H   H1425     1.0  0.12674  0.60954  0.90836  1.0000
  H   H1426     1.0  0.20592  0.64723  0.88365  1.0000
  C   C816      1.0  0.45830  0.72231  0.95932  1.0000
  H   H1427     1.0  0.13488  0.61946  0.93044  1.0000
  H   H1428     1.0  0.01082  0.61149  0.97455  1.0000
  C   C817      1.0  0.15450  0.61522  0.95419  1.0000
  C   C818      1.0  0.48865  0.72824  0.94339  1.0000
  H   H1429     1.0  0.00036  0.58207  0.81739  1.0000
  C   C819      1.0  0.16494  0.70564  0.95195  1.0000
  H   H1430     1.0  0.15232  0.72639  0.92444  1.0000
  H   H1431     1.0  0.12333  0.72857  0.96873  1.0000
  C   C820      1.0  0.32414  0.70291  0.92645  1.0000
  H   H1432     1.0  0.11902  0.57416  0.88209  1.0000
  C   C821      1.0  0.01858  0.53103  0.87735  1.0000
  C   C822      1.0  0.19667  0.69584  0.95580  1.0000
  C   C823      1.0  0.99661  0.50065  0.83675  1.0000
  H   H1433     1.0  0.04146  0.49309  0.83015  1.0000
  C   C824      1.0  0.07770  0.67018  0.79986  1.0000
  H   H1434     1.0  0.02606  0.66051  0.65950  1.0000
  H   H1435     1.0  0.42491  0.71768  0.94096  1.0000
  H   H1436     1.0  0.01766  0.50151  0.81372  1.0000
  C   C825      1.0  0.02167  0.67824  0.77801  1.0000
  H   H1437     1.0  0.14081  0.69753  0.94008  1.0000
  H   H1438     1.0  0.16886  0.69797  0.94160  1.0000
  H   H1439     1.0  0.10482  0.61311  0.96409  1.0000
  H   H1440     1.0  0.47707  0.70704  0.94207  1.0000
  H   H1441     1.0  0.45211  0.73237  0.94914  1.0000
  H   H1442     1.0  0.15382  0.67460  0.95771  1.0000
  H   H1443     1.0  0.25495  0.68838  0.96811  1.0000
  H   H1444     1.0  0.27928  0.69966  0.97040  1.0000
  H   H1445     1.0  0.05042  0.49787  0.89586  1.0000
  H   H1446     1.0  0.17613  0.68203  0.96997  1.0000
  H   H1447     1.0  0.46029  0.72097  0.90655  1.0000
  H   H1448     1.0  0.13415  0.58050  0.90007  1.0000
  C   C826      1.0  0.11256  0.55156  0.82755  1.0000
  C   C827      1.0  0.14203  0.57056  0.89234  1.0000
  H   H1449     1.0  0.04988  0.68159  0.78510  1.0000
  N   N43       1.0  0.00055  0.64154  0.68698  1.0000
  H   H1450     1.0  0.41378  0.70988  0.97267  1.0000
  H   H1451     1.0  0.02202  0.67091  0.79167  1.0000
  C   C828      1.0  0.02357  0.49166  0.85533  1.0000
  H   H1452     1.0  0.22339  0.63376  0.89444  1.0000
  H   H1453     1.0  0.13212  0.63639  0.91143  1.0000
  H   H1454     1.0  0.05798  0.51719  0.76639  1.0000
  H   H1455     1.0  0.08336  0.67795  0.77191  1.0000
  H   H1456     1.0  0.18025  0.61469  0.93801  1.0000
  H   H1457     1.0  0.31718  0.70562  0.91566  1.0000
  H   H1458     1.0  0.27209  0.71026  0.95050  1.0000
  H   H1459     1.0  0.20103  0.70800  0.80293  1.0000
  C   C829      1.0  0.01806  0.67597  0.72289  1.0000
  H   H1460     1.0  0.03408  0.62440  0.70010  1.0000
  H   H1461     1.0  0.04796  0.49669  0.91886  1.0000
  C   C830      1.0  0.04447  0.64752  0.69361  1.0000
  C   C831      1.0  0.08350  0.50110  0.91715  1.0000
  C   C832      1.0  0.02894  0.54239  0.86191  1.0000
  C   C833      1.0  0.04508  0.61378  0.96199  1.0000
  H   H1462     1.0  0.04981  0.70523  0.76400  1.0000
  H   H1463     1.0  0.04909  0.50491  0.79791  1.0000
  H   H1464     1.0  0.03504  0.53458  0.85172  1.0000
  Fe  Fe89      1.0  0.08612  0.52058  0.83171  1.0000
  H   H1465     1.0  0.14816  0.59724  0.91226  1.0000
  H   H1466     1.0  0.17567  0.65319  0.90137  1.0000
  C   C834      1.0  0.16832  0.62515  0.94107  1.0000
  H   H1467     1.0  0.41636  0.73234  0.96614  1.0000
  H   H1468     1.0  0.35690  0.67107  0.90724  1.0000
  H   H1469     1.0  0.03577  0.70426  0.75051  1.0000
  H   H1470     1.0  0.00605  0.55600  0.85130  1.0000
  C   C835      1.0  0.07992  0.51629  0.77775  1.0000
  C   C836      1.0  0.06045  0.68420  0.74922  1.0000
  C   C837      1.0  0.09038  0.49146  0.93178  1.0000
  S   S190      1.0  0.09873  0.65080  0.96006  1.0000
  H   H1471     1.0  0.27481  0.67122  0.96805  1.0000
  C   C838      1.0  0.30142  0.72354  0.94189  1.0000
  C   C839      1.0  0.10815  0.50480  0.72386  1.0000
  H   H1472     1.0  0.00089  0.61845  0.70822  1.0000
  H   H1473     1.0  0.07650  0.58490  0.82309  1.0000
  H   H1474     1.0  0.13377  0.53729  0.77335  1.0000
  C   C840      1.0  0.12896  0.51648  0.91695  1.0000
  H   H1475     1.0  0.01506  0.63457  0.66226  1.0000
  H   H1476     1.0  0.08710  0.50567  0.88943  1.0000
  H   H1477     1.0  0.02330  0.69159  0.77682  1.0000
  C   C841      1.0  0.09525  0.51807  0.73408  1.0000
  C   C842      1.0  0.04964  0.70272  0.75141  1.0000
  H   H1478     1.0  0.16896  0.61285  0.91529  1.0000
  H   H1479     1.0  0.39960  0.71751  0.91918  1.0000
  H   H1480     1.0  0.05629  0.62038  0.95496  1.0000
  H   H1481     1.0  0.09928  0.53522  0.93435  1.0000
  C   C843      1.0  0.33721  0.68489  0.92596  1.0000
  H   H1482     1.0  0.14095  0.52850  0.89064  1.0000
  H   H1483     1.0  0.09375  0.57481  0.97333  1.0000
  H   H1484     1.0  0.08223  0.51441  0.73824  1.0000
  H   H1485     1.0  0.07021  0.68345  0.80184  1.0000
  Fe  Fe90      1.0  0.09530  0.49011  0.97151  1.0000
  C   C844      1.0  0.09507  0.54096  0.87104  1.0000
  C   C845      1.0  0.26856  0.68401  0.96053  1.0000
  H   H1486     1.0  0.35448  0.69461  0.90132  1.0000
  C   C846      1.0  0.34721  0.68384  0.90724  1.0000
  C   C847      1.0  0.11364  0.55595  0.91766  1.0000
  N   N44       1.0  0.02523  0.57227  0.83967  1.0000
  C   C848      1.0  0.01652  0.55984  0.85494  1.0000
  C   C849      1.0  0.01171  0.58908  0.83565  1.0000
  C   C850      1.0  0.03232  0.56354  0.82433  1.0000
  C   C851      1.0  0.04045  0.57667  0.84370  1.0000
  C   C852      1.0  0.03625  0.58354  0.86063  1.0000
  C   C853      1.0  0.03936  0.57533  0.80668  1.0000
  C   C854      1.0  0.41069  0.72278  0.94627  1.0000
  H   H1487     1.0  0.26749  0.68232  0.94785  1.0000
  C   C855      1.0  0.05257  0.58800  0.86286  1.0000
  C   C856      1.0  0.04643  0.56506  0.79226  1.0000
  H   H1488     1.0  0.22758  0.72101  0.94149  1.0000
  H   H1489     1.0  0.00947  0.56645  0.86598  1.0000
  H   H1490     1.0  0.00576  0.59469  0.84747  1.0000
  H   H1491     1.0  0.01819  0.59930  0.82585  1.0000
  H   H1492     1.0  0.02214  0.55775  0.82251  1.0000
  H   H1493     1.0  0.04356  0.55224  0.82684  1.0000
  H   H1494     1.0  0.05185  0.56516  0.84433  1.0000
  H   H1495     1.0  0.04560  0.58705  0.83288  1.0000
  H   H1496     1.0  0.03202  0.57355  0.87236  1.0000
  H   H1497     1.0  0.02569  0.59570  0.86025  1.0000
  H   H1498     1.0  0.03971  0.54477  0.86634  1.0000
  H   H1499     1.0  0.05039  0.58052  0.80749  1.0000
  H   H1500     1.0  0.02871  0.58651  0.80263  1.0000
  C   C857      1.0  0.39411  0.73171  0.91444  1.0000
  C   C858      1.0  0.16142  0.60500  0.97066  1.0000
  H   H1501     1.0  0.30423  0.67888  0.95296  1.0000
  H   H1502     1.0  0.07616  0.49817  0.76438  1.0000
  H   H1503     1.0  0.45778  0.72847  0.97003  1.0000
  H   H1504     1.0  0.06360  0.57623  0.86368  1.0000
  H   H1505     1.0  0.05699  0.59846  0.85171  1.0000
  H   H1506     1.0  0.04932  0.59288  0.87504  1.0000
  H   H1507     1.0  0.03582  0.55985  0.79052  1.0000
  H   H1508     1.0  0.05131  0.57392  0.77979  1.0000
  H   H1509     1.0  0.05760  0.55401  0.79546  1.0000
  C   C859      1.0  0.03631  0.66821  0.76508  1.0000
  C   C860      1.0  0.06728  0.65227  0.75837  1.0000
  C   C861      1.0  0.06432  0.64733  0.74247  1.0000
  H   H1510     1.0  0.32857  0.68540  0.95895  1.0000
  C   C862      1.0  0.07682  0.63002  0.73915  1.0000
  H   H1511     1.0  0.05298  0.65850  0.79114  1.0000
  H   H1512     1.0  0.03291  0.67288  0.75202  1.0000
  H   H1513     1.0  0.03461  0.65439  0.76975  1.0000
  H   H1514     1.0  0.06595  0.64089  0.76964  1.0000
  H   H1515     1.0  0.08144  0.65307  0.75516  1.0000
  H   H1516     1.0  0.06688  0.65748  0.73035  1.0000
  H   H1517     1.0  0.05062  0.64567  0.74467  1.0000
  C   C863      1.0  0.12520  0.53152  0.78562  1.0000
  H   H1518     1.0  0.12136  0.50820  0.71885  1.0000
  H   H1519     1.0  0.07460  0.61918  0.75078  1.0000
  H   H1520     1.0  0.07426  0.62668  0.72793  1.0000
  H   H1521     1.0  0.09086  0.63110  0.73604  1.0000
  C   C864      1.0  0.14087  0.62385  0.91650  1.0000
  H   H1522     1.0  0.20083  0.68896  0.94485  1.0000
  N   N45       1.0  0.31081  0.70447  0.94346  1.0000
  H   H1523     1.0  0.34728  0.68297  0.93363  1.0000
  H   H1524     1.0  0.13384  0.52168  0.79395  1.0000
  N   N46       1.0  0.12074  0.54913  0.90100  1.0000
  H   H1525     1.0  0.12104  0.51223  0.77465  1.0000
  C   C865      1.0  0.09286  0.55644  0.94739  1.0000
  H   H1526     1.0  0.19599  0.62182  0.90535  1.0000
  C   C866      1.0  0.19684  0.63295  0.91019  1.0000
  H   H1527     1.0  0.06760  0.48610  0.79629  1.0000
  C   C867      1.0  0.01259  0.64726  0.69450  1.0000
  C   C868      1.0  0.29833  0.69248  0.94659  1.0000
  H   H1528     1.0  0.16383  0.63214  0.89933  1.0000
  H   H1529     1.0  0.10298  0.50486  0.71258  1.0000
  N   N47       1.0  0.16315  0.63678  0.92449  1.0000
  H   H1530     1.0  0.33219  0.71306  0.92262  1.0000
  H   H1531     1.0  0.00782  0.52796  0.87347  1.0000
  S   S191      1.0  0.08192  0.54951  0.82001  1.0000
  H   H1532     1.0  0.12436  0.55306  0.92490  1.0000
  H   H1533     1.0  0.19870  0.70947  0.95061  1.0000
  C   C869      1.0  0.08321  0.55965  0.74315  1.0000
  H   H1534     1.0  0.11694  0.51398  0.91495  1.0000
  H   H1535     1.0  0.15605  0.50175  0.91779  1.0000
  H   H1536     1.0  0.40303  0.71337  0.94629  1.0000
  H   H1537     1.0  0.05698  0.57638  0.74193  1.0000
  C   C870      1.0  0.17728  0.69593  0.96487  1.0000
  C   C871      1.0  0.99639  0.69634  0.70732  1.0000
  H   H1538     1.0  0.06750  0.56592  0.72359  1.0000
  S   S192      1.0  0.07811  0.49423  0.95259  1.0000
  H   H1539     1.0  0.08995  0.57100  0.94430  1.0000
  C   C872      1.0  0.15406  0.57960  0.87636  1.0000
  C   C873      1.0  0.21008  0.64269  0.89634  1.0000
  H   H1540     1.0  0.39459  0.72758  0.97146  1.0000
  H   H1541     1.0  0.11399  0.66934  0.92124  1.0000
  H   H1542     1.0  0.14963  0.65739  0.93847  1.0000
  C   C874      1.0  0.02781  0.49460  0.83710  1.0000
  H   H1543     1.0  0.15065  0.56050  0.90043  1.0000
  H   H1544     1.0  0.19379  0.68838  0.81634  1.0000
  H   H1545     1.0  0.03701  0.63520  0.67746  1.0000
  C   C875      1.0  0.10579  0.54672  0.89478  1.0000
  H   H1546     1.0  0.42825  0.72129  0.91172  1.0000
  H   H1547     1.0  0.40490  0.73094  0.88654  1.0000
  H   H1548     1.0  0.14588  0.53457  0.90753  1.0000
  H   H1549     1.0  0.20431  0.69135  0.84086  1.0000
  H   H1550     1.0  0.14174  0.62429  0.95818  1.0000
  C   C876      1.0  0.05711  0.71691  0.73674  1.0000
  C   C877      1.0  0.19539  0.70147  0.81641  1.0000
  H   H1551     1.0  0.18004  0.71889  0.78774  1.0000
  H   H1552     1.0  0.13610  0.55367  0.83385  1.0000
  H   H1553     1.0  0.33013  0.67397  0.93133  1.0000
  C   C878      1.0  0.06976  0.57226  0.73291  1.0000
  C   C879      1.0  0.14728  0.65115  0.92908  1.0000
  S   S193      1.0  0.13494  0.52890  0.96524  1.0000
  C   C880      1.0  0.14313  0.70272  0.80542  1.0000
  H   H1554     1.0  0.31057  0.73154  0.94194  1.0000
  C   C881      1.0  0.14369  0.49994  0.91570  1.0000
  H   H1555     1.0  0.09164  0.66861  0.80060  1.0000
  H   H1556     1.0  0.25035  0.71672  0.92998  1.0000
  H   H1557     1.0  0.01641  0.61494  0.68864  1.0000
  S   S194      1.0  0.02638  0.72293  0.64554  1.0000
  H   H1558     1.0  0.28640  0.72360  0.92297  1.0000
  H   H1559     1.0  0.13064  0.70836  0.81392  1.0000
  C   C882      1.0  0.11119  0.53873  0.87843  1.0000
  H   H1560     1.0  0.06867  0.53928  0.74814  1.0000
  H   H1561     1.0  0.09873  0.53302  0.86102  1.0000
  H   H1562     1.0  0.15177  0.73293  0.84544  1.0000
  H   H1563     1.0  0.11992  0.68039  0.96012  1.0000
  C   C883      1.0  0.20908  0.69826  0.82725  1.0000
  H   H1564     1.0  0.12932  0.68621  0.79982  1.0000
  N   N48       1.0  0.16326  0.71786  0.81371  1.0000
  H   H1565     1.0  0.04120  0.64867  0.70741  1.0000
  C   C884      1.0  0.08938  0.57795  0.82564  1.0000
  Fe  Fe91      1.0  0.06653  0.49130  0.85160  1.0000
  H   H1566     1.0  0.08608  0.56718  0.75108  1.0000
  H   H1567     1.0  0.33784  0.68489  0.89907  1.0000
  H   H1568     1.0  0.10409  0.55134  0.95409  1.0000
  C   C885      1.0  0.00325  0.67993  0.77517  1.0000
  H   H1569     1.0  0.07296  0.60351  0.97464  1.0000
  H   H1570     1.0  0.14415  0.71117  0.79209  1.0000
  C   C886      1.0  0.26002  0.72747  0.88454  1.0000
  H   H1571     1.0  0.16871  0.71837  0.94524  1.0000
  C   C887      1.0  0.04780  0.59864  0.95287  1.0000
  H   H1572     1.0  0.05899  0.68310  0.73650  1.0000
  H   H1573     1.0  0.12094  0.54495  0.86781  1.0000
  H   H1574     1.0  0.04701  0.54737  0.96383  1.0000
  H   H1575     1.0  0.08953  0.50528  0.78396  1.0000
  C   C888      1.0  0.04383  0.60575  0.93463  1.0000
  H   H1576     1.0  0.09064  0.55494  0.86475  1.0000
  H   H1577     1.0  0.12137  0.68825  0.90661  1.0000
  C   C889      1.0  0.03052  0.68625  0.71366  1.0000
  H   H1578     1.0  0.17255  0.70559  0.83760  1.0000
  C   C890      1.0  0.00268  0.62189  0.69373  1.0000
  H   H1579     1.0  0.17102  0.69354  0.80464  1.0000
  C   C891      1.0  0.09972  0.53615  0.77100  1.0000
  H   H1580     1.0  0.09800  0.53785  0.90496  1.0000
  H   H1581     1.0  0.17360  0.59487  0.96747  1.0000
  C   C892      1.0  0.25749  0.73262  0.83694  1.0000
  H   H1582     1.0  0.07475  0.68392  0.74722  1.0000
  C   C893      1.0  0.17745  0.71288  0.82413  1.0000
  H   H1583     1.0  0.10770  0.50513  0.75621  1.0000
  C   C894      1.0  0.14626  0.72847  0.82274  1.0000
  H   H1584     1.0  0.11710  0.52446  0.88197  1.0000
  H   H1585     1.0  0.03416  0.52207  0.96664  1.0000
  H   H1586     1.0  0.01188  0.66159  0.69000  1.0000
  C   C895      1.0  0.04345  0.49254  0.90930  1.0000
  H   H1587     1.0  0.17204  0.63303  0.94813  1.0000
  H   H1588     1.0  0.07117  0.51079  0.91869  1.0000
  C   C896      1.0  0.99590  0.58763  0.82923  1.0000
  H   H1589     1.0  0.02943  0.61140  0.93555  1.0000
  H   H1590     1.0  0.05126  0.61608  0.92694  1.0000
  H   H1591     1.0  0.04787  0.59494  0.92754  1.0000
  H   H1592     1.0  0.22169  0.68994  0.82155  1.0000
  H   H1593     1.0  0.33096  0.70740  0.95448  1.0000
  S   S195      1.0  0.07637  0.50994  0.86012  1.0000
  H   H1594     1.0  0.13055  0.65774  0.96634  1.0000
  H   H1595     1.0  0.07484  0.58417  0.72535  1.0000
  C   C897      1.0  0.17841  0.64542  0.91420  1.0000
  H   H1596     1.0  0.15313  0.67889  0.79513  1.0000
  H   H1597     1.0  0.18050  0.72459  0.82606  1.0000
  H   H1598     1.0  0.05668  0.71529  0.72380  1.0000
  H   H1599     1.0  0.11760  0.53799  0.82664  1.0000
  H   H1600     1.0  0.08544  0.65462  0.78070  1.0000
  C   C898      1.0  0.11281  0.52263  0.78169  1.0000
  H   H1601     1.0  0.10922  0.57050  0.91446  1.0000
  H   H1602     1.0  0.08108  0.55200  0.95644  1.0000
  H   H1603     1.0  0.10956  0.49135  0.73231  1.0000
  N   N49       1.0  0.05531  0.66889  0.76344  1.0000
  H   H1604     1.0  0.25006  0.72887  0.82948  1.0000
  C   C899      1.0  0.16934  0.72769  0.79527  1.0000
  C   C900      1.0  0.16006  0.62616  0.91353  1.0000
  H   H1605     1.0  0.07100  0.71631  0.73694  1.0000
  C   C901      1.0  0.09563  0.56030  0.82467  1.0000
  H   H1606     1.0  0.14160  0.71059  0.90906  1.0000
  H   H1607     1.0  0.09458  0.60011  0.83133  1.0000
  C   C902      1.0  0.05793  0.66941  0.78088  1.0000
  C   C903      1.0  0.12398  0.67740  0.91801  1.0000
  C   C904      1.0  0.14257  0.66621  0.91342  1.0000
  C   C905      1.0  0.12930  0.56277  0.88694  1.0000
  C   C906      1.0  0.06802  0.50731  0.77290  1.0000
  H   H1608     1.0  0.26856  0.72140  0.84006  1.0000
  H   H1609     1.0  0.14055  0.67570  0.81747  1.0000
  C   C907      1.0  0.15950  0.70094  0.81284  1.0000
  H   H1610     1.0  0.13815  0.71959  0.83261  1.0000
  C   C908      1.0  0.07721  0.66783  0.78209  1.0000
  C   C909      1.0  0.12304  0.56044  0.83162  1.0000
  H   H1611     1.0  0.09362  0.53111  0.72491  1.0000
  H   H1612     1.0  0.15752  0.69215  0.82614  1.0000
  N   N50       1.0  0.08945  0.52862  0.76305  1.0000
  C   C910      1.0  0.09960  0.58662  0.83025  1.0000
  C   C911      1.0  0.38092  0.72155  0.89517  1.0000
  H   H1613     1.0  0.04900  0.73008  0.73845  1.0000
  C   C912      1.0  0.27930  0.69779  0.95751  1.0000
  H   H1614     1.0  0.10535  0.51635  0.79443  1.0000
  H   H1615     1.0  0.06185  0.59138  0.95132  1.0000
  H   H1616     1.0  0.48276  0.70464  0.96273  1.0000
  H   H1617     1.0  0.20525  0.68892  0.96531  1.0000
  H   H1618     1.0  0.00206  0.68748  0.76176  1.0000
  H   H1619     1.0  0.02899  0.49803  0.91060  1.0000
  Fe  Fe92      1.0  0.10211  0.49003  0.85785  1.0000
  H   H1620     1.0  0.15846  0.73182  0.78812  1.0000
  H   H1621     1.0  0.36745  0.72442  0.90357  1.0000
  C   C913      1.0  0.14389  0.67567  0.97009  1.0000
  C   C914      1.0  0.10840  0.48568  0.89836  1.0000
  H   H1622     1.0  0.00941  0.58858  0.68666  1.0000
  H   H1623     1.0  0.11884  0.72097  0.91742  1.0000
  C   C915      1.0  0.13281  0.72241  0.91360  1.0000
  S   S196      1.0  0.36011  0.72984  0.96184  1.0000
  H   H1624     1.0  0.37958  0.72339  0.88157  1.0000
  C   C916      1.0  0.12706  0.67071  0.96979  1.0000
  C   C917      1.0  0.27734  0.73055  0.87986  1.0000
  C   C918      1.0  0.13835  0.72511  0.92893  1.0000
  C   C919      1.0  0.29370  0.73214  0.92532  1.0000
  H   H1625     1.0  0.48842  0.73361  0.95453  1.0000
  C   C920      1.0  0.13997  0.69400  0.97444  1.0000
  H   H1626     1.0  0.04394  0.48387  0.97241  1.0000
  C   C921      1.0  0.05119  0.76764  0.21913  1.0000
  S   S197      1.0  0.04987  0.75317  0.20721  1.0000
  H   H1627     1.0  0.23040  0.85074  0.00857  1.0000
  H   H1628     1.0  0.22392  0.79536  0.00919  1.0000
  H   H1629     1.0  0.01666  0.74734  0.26193  1.0000
  H   H1630     1.0  0.37556  0.83463  0.00419  1.0000
  C   C922      1.0  0.02488  0.83799  0.29846  1.0000
  H   H1631     1.0  0.45359  0.92020  0.00293  1.0000
  H   H1632     1.0  0.41049  0.81365  0.01509  1.0000
  C   C923      1.0  0.03656  0.77419  0.23132  1.0000
  S   S198      1.0  0.47452  0.80413  0.11345  1.0000
  H   H1633     1.0  0.05043  0.86840  0.29105  1.0000
  S   S199      1.0  0.47481  0.84462  0.07336  1.0000
  H   H1634     1.0  0.39810  0.77471  0.00321  1.0000
  H   H1635     1.0  0.26838  0.91060  0.01011  1.0000
  H   H1636     1.0  0.02413  0.77044  0.23357  1.0000
  H   H1637     1.0  0.18543  0.90747  0.05324  1.0000
  Fe  Fe93      1.0  0.37313  0.85867  0.06804  1.0000
  S   S200      1.0  0.36121  0.86221  0.09552  1.0000
  S   S201      1.0  0.38621  0.87698  0.04524  1.0000
  Fe  Fe94      1.0  0.37623  0.83437  0.10317  1.0000
  S   S202      1.0  0.46877  0.75107  0.01430  1.0000
  C   C924      1.0  0.42727  0.88324  0.05627  1.0000
  C   C925      1.0  0.18554  0.85805  0.16104  1.0000
  S   S203      1.0  0.38972  0.83194  0.07588  1.0000
  S   S204      1.0  0.35080  0.84876  0.06562  1.0000
  Fe  Fe95      1.0  0.33998  0.96634  0.10724  1.0000
  H   H1638     1.0  0.10660  0.79056  0.14707  1.0000
  S   S205      1.0  0.32165  0.95271  0.12971  1.0000
  Fe  Fe96      1.0  0.37911  0.96636  0.09186  1.0000
  C   C926      1.0  0.38878  0.83411  0.00626  1.0000
  S   S206      1.0  0.40732  0.95416  0.09480  1.0000
  C   C927      1.0  0.44978  0.75605  0.10633  1.0000
  H   H1639     1.0  0.47810  0.75315  0.09549  1.0000
  Fe  Fe97      1.0  0.35531  0.96560  0.06914  1.0000
  S   S207      1.0  0.35647  0.95751  0.04472  1.0000
  H   H1640     1.0  0.48578  0.80961  0.06391  1.0000
  S   S208      1.0  0.36230  0.94787  0.09375  1.0000
  H   H1641     1.0  0.08573  0.78563  0.29890  1.0000
  H   H1642     1.0  0.17131  0.78720  0.18740  1.0000
  Fe  Fe98      1.0  0.36634  0.82217  0.07612  1.0000
  H   H1643     1.0  0.28519  0.84406  0.05174  1.0000
  H   H1644     1.0  0.38776  0.77920  0.09712  1.0000
  Fe  Fe99      1.0  0.09197  0.84466  0.25237  1.0000
  C   C928      1.0  0.19408  0.77389  0.04083  1.0000
  C   C929      1.0  0.46849  0.75514  0.10788  1.0000
  H   H1645     1.0  0.49169  0.94245  0.08364  1.0000
  H   H1646     1.0  0.24081  0.93951  0.07599  1.0000
  H   H1647     1.0  0.25865  0.93351  0.00970  1.0000
  C   C930      1.0  0.11628  0.73576  0.30824  1.0000
  H   H1648     1.0  0.22187  0.85027  0.14712  1.0000
  S   S209      1.0  0.19259  0.87312  0.09994  1.0000
  H   H1649     1.0  0.02154  0.88944  0.26766  1.0000
  H   H1650     1.0  0.01182  0.83908  0.29560  1.0000
  H   H1651     1.0  0.12380  0.80797  0.12952  1.0000
  C   C931      1.0  0.30579  0.74977  0.07461  1.0000
  Fe  Fe100     1.0  0.21628  0.94294  0.12883  1.0000
  S   S210      1.0  0.20506  0.95870  0.14964  1.0000
  S   S211      1.0  0.22381  0.91336  0.13598  1.0000
  S   S212      1.0  0.99814  0.75360  0.22831  1.0000
  C   C932      1.0  0.01962  0.75052  0.30178  1.0000
  Fe  Fe101     1.0  0.22391  0.97579  0.13296  1.0000
  Fe  Fe102     1.0  0.06536  0.97870  0.26264  1.0000
  S   S213      1.0  0.19688  0.95820  0.11200  1.0000
  S   S214      1.0  0.23701  0.95846  0.11397  1.0000
  H   H1652     1.0  0.31722  0.92026  0.12593  1.0000
  H   H1653     1.0  0.37654  0.85398  0.02173  1.0000
  S   S215      1.0  0.08491  0.86707  0.26588  1.0000
  C   C933      1.0  0.34132  0.76305  0.08900  1.0000
  N   N51       1.0  0.02980  0.85570  0.29202  1.0000
  Fe  Fe103     1.0  0.06787  0.96522  0.23047  1.0000
  S   S216      1.0  0.08739  0.96246  0.24635  1.0000
  S   S217      1.0  0.06673  0.94331  0.21937  1.0000
  C   C934      1.0  0.29921  0.78775  0.05894  1.0000
  H   H1654     1.0  0.26253  0.77349  0.00400  1.0000
  H   H1655     1.0  0.48324  0.81078  0.98199  1.0000
  C   C935      1.0  0.41938  0.82047  0.97936  1.0000
  H   H1656     1.0  0.14000  0.80701  0.14128  1.0000
  H   H1657     1.0  0.42936  0.79030  0.00280  1.0000
  C   C936      1.0  0.08110  0.88813  0.25240  1.0000
  C   C937      1.0  0.08005  0.89051  0.23508  1.0000
  C   C938      1.0  0.07566  0.90753  0.22499  1.0000
  C   C939      1.0  0.07263  0.92218  0.23209  1.0000
  C   C940      1.0  0.07422  0.91980  0.24925  1.0000
  C   C941      1.0  0.07836  0.90278  0.25940  1.0000
  H   H1658     1.0  0.08223  0.87927  0.22956  1.0000
  H   H1659     1.0  0.07444  0.90935  0.21170  1.0000
  H   H1660     1.0  0.07182  0.93105  0.25482  1.0000
  H   H1661     1.0  0.07929  0.90093  0.27273  1.0000
  H   H1662     1.0  0.08397  0.95876  0.18198  1.0000
  C   C942      1.0  0.39293  0.80830  0.98382  1.0000
  S   S218      1.0  0.04532  0.97902  0.24827  1.0000
  N   N52       1.0  0.42324  0.97688  0.13332  1.0000
  S   S219      1.0  0.37023  0.75028  0.99623  1.0000
  H   H1663     1.0  0.46914  0.76744  0.11087  1.0000
  H   H1664     1.0  0.06797  0.75751  0.29502  1.0000
  H   H1665     1.0  0.25702  0.79625  0.99509  1.0000
  H   H1666     1.0  0.33290  0.77122  0.09838  1.0000
  H   H1667     1.0  0.46737  0.96472  0.07786  1.0000
  C   C943      1.0  0.20169  0.88414  0.10967  1.0000
  C   C944      1.0  0.21698  0.87597  0.11621  1.0000
  C   C945      1.0  0.22379  0.88505  0.12420  1.0000
  C   C946      1.0  0.21537  0.90236  0.12557  1.0000
  C   C947      1.0  0.20024  0.91056  0.11879  1.0000
  C   C948      1.0  0.19348  0.90152  0.11077  1.0000
  H   H1668     1.0  0.22366  0.86273  0.11499  1.0000
  H   H1669     1.0  0.23563  0.87870  0.12926  1.0000
  H   H1670     1.0  0.19346  0.92373  0.12006  1.0000
  H   H1671     1.0  0.18166  0.90790  0.10569  1.0000
  H   H1672     1.0  0.42569  0.86956  0.05869  1.0000
  H   H1673     1.0  0.04090  0.79515  0.29178  1.0000
  H   H1674     1.0  0.29746  0.78066  0.04995  1.0000
  Fe  Fe104     1.0  0.49236  0.75461  0.99256  1.0000
  N   N53       1.0  0.31281  0.76135  0.08140  1.0000
  H   H1675     1.0  0.22936  0.84041  0.03138  1.0000
  H   H1676     1.0  0.02023  0.88096  0.29924  1.0000
  C   C949      1.0  0.38117  0.77907  0.12438  1.0000
  H   H1677     1.0  0.36484  0.76032  0.09831  1.0000
  H   H1678     1.0  0.04428  0.85213  0.26605  1.0000
  H   H1679     1.0  0.45067  0.91741  0.10678  1.0000
  H   H1680     1.0  0.23513  0.77355  0.03917  1.0000
  H   H1681     1.0  0.25430  0.86071  0.05409  1.0000
  C   C950      1.0  0.22846  0.88796  0.05978  1.0000
  C   C951      1.0  0.45458  0.84631  0.13001  1.0000
  H   H1682     1.0  0.21175  0.87713  0.16219  1.0000
  H   H1683     1.0  0.46344  0.85535  0.12791  1.0000
  Fe  Fe105     1.0  0.32234  0.74258  0.01732  1.0000
  H   H1684     1.0  0.25581  0.84072  0.11057  1.0000
  H   H1685     1.0  0.28845  0.85401  0.06730  1.0000
  H   H1686     1.0  0.23801  0.81839  0.15109  1.0000
  H   H1687     1.0  0.19449  0.81543  0.20453  1.0000
  H   H1688     1.0  0.25229  0.83348  0.14608  1.0000
  S   S220      1.0  0.13217  0.78843  0.27315  1.0000
  H   H1689     1.0  0.15660  0.86153  0.16919  1.0000
  H   H1690     1.0  0.23832  0.91523  0.02944  1.0000
  C   C952      1.0  0.44336  0.92754  0.99523  1.0000
  C   C953      1.0  0.29905  0.96302  0.13216  1.0000
  H   H1691     1.0  0.40353  0.74684  0.05739  1.0000
  C   C954      1.0  0.48462  0.91956  0.08166  1.0000
  C   C955      1.0  0.15672  0.97750  0.17547  1.0000
  C   C956      1.0  0.26816  0.96079  0.14239  1.0000
  C   C957      1.0  0.28629  0.95285  0.14019  1.0000
  C   C958      1.0  0.43015  0.97448  0.02814  1.0000
  H   H1692     1.0  0.28690  0.78942  0.06920  1.0000
  H   H1693     1.0  0.25838  0.95286  0.14856  1.0000
  H   H1694     1.0  0.13235  0.79862  0.17095  1.0000
  H   H1695     1.0  0.38868  0.85808  0.14906  1.0000
  C   C959      1.0  0.32324  0.90762  0.12194  1.0000
  S   S221      1.0  0.20273  0.75568  0.99975  1.0000
  C   C960      1.0  0.21135  0.90265  0.05894  1.0000
  H   H1696     1.0  0.21405  0.91507  0.04997  1.0000
  C   C961      1.0  0.37822  0.89926  0.04553  1.0000
  C   C962      1.0  0.37120  0.90480  0.06129  1.0000
  C   C963      1.0  0.36478  0.92275  0.06112  1.0000
  C   C964      1.0  0.36511  0.93510  0.04525  1.0000
  C   C965      1.0  0.37225  0.92955  0.02953  1.0000
  C   C966      1.0  0.37903  0.91167  0.02968  1.0000
  H   H1697     1.0  0.37085  0.89528  0.07356  1.0000
  H   H1698     1.0  0.35935  0.92702  0.07322  1.0000
  H   H1699     1.0  0.37254  0.93907  0.01723  1.0000
  H   H1700     1.0  0.38453  0.90740  0.01748  1.0000
  C   C967      1.0  0.28532  0.76185  0.12933  1.0000
  C   C968      1.0  0.40546  0.97459  0.13262  1.0000
  C   C969      1.0  0.38595  0.84099  0.02267  1.0000
  C   C970      1.0  0.48861  0.78396  0.02964  1.0000
  C   C971      1.0  0.44106  0.95984  0.08403  1.0000
  H   H1701     1.0  0.31502  0.74657  0.06245  1.0000
  H   H1702     1.0  0.44532  0.94594  0.08902  1.0000
  C   C972      1.0  0.26401  0.92079  0.01798  1.0000
  Fe  Fe106     1.0  0.35294  0.73933  0.98665  1.0000
  H   H1703     1.0  0.14400  0.82764  0.11294  1.0000
  H   H1704     1.0  0.42689  0.84748  0.13317  1.0000
  H   H1705     1.0  0.27563  0.92220  0.02185  1.0000
  H   H1706     1.0  0.38046  0.83184  0.03456  1.0000
  C   C973      1.0  0.43593  0.85676  0.12832  1.0000
  C   C974      1.0  0.42752  0.81159  0.04642  1.0000
  C   C975      1.0  0.45130  0.80877  0.11573  1.0000
  C   C976      1.0  0.44078  0.80289  0.13200  1.0000
  C   C977      1.0  0.42225  0.80727  0.13459  1.0000
  C   C978      1.0  0.41402  0.81734  0.12090  1.0000
  C   C979      1.0  0.42450  0.82287  0.10443  1.0000
  C   C980      1.0  0.44313  0.81854  0.10185  1.0000
  H   H1707     1.0  0.44694  0.79530  0.14277  1.0000
  H   H1708     1.0  0.41424  0.80296  0.14735  1.0000
  H   H1709     1.0  0.41829  0.83068  0.09377  1.0000
  H   H1710     1.0  0.45110  0.82261  0.08908  1.0000
  C   C981      1.0  0.00151  0.73577  0.28661  1.0000
  H   H1711     1.0  0.06674  0.78885  0.15335  1.0000
  H   H1712     1.0  0.48110  0.77960  0.07356  1.0000
  H   H1713     1.0  0.23138  0.77176  0.01369  1.0000
  H   H1714     1.0  0.28686  0.75365  0.14243  1.0000
  H   H1715     1.0  0.05121  0.82032  0.29400  1.0000
  C   C982      1.0  0.30148  0.79992  0.00608  1.0000
  H   H1716     1.0  0.10085  0.95548  0.16245  1.0000
  H   H1717     1.0  0.47373  0.92703  0.07547  1.0000
  C   C983      1.0  0.35745  0.75171  0.09619  1.0000
  H   H1718     1.0  0.19494  0.89347  0.19435  1.0000
  H   H1719     1.0  0.15607  0.97286  0.20297  1.0000
  C   C984      1.0  0.04268  0.93250  0.29559  1.0000
  H   H1720     1.0  0.23398  0.92625  0.09741  1.0000
  H   H1721     1.0  0.29854  0.81153  0.01183  1.0000
  H   H1722     1.0  0.08404  0.77969  0.27481  1.0000
  C   C985      1.0  0.13316  0.74357  0.98780  1.0000
  C   C986      1.0  0.09161  0.89558  0.30716  1.0000
  H   H1723     1.0  0.08724  0.74071  0.29350  1.0000
  H   H1724     1.0  0.27278  0.76080  0.12692  1.0000
  C   C987      1.0  0.32844  0.90331  0.04943  1.0000
  H   H1725     1.0  0.26593  0.87854  0.07605  1.0000
  H   H1726     1.0  0.24463  0.77334  0.98196  1.0000
  H   H1727     1.0  0.06427  0.78089  0.30820  1.0000
  S   S222      1.0  0.48222  0.75428  0.05452  1.0000
  C   C988      1.0  0.24905  0.77427  0.03787  1.0000
  H   H1728     1.0  0.37990  0.95750  0.13172  1.0000
  H   H1729     1.0  0.08844  0.80199  0.19152  1.0000
  H   H1730     1.0  0.39881  0.75895  0.08297  1.0000
  H   H1731     1.0  0.44429  0.91550  0.13006  1.0000
  H   H1732     1.0  0.40625  0.88112  0.13266  1.0000
  H   H1733     1.0  0.43507  0.95584  0.11961  1.0000
  H   H1734     1.0  0.43452  0.85591  0.10279  1.0000
  H   H1735     1.0  0.23731  0.79701  0.97757  1.0000
  H   H1736     1.0  0.37307  0.85580  0.13824  1.0000
  H   H1737     1.0  0.02081  0.85828  0.26857  1.0000
  H   H1738     1.0  0.27602  0.96473  0.10468  1.0000
  H   H1739     1.0  0.09481  0.97622  0.16887  1.0000
  H   H1740     1.0  0.37240  0.87707  0.14133  1.0000
  H   H1741     1.0  0.14691  0.77112  0.19071  1.0000
  H   H1742     1.0  0.28822  0.78631  0.99658  1.0000
  Fe  Fe107     1.0  0.48863  0.74263  0.03109  1.0000
  C   C989      1.0  0.03815  0.82271  0.29076  1.0000
  C   C990      1.0  0.23460  0.78430  0.00527  1.0000
  H   H1743     1.0  0.06958  0.82250  0.16982  1.0000
  H   H1744     1.0  0.19610  0.80098  0.03274  1.0000
  H   H1745     1.0  0.43184  0.86584  0.13725  1.0000
  Fe  Fe108     1.0  0.18451  0.74764  0.98857  1.0000
  H   H1746     1.0  0.28585  0.76926  0.09551  1.0000
  N   N54       1.0  0.25410  0.78936  0.02327  1.0000
  H   H1747     1.0  0.30177  0.74161  0.11611  1.0000
  H   H1748     1.0  0.05933  0.81991  0.20195  1.0000
  H   H1749     1.0  0.09530  0.77160  0.17487  1.0000
  H   H1750     1.0  0.46017  0.83810  0.12018  1.0000
  H   H1751     1.0  0.08603  0.77159  0.14837  1.0000
  C   C991      1.0  0.30114  0.75554  0.11536  1.0000
  C   C992      1.0  0.39303  0.78307  0.10618  1.0000
  C   C993      1.0  0.42820  0.93902  0.00582  1.0000
  H   H1752     1.0  0.11718  0.87291  0.28793  1.0000
  N   N55       1.0  0.42103  0.96540  0.02058  1.0000
  H   H1753     1.0  0.03807  0.89658  0.23730  1.0000
  C   C994      1.0  0.43500  0.95261  0.01088  1.0000
  C   C995      1.0  0.40864  0.95605  0.03529  1.0000
  H   H1754     1.0  0.30867  0.78830  0.01431  1.0000
  C   C996      1.0  0.31548  0.77738  0.06695  1.0000
  H   H1755     1.0  0.04916  0.87390  0.23826  1.0000
  C   C997      1.0  0.41746  0.94200  0.04940  1.0000
  H   H1756     1.0  0.41281  0.74847  0.02089  1.0000
  C   C998      1.0  0.41495  0.74564  0.06307  1.0000
  C   C999      1.0  0.08807  0.75955  0.26124  1.0000
  H   H1757     1.0  0.06920  0.76759  0.16799  1.0000
  C   C1000     1.0  0.40414  0.93181  0.06220  1.0000
  H   H1758     1.0  0.27498  0.97664  0.08271  1.0000
  C   C1001     1.0  0.07020  0.92335  0.30835  1.0000
  H   H1759     1.0  0.44236  0.95982  0.99857  1.0000
  H   H1760     1.0  0.44526  0.94511  0.01856  1.0000
  H   H1761     1.0  0.40067  0.95017  0.03025  1.0000
  H   H1762     1.0  0.39864  0.96559  0.04234  1.0000
  S   S223      1.0  0.47546  0.89052  0.07936  1.0000
  C   C1002     1.0  0.03373  0.87986  0.26329  1.0000
  C   C1003     1.0  0.06506  0.97785  0.30569  1.0000
  H   H1763     1.0  0.40829  0.77287  0.06302  1.0000
  H   H1764     1.0  0.19174  0.77363  0.02853  1.0000
  C   C1004     1.0  0.43654  0.95995  0.13095  1.0000
  H   H1765     1.0  0.42223  0.94843  0.05699  1.0000
  H   H1766     1.0  0.42884  0.93242  0.04371  1.0000
  H   H1767     1.0  0.43092  0.75814  0.01893  1.0000
  H   H1768     1.0  0.14708  0.76721  0.30179  1.0000
  C   C1005     1.0  0.09678  0.96177  0.17381  1.0000
  H   H1769     1.0  0.29289  0.75673  0.07096  1.0000
  C   C1006     1.0  0.03209  0.86062  0.27235  1.0000
  H   H1770     1.0  0.33933  0.74610  0.07384  1.0000
  H   H1771     1.0  0.25743  0.76168  0.03474  1.0000
  C   C1007     1.0  0.09063  0.76557  0.27626  1.0000
  H   H1772     1.0  0.26343  0.77692  0.05626  1.0000
  H   H1773     1.0  0.43389  0.94911  0.14249  1.0000
  H   H1774     1.0  0.42736  0.75349  0.99986  1.0000
  H   H1775     1.0  0.40144  0.92264  0.05595  1.0000
  H   H1776     1.0  0.40949  0.92432  0.07388  1.0000
  H   H1777     1.0  0.39157  0.94092  0.06650  1.0000
  N   N56       1.0  0.12872  0.92721  0.20185  1.0000
  C   C1008     1.0  0.11391  0.93533  0.19215  1.0000
  C   C1009     1.0  0.12935  0.90778  0.20921  1.0000
  C   C1010     1.0  0.12458  0.93587  0.21710  1.0000
  C   C1011     1.0  0.14641  0.93029  0.19055  1.0000
  C   C1012     1.0  0.15254  0.92395  0.17321  1.0000
  C   C1013     1.0  0.11102  0.95540  0.18458  1.0000
  C   C1014     1.0  0.13764  0.92841  0.22963  1.0000
  C   C1015     1.0  0.12414  0.89769  0.19854  1.0000
  C   C1016     1.0  0.12768  0.87798  0.20644  1.0000
  C   C1017     1.0  0.16929  0.93012  0.16202  1.0000
  H   H1778     1.0  0.31954  0.78686  0.07173  1.0000
  C   C1018     1.0  0.13095  0.93642  0.24573  1.0000
  H   H1779     1.0  0.10121  0.93267  0.20094  1.0000
  H   H1780     1.0  0.11577  0.92917  0.18109  1.0000
  H   H1781     1.0  0.14277  0.90077  0.21160  1.0000
  H   H1782     1.0  0.12004  0.90568  0.22225  1.0000
  H   H1783     1.0  0.11093  0.93510  0.22497  1.0000
  H   H1784     1.0  0.12460  0.95010  0.21250  1.0000
  H   H1785     1.0  0.14659  0.94446  0.18751  1.0000
  H   H1786     1.0  0.15713  0.92357  0.19780  1.0000
  H   H1787     1.0  0.14236  0.92905  0.16524  1.0000
  H   H1788     1.0  0.15587  0.90941  0.17599  1.0000
  H   H1789     1.0  0.10645  0.96271  0.19520  1.0000
  H   H1790     1.0  0.12336  0.95892  0.17589  1.0000
  H   H1791     1.0  0.15075  0.93160  0.22295  1.0000
  H   H1792     1.0  0.13953  0.91397  0.23433  1.0000
  H   H1793     1.0  0.10972  0.90213  0.19874  1.0000
  H   H1794     1.0  0.13140  0.89974  0.18473  1.0000
  H   H1795     1.0  0.14200  0.87256  0.20616  1.0000
  H   H1796     1.0  0.11999  0.87524  0.22015  1.0000
  H   H1797     1.0  0.12344  0.87123  0.19877  1.0000
  H   H1798     1.0  0.18011  0.92557  0.16929  1.0000
  H   H1799     1.0  0.17392  0.92471  0.15007  1.0000
  H   H1800     1.0  0.16652  0.94468  0.15795  1.0000
  C   C1019     1.0  0.12788  0.81526  0.13678  1.0000
  H   H1801     1.0  0.21548  0.83619  0.01974  1.0000
  H   H1802     1.0  0.41285  0.75980  0.11357  1.0000
  H   H1803     1.0  0.12885  0.95096  0.24182  1.0000
  H   H1804     1.0  0.11833  0.93271  0.25359  1.0000
  H   H1805     1.0  0.14088  0.93144  0.25404  1.0000
  C   C1020     1.0  0.16242  0.88248  0.14734  1.0000
  H   H1806     1.0  0.16482  0.87525  0.13691  1.0000
  H   H1807     1.0  0.14831  0.88955  0.14973  1.0000
  H   H1808     1.0  0.17081  0.89232  0.14289  1.0000
  N   N57       1.0  0.31109  0.91945  0.09345  1.0000
  C   C1021     1.0  0.30613  0.93828  0.09531  1.0000
  C   C1022     1.0  0.29578  0.91030  0.10090  1.0000
  C   C1023     1.0  0.28215  0.91563  0.11726  1.0000
  C   C1024     1.0  0.29260  0.95085  0.08454  1.0000
  C   C1025     1.0  0.27064  0.90218  0.12625  1.0000
  C   C1026     1.0  0.28399  0.96772  0.09117  1.0000
  H   H1809     1.0  0.30083  0.93923  0.10913  1.0000
  H   H1810     1.0  0.30632  0.92627  0.06730  1.0000
  H   H1811     1.0  0.28794  0.91237  0.09095  1.0000
  H   H1812     1.0  0.30096  0.89587  0.10418  1.0000
  H   H1813     1.0  0.27327  0.92856  0.11347  1.0000
  H   H1814     1.0  0.28847  0.91682  0.12712  1.0000
  H   H1815     1.0  0.29949  0.95464  0.07066  1.0000
  H   H1816     1.0  0.28193  0.94450  0.08494  1.0000
  H   H1817     1.0  0.31448  0.89825  0.12882  1.0000
  H   H1818     1.0  0.26127  0.90617  0.13803  1.0000
  H   H1819     1.0  0.26286  0.90136  0.11736  1.0000
  H   H1820     1.0  0.27894  0.88899  0.13045  1.0000
  C   C1027     1.0  0.01501  0.86947  0.29969  1.0000
  H   H1821     1.0  0.04503  0.88305  0.26602  1.0000
  C   C1028     1.0  0.23456  0.78453  0.98652  1.0000
  C   C1029     1.0  0.05392  0.79097  0.23764  1.0000
  C   C1030     1.0  0.39914  0.95831  0.14545  1.0000
  C   C1031     1.0  0.43444  0.79443  0.05852  1.0000
  C   C1032     1.0  0.43184  0.88620  0.07201  1.0000
  C   C1033     1.0  0.41884  0.78993  0.99656  1.0000
  H   H1822     1.0  0.47228  0.74394  0.11856  1.0000
  H   H1823     1.0  0.19461  0.88470  0.06146  1.0000
  H   H1824     1.0  0.26004  0.88825  0.03763  1.0000
  C   C1034     1.0  0.32651  0.90967  0.10198  1.0000
  H   H1825     1.0  0.33440  0.89020  0.04623  1.0000
  H   H1826     1.0  0.38660  0.87223  0.11046  1.0000
  H   H1827     1.0  0.46591  0.94021  0.11231  1.0000
  H   H1828     1.0  0.42386  0.96808  0.16079  1.0000
  H   H1829     1.0  0.40372  0.85539  0.11904  1.0000
  H   H1830     1.0  0.07874  0.73709  0.24599  1.0000
  C   C1035     1.0  0.28444  0.79648  0.00444  1.0000
  H   H1831     1.0  0.19667  0.74824  0.08115  1.0000
  H   H1832     1.0  0.28064  0.77646  0.02747  1.0000
  H   H1833     1.0  0.48231  0.94293  0.12184  1.0000
  C   C1036     1.0  0.11642  0.80573  0.30043  1.0000
  H   H1834     1.0  0.41213  0.87221  0.08877  1.0000
  H   H1835     1.0  0.41480  0.89245  0.05348  1.0000
  C   C1037     1.0  0.22875  0.83853  0.01861  1.0000
  H   H1836     1.0  0.14398  0.80453  0.20328  1.0000
  C   C1038     1.0  0.19930  0.79013  0.05923  1.0000
  H   H1837     1.0  0.44573  0.88810  0.12242  1.0000
  H   H1838     1.0  0.39183  0.79750  0.10225  1.0000
  C   C1039     1.0  0.08623  0.78348  0.16918  1.0000
  C   C1040     1.0  0.29965  0.76730  0.09701  1.0000
  H   H1839     1.0  0.38538  0.78372  0.13382  1.0000
  C   C1041     1.0  0.16505  0.79998  0.18078  1.0000
  H   H1840     1.0  0.44434  0.87672  0.07417  1.0000
  H   H1841     1.0  0.21796  0.88237  0.18833  1.0000
  C   C1042     1.0  0.36390  0.79754  0.04971  1.0000
  H   H1842     1.0  0.10082  0.81810  0.18699  1.0000
  C   C1043     1.0  0.28901  0.74199  0.99722  1.0000
  H   H1843     1.0  0.40337  0.97153  0.00296  1.0000
  C   C1044     1.0  0.16655  0.86982  0.16416  1.0000
  H   H1844     1.0  0.20310  0.89531  0.03919  1.0000
  C   C1045     1.0  0.03147  0.80568  0.29804  1.0000
  H   H1845     1.0  0.18513  0.84794  0.15441  1.0000
  H   H1846     1.0  0.31818  0.94391  0.09126  1.0000
  H   H1847     1.0  0.46228  0.75913  0.98086  1.0000
  H   H1848     1.0  0.42686  0.74646  0.05225  1.0000
  C   C1046     1.0  0.19785  0.89714  0.05281  1.0000
  H   H1849     1.0  0.19447  0.86600  0.15116  1.0000
  H   H1850     1.0  0.10179  0.82968  0.14654  1.0000
  H   H1851     1.0  0.31537  0.89269  0.07551  1.0000
  C   C1047     1.0  0.31737  0.91962  0.07414  1.0000
  H   H1852     1.0  0.12804  0.78279  0.16260  1.0000
  H   H1853     1.0  0.34636  0.77203  0.07675  1.0000
  C   C1048     1.0  0.45358  0.97043  0.07767  1.0000
  H   H1854     1.0  0.32979  0.74027  0.09630  1.0000
  C   C1049     1.0  0.42655  0.75904  0.08096  1.0000
  H   H1855     1.0  0.16460  0.87757  0.17400  1.0000
  H   H1856     1.0  0.22984  0.85168  0.16522  1.0000
  H   H1857     1.0  0.24646  0.82123  0.16816  1.0000
  C   C1050     1.0  0.32482  0.90143  0.06918  1.0000
  H   H1858     1.0  0.33100  0.89597  0.10014  1.0000
  H   H1859     1.0  0.25816  0.84799  0.07458  1.0000
  C   C1051     1.0  0.07708  0.82690  0.17667  1.0000
  C   C1052     1.0  0.11271  0.82028  0.15236  1.0000
  C   C1053     1.0  0.26275  0.97902  0.13724  1.0000
  H   H1860     1.0  0.20501  0.90537  0.07213  1.0000
  H   H1861     1.0  0.42650  0.82298  0.05189  1.0000
  H   H1862     1.0  0.17610  0.83064  0.18386  1.0000
  H   H1863     1.0  0.43434  0.89964  0.06843  1.0000
  H   H1864     1.0  0.07123  0.83627  0.20061  1.0000
  C   C1054     1.0  0.22544  0.84304  0.15973  1.0000
  C   C1055     1.0  0.24147  0.82808  0.15608  1.0000
  H   H1865     1.0  0.18928  0.88825  0.16792  1.0000
  H   H1866     1.0  0.32776  0.92748  0.06806  1.0000
  C   C1056     1.0  0.29742  0.81999  0.09351  1.0000
  C   C1057     1.0  0.06727  0.77257  0.21644  1.0000
  H   H1867     1.0  0.40242  0.77929  0.02185  1.0000
  H   H1868     1.0  0.28498  0.86712  0.04622  1.0000
  C   C1058     1.0  0.03675  0.88283  0.24346  1.0000
  H   H1869     1.0  0.03214  0.92765  0.29327  1.0000
  H   H1870     1.0  0.29422  0.97454  0.09099  1.0000
  H   H1871     1.0  0.34712  0.88718  0.12477  1.0000
  H   H1872     1.0  0.34973  0.90930  0.12213  1.0000
  H   H1873     1.0  0.32665  0.77382  0.05603  1.0000
  H   H1874     1.0  0.07601  0.78890  0.17972  1.0000
  C   C1059     1.0  0.30706  0.83127  0.09482  1.0000
  H   H1875     1.0  0.33763  0.89491  0.07307  1.0000
  H   H1876     1.0  0.41811  0.94563  0.99784  1.0000
  C   C1060     1.0  0.34062  0.90014  0.12817  1.0000
  H   H1877     1.0  0.33797  0.91603  0.09566  1.0000
  C   C1061     1.0  0.35379  0.81300  0.04144  1.0000
  H   H1878     1.0  0.10986  0.81622  0.29137  1.0000
  C   C1062     1.0  0.41658  0.88410  0.08849  1.0000
  C   C1063     1.0  0.20969  0.83594  0.17281  1.0000
  C   C1064     1.0  0.20068  0.87961  0.17339  1.0000
  H   H1879     1.0  0.10711  0.77492  0.19407  1.0000
  H   H1880     1.0  0.20693  0.82591  0.16757  1.0000
  C   C1065     1.0  0.19669  0.75971  0.07052  1.0000
  H   H1881     1.0  0.23008  0.91841  0.06729  1.0000
  N   N58       1.0  0.19280  0.84934  0.17728  1.0000
  C   C1066     1.0  0.28112  0.85614  0.05696  1.0000
  H   H1882     1.0  0.44954  0.93568  0.98287  1.0000
  H   H1883     1.0  0.22901  0.90146  0.08620  1.0000
  H   H1884     1.0  0.23213  0.88306  0.04755  1.0000
  H   H1885     1.0  0.22416  0.87691  0.07037  1.0000
  H   H1886     1.0  0.24564  0.92679  0.04117  1.0000
  H   H1887     1.0  0.25572  0.93095  0.09070  1.0000
  C   C1067     1.0  0.12180  0.79189  0.17167  1.0000
  H   H1888     1.0  0.33794  0.91196  0.04255  1.0000
  H   H1889     1.0  0.21485  0.82865  0.18471  1.0000
  H   H1890     1.0  0.39519  0.84330  0.99509  1.0000
  C   C1068     1.0  0.19577  0.86238  0.18566  1.0000
  C   C1069     1.0  0.20594  0.89004  0.18330  1.0000
  H   H1891     1.0  0.33787  0.89837  0.14258  1.0000
  H   H1892     1.0  0.09598  0.90204  0.29320  1.0000
  H   H1893     1.0  0.31595  0.90883  0.04467  1.0000
  C   C1070     1.0  0.23813  0.90615  0.07378  1.0000
  C   C1071     1.0  0.24968  0.91598  0.03413  1.0000
  H   H1894     1.0  0.03626  0.94300  0.30302  1.0000
  C   C1072     1.0  0.42304  0.96725  0.08441  1.0000
  H   H1895     1.0  0.36724  0.78598  0.12396  1.0000
  C   C1073     1.0  0.24842  0.75718  0.06915  1.0000
  N   N59       1.0  0.24426  0.89246  0.06286  1.0000
  C   C1074     1.0  0.24532  0.92804  0.08615  1.0000
  C   C1075     1.0  0.11391  0.86732  0.30220  1.0000
  H   H1896     1.0  0.30167  0.74556  0.99197  1.0000
  C   C1076     1.0  0.14855  0.97857  0.19287  1.0000
  C   C1077     1.0  0.25048  0.77461  0.05634  1.0000
  H   H1897     1.0  0.39935  0.95800  0.15905  1.0000
  C   C1078     1.0  0.02317  0.75267  0.28358  1.0000
  H   H1898     1.0  0.40769  0.94599  0.14180  1.0000
  C   C1079     1.0  0.17948  0.83940  0.19017  1.0000
  C   C1080     1.0  0.25279  0.91147  0.07880  1.0000
  C   C1081     1.0  0.26110  0.85978  0.06446  1.0000
  C   C1082     1.0  0.48409  0.78538  0.05976  1.0000
  C   C1083     1.0  0.30170  0.80596  0.04835  1.0000
  S   S224      1.0  0.39068  0.82315  0.12522  1.0000
  H   H1899     1.0  0.18369  0.86668  0.19548  1.0000
  Fe  Fe109     1.0  0.20439  0.84428  0.10208  1.0000
  H   H1900     1.0  0.02544  0.88052  0.23982  1.0000
  H   H1901     1.0  0.24584  0.87190  0.08616  1.0000
  H   H1902     1.0  0.44864  0.86916  0.10218  1.0000
  N   N60       1.0  0.40783  0.80823  0.99166  1.0000
  Fe  Fe110     1.0  0.33998  0.85005  0.09379  1.0000
  H   H1903     1.0  0.16679  0.84862  0.19425  1.0000
  H   H1904     1.0  0.20628  0.85591  0.19327  1.0000
  C   C1084     1.0  0.25434  0.87602  0.07306  1.0000
  C   C1085     1.0  0.25662  0.89814  0.04577  1.0000
  H   H1905     1.0  0.25831  0.90084  0.08906  1.0000
  H   H1906     1.0  0.26374  0.91422  0.06744  1.0000
  C   C1086     1.0  0.19651  0.78942  0.04327  1.0000
  H   H1907     1.0  0.42339  0.89758  0.13280  1.0000
  C   C1087     1.0  0.18519  0.82784  0.20721  1.0000
  H   H1908     1.0  0.15991  0.83476  0.22512  1.0000
  C   C1088     1.0  0.48501  0.77602  0.04747  1.0000
  H   H1909     1.0  0.03306  0.75989  0.27534  1.0000
  H   H1910     1.0  0.42222  0.93007  0.01760  1.0000
  H   H1911     1.0  0.13252  0.75865  0.20752  1.0000
  H   H1912     1.0  0.39867  0.84263  0.02410  1.0000
  C   C1089     1.0  0.46814  0.94253  0.12420  1.0000
  H   H1913     1.0  0.35035  0.82476  0.04640  1.0000
  S   S225      1.0  0.21890  0.82762  0.12283  1.0000
  H   H1914     1.0  0.12160  0.84007  0.11819  1.0000
  H   H1915     1.0  0.23544  0.75437  0.07004  1.0000
  C   C1090     1.0  0.16930  0.82285  0.22132  1.0000
  H   H1916     1.0  0.43964  0.96461  0.03560  1.0000
  C   C1091     1.0  0.48857  0.90121  0.08496  1.0000
  H   H1917     1.0  0.26954  0.89839  0.04801  1.0000
  H   H1918     1.0  0.19183  0.97091  0.18964  1.0000
  Fe  Fe111     1.0  0.02590  0.74090  0.21651  1.0000
  H   H1919     1.0  0.17385  0.81412  0.23311  1.0000
  S   S226      1.0  0.08656  0.81876  0.26862  1.0000
  C   C1092     1.0  0.39430  0.86792  0.12086  1.0000
  H   H1920     1.0  0.19182  0.83471  0.21261  1.0000
  C   C1093     1.0  0.42079  0.75795  0.01224  1.0000
  H   H1921     1.0  0.25917  0.74628  0.06482  1.0000
  H   H1922     1.0  0.07752  0.92920  0.29519  1.0000
  H   H1923     1.0  0.24911  0.75782  0.08233  1.0000
  S   S227      1.0  0.22452  0.83389  0.08017  1.0000
  Fe  Fe112     1.0  0.48815  0.82429  0.09328  1.0000
  H   H1924     1.0  0.16228  0.81575  0.21662  1.0000
  H   H1925     1.0  0.27294  0.86087  0.11295  1.0000
  S   S228      1.0  0.31063  0.86018  0.10325  1.0000
  H   H1926     1.0  0.32129  0.82857  0.09026  1.0000
  C   C1094     1.0  0.29832  0.84601  0.10185  1.0000
  C   C1095     1.0  0.27977  0.84946  0.10750  1.0000
  H   H1927     1.0  0.39065  0.80684  0.01758  1.0000
  C   C1096     1.0  0.27007  0.83808  0.10617  1.0000
  C   C1097     1.0  0.27894  0.82328  0.09914  1.0000
  S   S229      1.0  0.35382  0.82259  0.10415  1.0000
  H   H1928     1.0  0.30440  0.80878  0.08791  1.0000
  H   H1929     1.0  0.34038  0.82522  0.02014  1.0000
  C   C1098     1.0  0.03794  0.78578  0.24056  1.0000
  C   C1099     1.0  0.09681  0.79722  0.15712  1.0000
  S   S230      1.0  0.37197  0.79684  0.06771  1.0000
  H   H1930     1.0  0.14267  0.84568  0.15697  1.0000
  S   S231      1.0  0.26759  0.80868  0.09685  1.0000
  C   C1100     1.0  0.08250  0.75471  0.29415  1.0000
  H   H1931     1.0  0.43684  0.81290  0.03346  1.0000
  C   C1101     1.0  0.09351  0.81249  0.18093  1.0000
  C   C1102     1.0  0.25294  0.78588  0.00645  1.0000
  Fe  Fe113     1.0  0.23776  0.81558  0.10123  1.0000
  S   S232      1.0  0.12055  0.83407  0.24150  1.0000
  S   S233      1.0  0.08240  0.84251  0.22997  1.0000
  C   C1103     1.0  0.34815  0.81326  0.02659  1.0000
  H   H1932     1.0  0.08764  0.80768  0.14975  1.0000
  H   H1933     1.0  0.38167  0.76477  0.12893  1.0000
  H   H1934     1.0  0.10507  0.76415  0.27460  1.0000
  H   H1935     1.0  0.40515  0.89531  0.08627  1.0000
  H   H1936     1.0  0.13702  0.75652  0.18522  1.0000
  S   S234      1.0  0.18682  0.82590  0.10571  1.0000
  C   C1104     1.0  0.36802  0.78229  0.04337  1.0000
  H   H1937     1.0  0.17044  0.97087  0.17221  1.0000
  C   C1105     1.0  0.36223  0.78249  0.02871  1.0000
  C   C1106     1.0  0.40853  0.77600  0.00891  1.0000
  H   H1938     1.0  0.45420  0.83762  0.14324  1.0000
  H   H1939     1.0  0.41678  0.91070  0.10217  1.0000
  Fe  Fe114     1.0  0.20827  0.81378  0.08549  1.0000
  H   H1940     1.0  0.16990  0.82855  0.14130  1.0000
  H   H1941     1.0  0.37583  0.77028  0.04973  1.0000
  S   S235      1.0  0.29463  0.73858  0.02994  1.0000
  H   H1942     1.0  0.42095  0.80236  0.08290  1.0000
  H   H1943     1.0  0.44744  0.79521  0.06000  1.0000
  H   H1944     1.0  0.41429  0.81176  0.04464  1.0000
  H   H1945     1.0  0.08103  0.78809  0.22336  1.0000
  H   H1946     1.0  0.24231  0.82200  0.00048  1.0000
  H   H1947     1.0  0.30067  0.78044  0.09766  1.0000
  Fe  Fe115     1.0  0.07987  0.81532  0.24510  1.0000
  C   C1107     1.0  0.35227  0.79795  0.02031  1.0000
  C   C1108     1.0  0.06440  0.83152  0.19336  1.0000
  Fe  Fe116     1.0  0.20297  0.80824  0.12492  1.0000
  C   C1109     1.0  0.14892  0.83294  0.16369  1.0000
  C   C1110     1.0  0.43960  0.91588  0.11839  1.0000
  H   H1948     1.0  0.22135  0.78346  0.98595  1.0000
  C   C1111     1.0  0.13302  0.83162  0.12380  1.0000
  H   H1949     1.0  0.38316  0.80130  0.99372  1.0000
  H   H1950     1.0  0.20152  0.77562  0.08525  1.0000
  H   H1951     1.0  0.11752  0.82793  0.15877  1.0000
  H   H1952     1.0  0.42831  0.92729  0.11686  1.0000
  C   C1112     1.0  0.44378  0.77216  0.09206  1.0000
  H   H1953     1.0  0.03991  0.82555  0.27640  1.0000
  H   H1954     1.0  0.02654  0.79079  0.24997  1.0000
  H   H1955     1.0  0.08112  0.83912  0.16841  1.0000
  S   S236      1.0  0.20294  0.80987  0.06121  1.0000
  Fe  Fe117     1.0  0.11079  0.82960  0.22028  1.0000
  H   H1956     1.0  0.43652  0.78358  0.05193  1.0000
  H   H1957     1.0  0.24287  0.80835  0.03959  1.0000
  C   C1113     1.0  0.42141  0.79171  0.07660  1.0000
  H   H1958     1.0  0.40795  0.79428  0.07415  1.0000
  H   H1959     1.0  0.27306  0.79785  0.03164  1.0000
  H   H1960     1.0  0.14060  0.74372  0.29240  1.0000
  Fe  Fe118     1.0  0.11453  0.80798  0.25633  1.0000
  H   H1961     1.0  0.05292  0.84209  0.19000  1.0000
  C   C1114     1.0  0.16431  0.82322  0.15476  1.0000
  H   H1962     1.0  0.25623  0.82623  0.01217  1.0000
  Fe  Fe119     1.0  0.48888  0.86269  0.07768  1.0000
  H   H1963     1.0  0.48840  0.77729  0.02005  1.0000
  H   H1964     1.0  0.38516  0.82193  0.98016  1.0000
  H   H1965     1.0  0.44448  0.78414  0.09571  1.0000
  H   H1966     1.0  0.43897  0.75699  0.07074  1.0000
  S   S237      1.0  0.22318  0.79445  0.10495  1.0000
  C   C1115     1.0  0.41095  0.76038  0.07271  1.0000
  H   H1967     1.0  0.31022  0.80266  0.99291  1.0000
  H   H1968     1.0  0.45409  0.77099  0.07992  1.0000
  H   H1969     1.0  0.36579  0.77068  0.02375  1.0000
  C   C1116     1.0  0.24145  0.80600  0.02732  1.0000
  C   C1117     1.0  0.38132  0.86458  0.13847  1.0000
  H   H1970     1.0  0.37595  0.94687  0.15450  1.0000
  S   S238      1.0  0.32876  0.76078  0.99145  1.0000
  H   H1971     1.0  0.41653  0.78005  0.11457  1.0000
  H   H1972     1.0  0.43875  0.90039  0.09344  1.0000
  C   C1118     1.0  0.11876  0.78079  0.19068  1.0000
  S   S239      1.0  0.12219  0.83898  0.19166  1.0000
  C   C1119     1.0  0.14157  0.82629  0.18119  1.0000
  C   C1120     1.0  0.14964  0.80979  0.18979  1.0000
  S   S240      1.0  0.05498  0.80563  0.24946  1.0000
  C   C1121     1.0  0.33078  0.75174  0.08519  1.0000
  C   C1122     1.0  0.13482  0.76587  0.19365  1.0000
  C   C1123     1.0  0.42738  0.89867  0.10465  1.0000
  C   C1124     1.0  0.43390  0.89886  0.12072  1.0000
  H   H1973     1.0  0.39450  0.89513  0.11710  1.0000
  H   H1974     1.0  0.43812  0.88542  0.04457  1.0000
  C   C1125     1.0  0.43540  0.86613  0.10897  1.0000
  C   C1126     1.0  0.12852  0.79128  0.29458  1.0000
  H   H1975     1.0  0.22756  0.80465  0.03010  1.0000
  C   C1127     1.0  0.49228  0.80972  0.03649  1.0000
  N   N61       1.0  0.42569  0.77412  0.08880  1.0000
  S   S241      1.0  0.34487  0.79794  0.00215  1.0000
  C   C1128     1.0  0.17235  0.80666  0.16322  1.0000
  H   H1976     1.0  0.20904  0.90241  0.17436  1.0000
  N   N62       1.0  0.10599  0.80517  0.16577  1.0000
  S   S242      1.0  0.10760  0.80218  0.23396  1.0000
  H   H1977     1.0  0.46539  0.93142  0.13536  1.0000
  H   H1978     1.0  0.11663  0.78924  0.19998  1.0000
  H   H1979     1.0  0.42750  0.74651  0.09096  1.0000
  C   C1129     1.0  0.41260  0.77363  0.10625  1.0000
  N   N63       1.0  0.42104  0.88250  0.10575  1.0000
  C   C1130     1.0  0.40409  0.88228  0.11957  1.0000
  C   C1131     1.0  0.39983  0.81491  0.00829  1.0000
  S   S243      1.0  0.33658  0.75370  0.03005  1.0000
  S   S244      1.0  0.19140  0.79416  0.15202  1.0000
  H   H1980     1.0  0.05055  0.93811  0.28272  1.0000
  C   C1132     1.0  0.06862  0.78430  0.22556  1.0000
  H   H1981     1.0  0.29042  0.93881  0.14470  1.0000
  H   H1982     1.0  0.43816  0.91787  0.99193  1.0000
  C   C1133     1.0  0.04712  0.85526  0.29600  1.0000
  H   H1983     1.0  0.07872  0.76713  0.20741  1.0000
  C   C1134     1.0  0.27295  0.78987  0.02262  1.0000
  C   C1135     1.0  0.19412  0.75896  0.05444  1.0000
  H   H1984     1.0  0.44991  0.74362  0.10315  1.0000
  C   C1136     1.0  0.19940  0.77521  0.07288  1.0000
  Fe  Fe120     1.0  0.34527  0.76989  0.00358  1.0000
  H   H1985     1.0  0.07372  0.76126  0.26197  1.0000
  H   H1986     1.0  0.45913  0.96142  0.14010  1.0000
  H   H1987     1.0  0.23982  0.78508  0.06154  1.0000
  H   H1988     1.0  0.44092  0.75682  0.11934  1.0000
  H   H1989     1.0  0.13764  0.83932  0.13023  1.0000
  H   H1990     1.0  0.00479  0.87470  0.29161  1.0000
  H   H1991     1.0  0.30374  0.81361  0.05667  1.0000
  H   H1992     1.0  0.42485  0.82644  0.98688  1.0000
  H   H1993     1.0  0.09386  0.76757  0.24862  1.0000
  C   C1137     1.0  0.45635  0.95993  0.12813  1.0000
  H   H1994     1.0  0.13891  0.74545  0.99784  1.0000
  C   C1138     1.0  0.07651  0.77757  0.15900  1.0000
  Fe  Fe121     1.0  0.18672  0.97491  0.13197  1.0000
  S   S245      1.0  0.05652  0.97087  0.29190  1.0000
  H   H1995     1.0  0.31333  0.80481  0.03725  1.0000
  C   C1139     1.0  0.48724  0.80233  0.05427  1.0000
  H   H1996     1.0  0.28442  0.77575  0.12931  1.0000
  H   H1997     1.0  0.27742  0.80880  0.99702  1.0000
  C   C1140     1.0  0.24336  0.82307  0.01336  1.0000
  Fe  Fe122     1.0  0.21661  0.97524  0.09891  1.0000
  H   H1998     1.0  0.05822  0.84643  0.28886  1.0000
  H   H1999     1.0  0.28970  0.81324  0.04318  1.0000
  C   C1141     1.0  0.38030  0.95840  0.14491  1.0000
  H   H2000     1.0  0.10807  0.91725  0.30793  1.0000
  C   C1142     1.0  0.13732  0.77807  0.30633  1.0000
  H   H2001     1.0  0.42608  0.78455  0.98487  1.0000
  H   H2002     1.0  0.31328  0.75614  0.11885  1.0000
  H   H2003     1.0  0.37087  0.97051  0.14821  1.0000
  H   H2004     1.0  0.05916  0.90672  0.29870  1.0000
  C   C1143     1.0  0.28272  0.73746  0.01531  1.0000
  C   C1144     1.0  0.13613  0.73475  0.30497  1.0000
  C   C1145     1.0  0.01393  0.74553  0.27598  1.0000
  C   C1146     1.0  0.27883  0.74204  0.98578  1.0000
  H   H2005     1.0  0.10328  0.86003  0.30507  1.0000
  S   S246      1.0  0.35741  0.98341  0.10790  1.0000
  C   C1147     1.0  0.41045  0.97836  0.00796  1.0000
  H   H2006     1.0  0.11173  0.76401  0.29881  1.0000
  H   H2007     1.0  0.13252  0.75567  0.97726  1.0000
  S   S247      1.0  0.25036  0.73634  0.97778  1.0000
  H   H2008     1.0  0.11951  0.74159  0.99399  1.0000
  C   C1148     1.0  0.26252  0.73706  0.99234  1.0000
  H   H2009     1.0  0.46216  0.98249  0.02815  1.0000
  H   H2010     1.0  0.01837  0.80736  0.29508  1.0000
  C   C1149     1.0  0.29364  0.98120  0.12650  1.0000
  H   H2011     1.0  0.49033  0.83018  0.14185  1.0000
  H   H2012     1.0  0.09490  0.74559  0.26165  1.0000
  H   H2013     1.0  0.40558  0.97381  0.11920  1.0000
  C   C1150     1.0  0.05448  0.91741  0.30591  1.0000
  H   H2014     1.0  0.05489  0.74172  0.25076  1.0000
  H   H2015     1.0  0.35327  0.74276  0.10885  1.0000
  H   H2016     1.0  0.12585  0.85785  0.30604  1.0000
  H   H2017     1.0  0.20530  0.97479  0.20183  1.0000
  Fe  Fe123     1.0  0.19432  0.73632  0.02421  1.0000
  H   H2018     1.0  0.08197  0.88802  0.30736  1.0000
  H   H2019     1.0  0.44975  0.98182  0.00389  1.0000
  C   C1151     1.0  0.49259  0.80067  0.02413  1.0000
  C   C1152     1.0  0.19408  0.98093  0.19515  1.0000
  S   S248      1.0  0.19053  0.73942  0.05183  1.0000
  H   H2020     1.0  0.46042  0.97040  0.11690  1.0000
  S   S249      1.0  0.33149  0.98266  0.08265  1.0000
  H   H2021     1.0  0.36646  0.74387  0.08671  1.0000
  S   S250      1.0  0.37363  0.98276  0.06627  1.0000
  H   H2022     1.0  0.43832  0.97848  0.17777  1.0000
  C   C1153     1.0  0.42174  0.98061  0.15087  1.0000
  H   H2023     1.0  0.29051  0.73494  0.09769  1.0000
  H   H2024     1.0  0.42050  0.98151  0.03804  1.0000
  H   H2025     1.0  0.19319  0.79599  0.97640  1.0000
  H   H2026     1.0  0.16692  0.88707  0.43228  1.0000
  C   C1154     1.0  0.07088  0.75899  0.55220  1.0000
  C   C1155     1.0  0.08540  0.76086  0.38621  1.0000
  Fe  Fe124     1.0  0.07298  0.83338  0.53093  1.0000
  S   S251      1.0  0.09834  0.81293  0.53195  1.0000
  S   S252      1.0  0.04647  0.82594  0.54142  1.0000
  Fe  Fe125     1.0  0.09198  0.86283  0.51168  1.0000
  S   S253      1.0  0.11876  0.84496  0.51131  1.0000
  S   S254      1.0  0.09096  0.89072  0.49721  1.0000
  Fe  Fe126     1.0  0.10732  0.82656  0.50406  1.0000
  S   S255      1.0  0.12373  0.81341  0.48195  1.0000
  Fe  Fe127     1.0  0.10720  0.83334  0.53911  1.0000
  S   S256      1.0  0.12397  0.82582  0.55916  1.0000
  S   S257      1.0  0.08125  0.84546  0.50250  1.0000
  S   S258      1.0  0.08114  0.85286  0.54013  1.0000
  Fe  Fe128     1.0  0.05435  0.95682  0.54226  1.0000
  C   C1156     1.0  0.12198  0.77498  0.41826  1.0000
  S   S259      1.0  0.03555  0.94135  0.54153  1.0000
  Fe  Fe129     1.0  0.10699  0.85108  0.36539  1.0000
  S   S260      1.0  0.12407  0.87095  0.35541  1.0000
  C   C1157     1.0  0.11493  0.94417  0.58423  1.0000
  Fe  Fe130     1.0  0.08950  0.82727  0.39743  1.0000
  S   S261      1.0  0.08095  0.81682  0.42639  1.0000
  Fe  Fe131     1.0  0.10264  0.81640  0.36250  1.0000
  S   S262      1.0  0.08138  0.85577  0.38489  1.0000
  S   S263      1.0  0.09571  0.84380  0.34690  1.0000
  N   N64       1.0  0.01776  0.81282  0.44069  1.0000
  S   S264      1.0  0.10422  0.92139  0.40734  1.0000
  C   C1158     1.0  0.10860  0.91919  0.62904  1.0000
  S   S265      1.0  0.03753  0.75778  0.61650  1.0000
  H   H2027     1.0  0.02300  0.83355  0.31287  1.0000
  S   S266      1.0  0.11626  0.82321  0.37940  1.0000
  H   H2028     1.0  0.00924  0.79041  0.43893  1.0000
  H   H2029     1.0  0.09571  0.73913  0.49966  1.0000
  H   H2030     1.0  0.17071  0.91757  0.42725  1.0000
  C   C1159     1.0  0.01760  0.80414  0.41212  1.0000
  H   H2031     1.0  0.04427  0.73969  0.58449  1.0000
  S   S267      1.0  0.09585  0.86314  0.62289  1.0000
  C   C1160     1.0  0.06815  0.77453  0.39117  1.0000
  H   H2032     1.0  0.07038  0.78391  0.39744  1.0000
  S   S268      1.0  0.99947  0.76482  0.38712  1.0000
  H   H2033     1.0  0.07127  0.91679  0.35357  1.0000
  H   H2034     1.0  0.14729  0.76463  0.61101  1.0000
  H   H2035     1.0  0.11447  0.92150  0.46354  1.0000
  H   H2036     1.0  0.09140  0.78150  0.32825  1.0000
  C   C1161     1.0  0.10603  0.95677  0.59426  1.0000
  H   H2037     1.0  0.12244  0.78719  0.40790  1.0000
  H   H2038     1.0  0.13915  0.78986  0.57113  1.0000
  C   C1162     1.0  0.00832  0.78724  0.58552  1.0000
  C   C1163     1.0  0.12277  0.74397  0.37565  1.0000
  C   C1164     1.0  0.08779  0.97792  0.46989  1.0000
  C   C1165     1.0  0.00681  0.82683  0.36300  1.0000
  H   H2039     1.0  0.06151  0.85099  0.44961  1.0000
  H   H2040     1.0  0.00857  0.78083  0.41320  1.0000
  Fe  Fe132     1.0  0.00260  0.78591  0.36260  1.0000
  H   H2041     1.0  0.10122  0.84760  0.44090  1.0000
  C   C1166     1.0  0.06236  0.91233  0.34838  1.0000
  H   H2042     1.0  0.14124  0.73960  0.52220  1.0000
  C   C1167     1.0  0.15816  0.76502  0.57444  1.0000
  H   H2043     1.0  0.03305  0.75913  0.41903  1.0000
  H   H2044     1.0  0.10174  0.78694  0.60814  1.0000
  C   C1168     1.0  0.06070  0.78485  0.37519  1.0000
  H   H2045     1.0  0.10550  0.93313  0.62981  1.0000
  H   H2046     1.0  0.15078  0.88191  0.51856  1.0000
  H   H2047     1.0  0.05173  0.84595  0.41094  1.0000
  H   H2048     1.0  0.05553  0.78539  0.55374  1.0000
  C   C1169     1.0  0.08934  0.75094  0.50522  1.0000
  H   H2049     1.0  0.06328  0.77288  0.57319  1.0000
  H   H2050     1.0  0.15348  0.87075  0.57591  1.0000
  H   H2051     1.0  0.12638  0.75646  0.37461  1.0000
  C   C1170     1.0  0.10024  0.76918  0.47536  1.0000
  H   H2052     1.0  0.07494  0.81063  0.31265  1.0000
  Fe  Fe133     1.0  0.08438  0.97451  0.52048  1.0000
  H   H2053     1.0  0.11951  0.88805  0.30970  1.0000
  H   H2054     1.0  0.05779  0.76795  0.40035  1.0000
  C   C1171     1.0  0.13107  0.93109  0.51768  1.0000
  H   H2055     1.0  0.07860  0.78184  0.55424  1.0000
  C   C1172     1.0  0.16807  0.76921  0.55537  1.0000
  H   H2056     1.0  0.02497  0.74886  0.45130  1.0000
  C   C1173     1.0  0.06157  0.77856  0.44794  1.0000
  H   H2057     1.0  0.06596  0.78680  0.45398  1.0000
  C   C1174     1.0  0.11849  0.88640  0.36843  1.0000
  C   C1175     1.0  0.10096  0.89556  0.37302  1.0000
  C   C1176     1.0  0.09663  0.90743  0.38398  1.0000
  C   C1177     1.0  0.10975  0.90944  0.39101  1.0000
  H   H2058     1.0  0.09074  0.89322  0.36838  1.0000
  H   H2059     1.0  0.08303  0.91426  0.38773  1.0000
  H   H2060     1.0  0.07038  0.79205  0.36546  1.0000
  H   H2061     1.0  0.08175  0.75070  0.38197  1.0000
  Fe  Fe134     1.0  0.01455  0.75184  0.63844  1.0000
  C   C1178     1.0  0.11540  0.83501  0.57773  1.0000
  C   C1179     1.0  0.09814  0.84515  0.58087  1.0000
  C   C1180     1.0  0.09207  0.85341  0.59503  1.0000
  C   C1181     1.0  0.10304  0.85113  0.60645  1.0000
  C   C1182     1.0  0.12004  0.84034  0.60380  1.0000
  C   C1183     1.0  0.12622  0.83235  0.58941  1.0000
  H   H2062     1.0  0.08961  0.84706  0.57215  1.0000
  H   H2063     1.0  0.07892  0.86176  0.59701  1.0000
  H   H2064     1.0  0.12873  0.83882  0.61231  1.0000
  H   H2065     1.0  0.13957  0.82446  0.58712  1.0000
  C   C1184     1.0  0.11217  0.81405  0.46634  1.0000
  C   C1185     1.0  0.12135  0.81161  0.44955  1.0000
  C   C1186     1.0  0.11199  0.81239  0.43705  1.0000
  C   C1187     1.0  0.09348  0.81523  0.44147  1.0000
  C   C1188     1.0  0.08447  0.81691  0.45844  1.0000
  C   C1189     1.0  0.09376  0.81676  0.47066  1.0000
  H   H2066     1.0  0.13566  0.80941  0.44615  1.0000
  C   C1190     1.0  0.09870  0.78616  0.58323  1.0000
  H   H2067     1.0  0.07021  0.81860  0.46209  1.0000
  H   H2068     1.0  0.08669  0.81853  0.48354  1.0000
  C   C1191     1.0  0.07340  0.90532  0.50744  1.0000
  C   C1192     1.0  0.07441  0.92287  0.50404  1.0000
  C   C1193     1.0  0.06156  0.93440  0.51340  1.0000
  C   C1194     1.0  0.04799  0.92829  0.52662  1.0000
  C   C1195     1.0  0.04626  0.91101  0.52933  1.0000
  C   C1196     1.0  0.05902  0.89947  0.51969  1.0000
  H   H2069     1.0  0.08565  0.92738  0.49488  1.0000
  H   H2070     1.0  0.06267  0.94786  0.51097  1.0000
  H   H2071     1.0  0.03578  0.90625  0.53958  1.0000
  H   H2072     1.0  0.05812  0.88593  0.52224  1.0000
  Fe  Fe135     1.0  0.07065  0.84630  0.36755  1.0000
  H   H2073     1.0  0.00084  0.95096  0.58902  1.0000
  C   C1197     1.0  0.11945  0.84944  0.40831  1.0000
  H   H2074     1.0  0.06232  0.97426  0.61056  1.0000
  H   H2075     1.0  0.12775  0.85390  0.39529  1.0000
  C   C1198     1.0  0.04392  0.79353  0.50524  1.0000
  C   C1199     1.0  0.02900  0.79782  0.51831  1.0000
  C   C1200     1.0  0.02945  0.80824  0.52927  1.0000
  C   C1201     1.0  0.04500  0.81375  0.52747  1.0000
  C   C1202     1.0  0.05983  0.80912  0.51460  1.0000
  C   C1203     1.0  0.05910  0.79949  0.50324  1.0000
  N   N65       1.0  0.00971  0.81482  0.59469  1.0000
  H   H2076     1.0  0.01783  0.81197  0.53906  1.0000
  H   H2077     1.0  0.07201  0.81275  0.51347  1.0000
  H   H2078     1.0  0.07055  0.79609  0.49321  1.0000
  C   C1204     1.0  0.10096  0.76433  0.49468  1.0000
  C   C1205     1.0  0.07411  0.86555  0.45996  1.0000
  H   H2079     1.0  0.09186  0.77364  0.41296  1.0000
  H   H2080     1.0  0.04713  0.91734  0.59330  1.0000
  H   H2081     1.0  0.11053  0.91844  0.61531  1.0000
  C   C1206     1.0  0.01888  0.83000  0.58820  1.0000
  H   H2082     1.0  0.03074  0.86159  0.41296  1.0000
  H   H2083     1.0  0.02320  0.96918  0.50664  1.0000
  C   C1207     1.0  0.10662  0.93944  0.32939  1.0000
  H   H2084     1.0  0.00747  0.77902  0.59892  1.0000
  H   H2085     1.0  0.15337  0.88361  0.59977  1.0000
  H   H2086     1.0  0.11947  0.93757  0.31981  1.0000
  H   H2087     1.0  0.02006  0.80895  0.56894  1.0000
  H   H2088     1.0  0.02529  0.79789  0.61335  1.0000
  H   H2089     1.0  0.09211  0.96230  0.59486  1.0000
  H   H2090     1.0  0.11572  0.74603  0.36509  1.0000
  H   H2091     1.0  0.05419  0.79913  0.42653  1.0000
  H   H2092     1.0  0.10451  0.75730  0.46977  1.0000
  N   N66       1.0  0.08718  0.74632  0.52484  1.0000
  H   H2093     1.0  0.03590  0.82295  0.41718  1.0000
  H   H2094     1.0  0.09999  0.75981  0.62149  1.0000
  H   H2095     1.0  0.09584  0.91051  0.55864  1.0000
  H   H2096     1.0  0.07925  0.90557  0.53993  1.0000
  C   C1208     1.0  0.13224  0.90448  0.54306  1.0000
  H   H2097     1.0  0.05347  0.92395  0.34206  1.0000
  H   H2098     1.0  0.05875  0.89054  0.37088  1.0000
  H   H2099     1.0  0.11503  0.75845  0.49537  1.0000
  H   H2100     1.0  0.11976  0.74853  0.42165  1.0000
  H   H2101     1.0  0.13718  0.74555  0.60082  1.0000
  H   H2102     1.0  0.03031  0.80144  0.31240  1.0000
  C   C1209     1.0  0.02512  0.81999  0.36016  1.0000
  H   H2103     1.0  0.04472  0.83715  0.32184  1.0000
  H   H2104     1.0  0.08380  0.89481  0.42072  1.0000
  C   C1210     1.0  0.14196  0.94170  0.59317  1.0000
  Fe  Fe136     1.0  0.02009  0.75984  0.33924  1.0000
  C   C1211     1.0  0.03664  0.83015  0.36023  1.0000
  C   C1212     1.0  0.02987  0.84733  0.36266  1.0000
  H   H2105     1.0  0.12742  0.96313  0.45316  1.0000
  C   C1213     1.0  0.12727  0.90035  0.38632  1.0000
  N   N67       1.0  0.09591  0.75237  0.40026  1.0000
  C   C1214     1.0  0.03529  0.98303  0.45632  1.0000
  H   H2106     1.0  0.04645  0.81624  0.58105  1.0000
  S   S269      1.0  0.06066  0.78596  0.62954  1.0000
  C   C1215     1.0  0.14421  0.88356  0.57716  1.0000
  H   H2107     1.0  0.12240  0.94424  0.46925  1.0000
  H   H2108     1.0  0.04837  0.87234  0.45226  1.0000
  H   H2109     1.0  0.07766  0.73515  0.41257  1.0000
  H   H2110     1.0  0.04843  0.79443  0.37929  1.0000
  H   H2111     1.0  0.17046  0.85274  0.52645  1.0000
  S   S270      1.0  0.08369  0.94675  0.53446  1.0000
  H   H2112     1.0  0.08218  0.74653  0.33778  1.0000
  Fe  Fe137     1.0  0.08523  0.95443  0.55810  1.0000
  H   H2113     1.0  0.06408  0.76754  0.52706  1.0000
  S   S271      1.0  0.06795  0.95619  0.38273  1.0000
  H   H2114     1.0  0.09293  0.77435  0.58894  1.0000
  C   C1216     1.0  0.13170  0.88918  0.37472  1.0000
  H   H2115     1.0  0.13214  0.87162  0.52390  1.0000
  H   H2116     1.0  0.15937  0.85370  0.50972  1.0000
  C   C1217     1.0  0.07654  0.76225  0.53197  1.0000
  H   H2117     1.0  0.09357  0.76777  0.37434  1.0000
  H   H2118     1.0  0.15598  0.95857  0.46169  1.0000
  H   H2119     1.0  0.03040  0.80692  0.35788  1.0000
  C   C1218     1.0  0.03168  0.79951  0.44944  1.0000
  H   H2120     1.0  0.11909  0.81081  0.42404  1.0000
  H   H2121     1.0  0.04257  0.86162  0.48462  1.0000
  C   C1219     1.0  0.04622  0.84197  0.58316  1.0000
  H   H2122     1.0  0.15539  0.94908  0.41206  1.0000
  N   N68       1.0  0.08587  0.75805  0.31008  1.0000
  H   H2123     1.0  0.02570  0.98202  0.46911  1.0000
  H   H2124     1.0  0.10572  0.88886  0.43659  1.0000
  S   S272      1.0  0.08853  0.98145  0.54363  1.0000
  H   H2125     1.0  0.13916  0.75426  0.53593  1.0000
  Fe  Fe138     1.0  0.08013  0.97981  0.37160  1.0000
  H   H2126     1.0  0.05399  0.89892  0.45358  1.0000
  H   H2127     1.0  0.09671  0.77663  0.49948  1.0000
  H   H2128     1.0  0.07039  0.77583  0.33860  1.0000
  C   C1220     1.0  0.14405  0.93759  0.44713  1.0000
  H   H2129     1.0  0.15505  0.87247  0.54803  1.0000
  C   C1221     1.0  0.05320  0.91820  0.42953  1.0000
  H   H2130     1.0  0.12028  0.88330  0.46801  1.0000
  S   S273      1.0  0.00829  0.75803  0.52819  1.0000
  H   H2131     1.0  0.08870  0.81433  0.57529  1.0000
  H   H2132     1.0  0.06984  0.86219  0.31290  1.0000
  C   C1222     1.0  0.12089  0.79270  0.33003  1.0000
  S   S274      1.0  0.05578  0.96185  0.56733  1.0000
  C   C1223     1.0  0.14254  0.91975  0.42802  1.0000
  Fe  Fe139     1.0  0.02774  0.76060  0.50238  1.0000
  C   C1224     1.0  0.06005  0.91324  0.59728  1.0000
  C   C1225     1.0  0.00937  0.80425  0.43176  1.0000
  C   C1226     1.0  0.13869  0.77579  0.57676  1.0000
  C   C1227     1.0  0.10246  0.76642  0.40390  1.0000
  H   H2133     1.0  0.06557  0.90732  0.56113  1.0000
  H   H2134     1.0  0.08466  0.85542  0.42872  1.0000
  C   C1228     1.0  0.06685  0.77585  0.55868  1.0000
  C   C1229     1.0  0.15739  0.85392  0.52367  1.0000
  S   S275      1.0  0.04391  0.86068  0.36204  1.0000
  C   C1230     1.0  0.05760  0.86062  0.45801  1.0000
  S   S276      1.0  0.07651  0.81829  0.38165  1.0000
  C   C1231     1.0  0.00683  0.74121  0.31234  1.0000
  S   S277      1.0  0.03225  0.75818  0.31125  1.0000
  C   C1232     1.0  0.08520  0.98214  0.45266  1.0000
  H   H2135     1.0  0.11086  0.77784  0.42945  1.0000
  H   H2136     1.0  0.05865  0.75378  0.55654  1.0000
  C   C1233     1.0  0.05804  0.91884  0.61421  1.0000
  H   H2137     1.0  0.08468  0.94245  0.46466  1.0000
  H   H2138     1.0  0.09056  0.94514  0.31063  1.0000
  H   H2139     1.0  0.04321  0.83090  0.44211  1.0000
  C   C1234     1.0  0.14468  0.87103  0.52734  1.0000
  H   H2140     1.0  0.10522  0.77672  0.39179  1.0000
  Fe  Fe140     1.0  0.08673  0.94800  0.40076  1.0000
  H   H2141     1.0  0.14779  0.73456  0.35891  1.0000
  H   H2142     1.0  0.03187  0.79530  0.58476  1.0000
  H   H2143     1.0  0.14685  0.90325  0.53971  1.0000
  C   C1235     1.0  0.07716  0.89903  0.55396  1.0000
  C   C1236     1.0  0.12522  0.91374  0.52613  1.0000
  H   H2144     1.0  0.10982  0.95284  0.44291  1.0000
  C   C1237     1.0  0.04771  0.78987  0.43750  1.0000
  H   H2145     1.0  0.12973  0.90552  0.51634  1.0000
  H   H2146     1.0  0.08205  0.85329  0.46658  1.0000
  H   H2147     1.0  0.10847  0.87167  0.55617  1.0000
  H   H2148     1.0  0.14571  0.92878  0.51325  1.0000
  H   H2149     1.0  0.13425  0.87414  0.60507  1.0000
  C   C1238     1.0  0.13324  0.77856  0.32402  1.0000
  H   H2150     1.0  0.07058  0.80733  0.33599  1.0000
  C   C1239     1.0  0.09459  0.85968  0.43276  1.0000
  H   H2151     1.0  0.06614  0.88402  0.42721  1.0000
  N   N69       1.0  0.08565  0.87353  0.44330  1.0000
  H   H2152     1.0  0.07969  0.93811  0.33284  1.0000
  H   H2153     1.0  0.00406  0.73939  0.32639  1.0000
  H   H2154     1.0  0.04789  0.91256  0.62429  1.0000
  C   C1240     1.0  0.11412  0.75280  0.53200  1.0000
  H   H2155     1.0  0.14094  0.97317  0.42681  1.0000
  H   H2156     1.0  0.05304  0.93329  0.61173  1.0000
  H   H2157     1.0  0.08659  0.77597  0.47370  1.0000
  H   H2158     1.0  0.11830  0.75272  0.59155  1.0000
  H   H2159     1.0  0.03190  0.79794  0.40990  1.0000
  C   C1241     1.0  0.10496  0.73923  0.52991  1.0000
  H   H2160     1.0  0.03951  0.84319  0.63125  1.0000
  H   H2161     1.0  0.08504  0.92085  0.60908  1.0000
  H   H2162     1.0  0.11977  0.97391  0.42264  1.0000
  H   H2163     1.0  0.01277  0.85548  0.32767  1.0000
  H   H2164     1.0  0.11653  0.77711  0.63088  1.0000
  H   H2165     1.0  0.16560  0.76803  0.58238  1.0000
  C   C1242     1.0  0.06361  0.90371  0.44172  1.0000
  H   H2166     1.0  0.05972  0.83917  0.63852  1.0000
  H   H2167     1.0  0.15865  0.75072  0.57818  1.0000
  H   H2168     1.0  0.01073  0.76464  0.57528  1.0000
  C   C1243     1.0  0.09132  0.73402  0.43239  1.0000
  S   S278      1.0  0.03096  0.77409  0.35224  1.0000
  C   C1244     1.0  0.03855  0.82552  0.58945  1.0000
  H   H2169     1.0  0.09237  0.88847  0.45776  1.0000
  H   H2170     1.0  0.03913  0.86020  0.32239  1.0000
  C   C1245     1.0  0.12675  0.88470  0.57199  1.0000
  C   C1246     1.0  0.01821  0.80197  0.58291  1.0000
  C   C1247     1.0  0.07351  0.90028  0.33567  1.0000
  C   C1248     1.0  0.11499  0.96130  0.60434  1.0000
  H   H2171     1.0  0.01857  0.78255  0.55915  1.0000
  H   H2172     1.0  0.06980  0.91959  0.58660  1.0000
  H   H2173     1.0  0.05447  0.80467  0.32598  1.0000
  H   H2174     1.0  0.16157  0.76590  0.54675  1.0000
  H   H2175     1.0  0.19696  0.91263  0.64135  1.0000
  H   H2176     1.0  0.05622  0.94173  0.63386  1.0000
  C   C1249     1.0  0.16260  0.91495  0.41969  1.0000
  H   H2177     1.0  0.10693  0.75805  0.54382  1.0000
  C   C1250     1.0  0.05888  0.97286  0.32377  1.0000
  H   H2178     1.0  0.06453  0.89874  0.59912  1.0000
  H   H2179     1.0  0.06067  0.97392  0.34920  1.0000
  H   H2180     1.0  0.02849  0.73827  0.56268  1.0000
  H   H2181     1.0  0.12016  0.79834  0.61878  1.0000
  C   C1251     1.0  0.00343  0.82044  0.45471  1.0000
  H   H2182     1.0  0.13581  0.94964  0.40558  1.0000
  H   H2183     1.0  0.18276  0.89262  0.41227  1.0000
  H   H2184     1.0  0.01461  0.83693  0.42112  1.0000
  C   C1252     1.0  0.12438  0.75532  0.60098  1.0000
  H   H2185     1.0  0.13275  0.77186  0.56811  1.0000
  H   H2186     1.0  0.13457  0.77078  0.42285  1.0000
  C   C1253     1.0  0.12685  0.78437  0.62293  1.0000
  Fe  Fe141     1.0  0.05048  0.97148  0.40269  1.0000
  C   C1254     1.0  0.07603  0.91363  0.61980  1.0000
  C   C1255     1.0  0.04730  0.85231  0.47576  1.0000
  N   N70       1.0  0.08294  0.90923  0.31809  1.0000
  Fe  Fe142     1.0  0.02715  0.75202  0.37570  1.0000
  H   H2187     1.0  0.13980  0.92692  0.57606  1.0000
  H   H2188     1.0  0.08316  0.89025  0.34274  1.0000
  H   H2189     1.0  0.06482  0.89260  0.33405  1.0000
  H   H2190     1.0  0.10819  0.93070  0.34229  1.0000
  H   H2191     1.0  0.08361  0.77318  0.52705  1.0000
  H   H2192     1.0  0.14582  0.78678  0.59898  1.0000
  H   H2193     1.0  0.13655  0.91780  0.62623  1.0000
  C   C1256     1.0  0.06554  0.97784  0.33532  1.0000
  S   S279      1.0  0.10057  0.97018  0.38791  1.0000
  S   S280      1.0  0.14471  0.95786  0.61687  1.0000
  H   H2194     1.0  0.06029  0.83840  0.58418  1.0000
  H   H2195     1.0  0.10752  0.85785  0.46895  1.0000
  H   H2196     1.0  0.11721  0.87219  0.41753  1.0000
  H   H2197     1.0  0.07795  0.97487  0.44907  1.0000
  C   C1257     1.0  0.07815  0.77727  0.31006  1.0000
  C   C1258     1.0  0.00426  0.86359  0.31853  1.0000
  H   H2198     1.0  0.06222  0.75429  0.33010  1.0000
  H   H2199     1.0  0.01155  0.84081  0.59509  1.0000
  H   H2200     1.0  0.00632  0.86758  0.36695  1.0000
  H   H2201     1.0  0.03884  0.85170  0.59131  1.0000
  H   H2202     1.0  0.15585  0.93577  0.59275  1.0000
  H   H2203     1.0  0.04562  0.84804  0.56928  1.0000
  H   H2204     1.0  0.14675  0.92422  0.45566  1.0000
  C   C1259     1.0  0.10820  0.92558  0.45213  1.0000
  S   S281      1.0  0.01901  0.73653  0.36167  1.0000
  C   C1260     1.0  0.18458  0.94855  0.63242  1.0000
  H   H2205     1.0  0.01601  0.81772  0.40397  1.0000
  C   C1261     1.0  0.11077  0.73808  0.39377  1.0000
  C   C1262     1.0  0.13290  0.93674  0.58367  1.0000
  C   C1263     1.0  0.14190  0.87195  0.54662  1.0000
  H   H2206     1.0  0.00453  0.97197  0.56083  1.0000
  H   H2207     1.0  0.11059  0.91399  0.44649  1.0000
  H   H2208     1.0  0.07224  0.90974  0.44558  1.0000
  C   C1264     1.0  0.13771  0.77691  0.60664  1.0000
  H   H2209     1.0  0.05077  0.82485  0.35801  1.0000
  C   C1265     1.0  0.11040  0.78731  0.59490  1.0000
  C   C1266     1.0  0.13313  0.74437  0.53408  1.0000
  H   H2210     1.0  0.12656  0.93990  0.52704  1.0000
  H   H2211     1.0  0.13447  0.88021  0.44706  1.0000
  N   N71       1.0  0.13566  0.93751  0.43276  1.0000
  H   H2212     1.0  0.00908  0.82626  0.46215  1.0000
  H   H2213     1.0  0.05573  0.84014  0.48199  1.0000
  C   C1267     1.0  0.07490  0.88868  0.43248  1.0000
  H   H2214     1.0  0.00062  0.97036  0.50629  1.0000
  H   H2215     1.0  0.10388  0.90768  0.33069  1.0000
  H   H2216     1.0  0.13736  0.96034  0.47984  1.0000
  H   H2217     1.0  0.01878  0.83586  0.57416  1.0000
  H   H2218     1.0  0.03563  0.84880  0.47403  1.0000
  H   H2219     1.0  0.13651  0.86311  0.46646  1.0000
  C   C1268     1.0  0.04086  0.85268  0.42017  1.0000
  H   H2220     1.0  0.18582  0.94231  0.62153  1.0000
  C   C1269     1.0  0.13429  0.97051  0.41793  1.0000
  H   H2221     1.0  0.08161  0.93451  0.44737  1.0000
  H   H2222     1.0  0.04027  0.81954  0.60300  1.0000
  H   H2223     1.0  0.08313  0.91997  0.46804  1.0000
  C   C1270     1.0  0.03273  0.83909  0.43507  1.0000
  C   C1271     1.0  0.02515  0.82777  0.42776  1.0000
  H   H2224     1.0  0.10288  0.95326  0.33087  1.0000
  H   H2225     1.0  0.14526  0.88211  0.37120  1.0000
  H   H2226     1.0  0.11331  0.80062  0.59068  1.0000
  H   H2227     1.0  0.14005  0.90917  0.43984  1.0000
  H   H2228     1.0  0.04369  0.91119  0.37342  1.0000
  H   H2229     1.0  0.12123  0.85652  0.44760  1.0000
  C   C1272     1.0  0.11358  0.86563  0.45630  1.0000
  H   H2230     1.0  0.11057  0.91686  0.52907  1.0000
  H   H2231     1.0  0.04540  0.92894  0.43633  1.0000
  H   H2232     1.0  0.11457  0.76417  0.52076  1.0000
  H   H2233     1.0  0.07334  0.77226  0.43932  1.0000
  C   C1273     1.0  0.01161  0.85426  0.36517  1.0000
  H   H2234     1.0  0.04391  0.91300  0.42557  1.0000
  H   H2235     1.0  0.07824  0.94374  0.62378  1.0000
  H   H2236     1.0  0.10924  0.77818  0.46793  1.0000
  C   C1274     1.0  0.11570  0.94059  0.43809  1.0000
  C   C1275     1.0  0.07780  0.78326  0.32660  1.0000
  H   H2237     1.0  0.06237  0.92381  0.41766  1.0000
  C   C1276     1.0  0.11961  0.76051  0.41112  1.0000
  H   H2238     1.0  0.11005  0.94277  0.42649  1.0000
  H   H2239     1.0  0.06954  0.87435  0.46938  1.0000
  H   H2240     1.0  0.15075  0.89433  0.56881  1.0000
  C   C1277     1.0  0.05066  0.90257  0.36405  1.0000
  C   C1278     1.0  0.11008  0.88542  0.55099  1.0000
  H   H2241     1.0  0.04343  0.78093  0.43225  1.0000
  H   H2242     1.0  0.13907  0.85919  0.55506  1.0000
  S   S282      1.0  0.02083  0.97728  0.40987  1.0000
  C   C1279     1.0  0.10808  0.86525  0.41570  1.0000
  H   H2243     1.0  0.15731  0.94086  0.44136  1.0000
  C   C1280     1.0  0.04813  0.85005  0.31541  1.0000
  C   C1281     1.0  0.09738  0.91665  0.32005  1.0000
  H   H2244     1.0  0.00187  0.79875  0.47785  1.0000
  H   H2245     1.0  0.04056  0.89886  0.35976  1.0000
  H   H2246     1.0  0.08188  0.89957  0.61960  1.0000
  H   H2247     1.0  0.07606  0.75584  0.50183  1.0000
  C   C1282     1.0  0.13889  0.78379  0.63468  1.0000
  H   H2248     1.0  0.10325  0.81754  0.32270  1.0000
  H   H2249     1.0  0.08267  0.96730  0.47951  1.0000
  C   C1283     1.0  0.13297  0.95360  0.60389  1.0000
  C   C1284     1.0  0.13341  0.94987  0.45988  1.0000
  N   N72       1.0  0.07558  0.91723  0.63706  1.0000
  H   H2250     1.0  0.10073  0.87399  0.40577  1.0000
  H   H2251     1.0  0.99520  0.85557  0.31833  1.0000
  H   H2252     1.0  0.04640  0.86069  0.42538  1.0000
  H   H2253     1.0  0.07511  0.80097  0.57377  1.0000
  H   H2254     1.0  0.13742  0.90181  0.39177  1.0000
  H   H2255     1.0  0.12184  0.87269  0.57961  1.0000
  S   S283      1.0  0.04462  0.78030  0.49141  1.0000
  H   H2256     1.0  0.18192  0.76139  0.55395  1.0000
  H   H2257     1.0  0.10933  0.88812  0.53711  1.0000
  H   H2258     1.0  0.15129  0.93906  0.47789  1.0000
  C   C1285     1.0  0.09909  0.88006  0.44809  1.0000
  H   H2259     1.0  0.07427  0.88598  0.55579  1.0000
  S   S284      1.0  0.10344  0.93533  0.57464  1.0000
  H   H2260     1.0  0.06749  0.84385  0.33119  1.0000
  C   C1286     1.0  0.12699  0.87366  0.45965  1.0000
  H   H2261     1.0  0.07525  0.80372  0.59489  1.0000
  C   C1287     1.0  0.14075  0.95110  0.41647  1.0000
  C   C1288     1.0  0.14530  0.95202  0.47044  1.0000
  H   H2262     1.0  0.11089  0.84166  0.40681  1.0000
  H   H2263     1.0  0.02582  0.78889  0.45917  1.0000
  H   H2264     1.0  0.12837  0.84107  0.41707  1.0000
  H   H2265     1.0  0.13970  0.76793  0.33308  1.0000
  N   N73       1.0  0.12773  0.88693  0.55274  1.0000
  S   S285      1.0  0.06814  0.96121  0.42186  1.0000
  H   H2266     1.0  0.10799  0.97046  0.61264  1.0000
  C   C1289     1.0  0.08819  0.93108  0.45843  1.0000
  H   H2267     1.0  0.01710  0.79342  0.51975  1.0000
  S   S286      1.0  0.11492  0.79157  0.35267  1.0000
  H   H2268     1.0  0.10610  0.78571  0.56969  1.0000
  C   C1290     1.0  0.08350  0.80228  0.58180  1.0000
  H   H2269     1.0  0.04897  0.96500  0.32890  1.0000
  H   H2270     1.0  0.05607  0.76810  0.45832  1.0000
  C   C1291     1.0  0.07638  0.74744  0.32658  1.0000
  H   H2271     1.0  0.07219  0.75435  0.42098  1.0000
  C   C1292     1.0  0.09364  0.89718  0.56053  1.0000
  H   H2272     1.0  0.15182  0.84244  0.53180  1.0000
  C   C1293     1.0  0.11297  0.75041  0.61954  1.0000
  H   H2273     1.0  0.00151  0.88712  0.32768  1.0000
  H   H2274     1.0  0.09092  0.89128  0.57476  1.0000
  H   H2275     1.0  0.13194  0.89769  0.59814  1.0000
  N   N74       1.0  0.12754  0.77370  0.59521  1.0000
  H   H2276     1.0  0.11696  0.89584  0.57704  1.0000
  C   C1294     1.0  0.14068  0.88482  0.59621  1.0000
  H   H2277     1.0  0.05747  0.77584  0.36919  1.0000
  H   H2278     1.0  0.03667  0.80557  0.45722  1.0000
  H   H2279     1.0  0.14896  0.79172  0.62749  1.0000
  H   H2280     1.0  0.12699  0.91409  0.55164  1.0000
  H   H2281     1.0  0.12498  0.93786  0.50624  1.0000
  C   C1295     1.0  0.11277  0.80655  0.31815  1.0000
  C   C1296     1.0  0.01794  0.77518  0.57288  1.0000
  H   H2282     1.0  0.19709  0.95256  0.63100  1.0000
  H   H2283     1.0  0.16071  0.89236  0.41144  1.0000
  C   C1297     1.0  0.06886  0.80267  0.32518  1.0000
  C   C1298     1.0  0.08355  0.74419  0.41617  1.0000
  C   C1299     1.0  0.16855  0.89555  0.41891  1.0000
  H   H2284     1.0  0.10745  0.75678  0.32165  1.0000
  H   H2285     1.0  0.06273  0.73764  0.52963  1.0000
  H   H2286     1.0  0.00326  0.96802  0.53596  1.0000
  C   C1300     1.0  0.01143  0.80535  0.61309  1.0000
  H   H2287     1.0  0.16544  0.92267  0.40605  1.0000
  S   S287      1.0  0.00953  0.76028  0.48629  1.0000
  H   H2288     1.0  0.02217  0.84648  0.44401  1.0000
  C   C1301     1.0  0.06677  0.84896  0.31728  1.0000
  H   H2289     1.0  0.17380  0.96056  0.63154  1.0000
  H   H2290     1.0  0.13139  0.75768  0.40052  1.0000
  C   C1302     1.0  0.00953  0.97745  0.50838  1.0000
  H   H2291     1.0  0.13525  0.91862  0.41877  1.0000
  C   C1303     1.0  0.03413  0.74532  0.42471  1.0000
  H   H2292     1.0  0.10538  0.87567  0.32651  1.0000
  C   C1304     1.0  0.00010  0.84398  0.36552  1.0000
  H   H2293     1.0  0.13919  0.73833  0.31579  1.0000
  H   H2294     1.0  0.04601  0.91273  0.31875  1.0000
  C   C1305     1.0  0.09221  0.93558  0.32313  1.0000
  H   H2295     1.0  0.16841  0.78337  0.55106  1.0000
  H   H2296     1.0  0.13061  0.89678  0.63314  1.0000
  C   C1306     1.0  0.00360  0.98094  0.52680  1.0000
  H   H2297     1.0  0.04632  0.97125  0.45722  1.0000
  H   H2298     1.0  0.07828  0.81217  0.62902  1.0000
  H   H2299     1.0  0.08111  0.74920  0.55865  1.0000
  H   H2300     1.0  0.07421  0.96924  0.63707  1.0000
  S   S288      1.0  0.10360  0.98089  0.49481  1.0000
  Fe  Fe143     1.0  0.04848  0.76238  0.63680  1.0000
  C   C1307     1.0  0.09377  0.90986  0.64100  1.0000
  C   C1308     1.0  0.00834  0.79434  0.40523  1.0000
  H   H2301     1.0  0.02867  0.98313  0.44603  1.0000
  H   H2302     1.0  0.01524  0.79347  0.39159  1.0000
  H   H2303     1.0  0.03155  0.76904  0.57487  1.0000
  H   H2304     1.0  0.99456  0.74897  0.43166  1.0000
  C   C1309     1.0  0.12621  0.91062  0.63455  1.0000
  C   C1310     1.0  0.07007  0.93679  0.63568  1.0000
  C   C1311     1.0  0.00559  0.81698  0.62674  1.0000
  H   H2305     1.0  0.01352  0.82713  0.62313  1.0000
  S   S289      1.0  0.04835  0.73988  0.39124  1.0000
  C   C1312     1.0  0.02965  0.73950  0.44299  1.0000
  H   H2306     1.0  0.12021  0.74991  0.62945  1.0000
  H   H2307     1.0  0.00337  0.79517  0.61813  1.0000
  H   H2308     1.0  0.13277  0.98081  0.39057  1.0000
  H   H2309     1.0  0.15346  0.98075  0.39525  1.0000
  H   H2310     1.0  0.06562  0.73503  0.45078  1.0000
  C   C1313     1.0  0.13887  0.98289  0.40022  1.0000
  H   H2311     1.0  0.00373  0.73675  0.59284  1.0000
  H   H2312     1.0  0.14562  0.77004  0.63957  1.0000
  C   C1314     1.0  0.08097  0.80129  0.63984  1.0000
  C   C1315     1.0  0.10810  0.88185  0.31244  1.0000
  H   H2313     1.0  0.06423  0.93458  0.31482  1.0000
  H   H2314     1.0  0.99518  0.81099  0.43218  1.0000
  H   H2315     1.0  0.09467  0.74322  0.43808  1.0000
  Fe  Fe144     1.0  0.13021  0.96705  0.64163  1.0000
  H   H2316     1.0  0.09839  0.89590  0.63991  1.0000
  H   H2317     1.0  0.06187  0.88627  0.64174  1.0000
  C   C1316     1.0  0.10539  0.75447  0.30966  1.0000
  H   H2318     1.0  0.07690  0.84010  0.30945  1.0000
  H   H2319     1.0  0.99469  0.79262  0.58330  1.0000
  C   C1317     1.0  0.04501  0.84240  0.64255  1.0000
  S   S290      1.0  0.31905  0.88643  0.74911  1.0000
  S   S291      1.0  0.30615  0.86155  0.72182  1.0000
  Fe  Fe145     1.0  0.33981  0.89995  0.73042  1.0000
  S   S292      1.0  0.33206  0.92931  0.72394  1.0000
  Fe  Fe146     1.0  0.34138  0.86913  0.76108  1.0000
  S   S293      1.0  0.33790  0.86385  0.79012  1.0000
  H   H2320     1.0  0.15023  0.88214  0.68115  1.0000
  S   S294      1.0  0.29882  0.80194  0.82932  1.0000
  H   H2321     1.0  0.13184  0.76181  0.84619  1.0000
  H   H2322     1.0  0.22158  0.80564  0.72145  1.0000
  H   H2323     1.0  0.46486  0.97914  0.66757  1.0000
  Fe  Fe147     1.0  0.46780  0.80758  0.87737  1.0000
  H   H2324     1.0  0.17076  0.89818  0.79316  1.0000
  C   C1318     1.0  0.48102  0.78832  0.80610  1.0000
  H   H2325     1.0  0.38635  0.81647  0.85691  1.0000
  C   C1319     1.0  0.24978  0.76497  0.82189  1.0000
  H   H2326     1.0  0.46361  0.97942  0.69813  1.0000
  C   C1320     1.0  0.09063  0.80255  0.65115  1.0000
  S   S295      1.0  0.17302  0.85730  0.74875  1.0000
  Fe  Fe148     1.0  0.21512  0.84837  0.76714  1.0000
  S   S296      1.0  0.18763  0.85462  0.78357  1.0000
  S   S297      1.0  0.23897  0.84243  0.77886  1.0000
  Fe  Fe149     1.0  0.18176  0.83617  0.77106  1.0000
  S   S298      1.0  0.16552  0.81619  0.78684  1.0000
  Fe  Fe150     1.0  0.18167  0.87509  0.75981  1.0000
  S   S299      1.0  0.16619  0.90299  0.75818  1.0000
  S   S300      1.0  0.20969  0.82846  0.75635  1.0000
  H   H2327     1.0  0.25555  0.76590  0.85420  1.0000
  C   C1321     1.0  0.17323  0.91578  0.76789  1.0000
  C   C1322     1.0  0.17695  0.93200  0.75818  1.0000
  C   C1323     1.0  0.18171  0.94285  0.76596  1.0000
  S   S301      1.0  0.34576  0.88318  0.71114  1.0000
  H   H2328     1.0  0.17613  0.93619  0.74464  1.0000
  H   H2329     1.0  0.18451  0.95537  0.75835  1.0000
  H   H2330     1.0  0.37203  0.84409  0.86735  1.0000
  C   C1324     1.0  0.19538  0.78979  0.78843  1.0000
  C   C1325     1.0  0.17834  0.79676  0.79712  1.0000
  C   C1326     1.0  0.17154  0.78817  0.81414  1.0000
  H   H2331     1.0  0.20057  0.79606  0.77519  1.0000
  H   H2332     1.0  0.36713  0.84067  0.80079  1.0000
  H   H2333     1.0  0.21155  0.80236  0.89194  1.0000
  C   C1327     1.0  0.04412  0.77899  0.69970  1.0000
  H   H2334     1.0  0.45154  0.95729  0.68001  1.0000
  C   C1328     1.0  0.18211  0.77317  0.82273  1.0000
  C   C1329     1.0  0.29482  0.79589  0.77922  1.0000
  H   H2335     1.0  0.02882  0.79758  0.68132  1.0000
  H   H2336     1.0  0.17883  0.91752  0.80712  1.0000
  C   C1330     1.0  0.06485  0.96324  0.64842  1.0000
  H   H2337     1.0  0.20734  0.81076  0.80183  1.0000
  C   C1331     1.0  0.19317  0.80788  0.72777  1.0000
  S   S302      1.0  0.18838  0.95098  0.79365  1.0000
  H   H2338     1.0  0.43795  0.79167  0.69022  1.0000
  H   H2339     1.0  0.41460  0.96424  0.78544  1.0000
  H   H2340     1.0  0.43307  0.80366  0.71571  1.0000
  H   H2341     1.0  0.43876  0.93662  0.76745  1.0000
  S   S303      1.0  0.08950  0.84129  0.67028  1.0000
  H   H2342     1.0  0.41018  0.78144  0.86577  1.0000
  C   C1332     1.0  0.27670  0.79903  0.79168  1.0000
  C   C1333     1.0  0.45648  0.90403  0.81604  1.0000
  H   H2343     1.0  0.38452  0.87233  0.85027  1.0000
  C   C1334     1.0  0.28793  0.85552  0.73789  1.0000
  C   C1335     1.0  0.28845  0.85032  0.75561  1.0000
  C   C1336     1.0  0.27354  0.84580  0.76817  1.0000
  C   C1337     1.0  0.25802  0.84677  0.76303  1.0000
  C   C1338     1.0  0.25767  0.85162  0.74530  1.0000
  C   C1339     1.0  0.27260  0.85594  0.73277  1.0000
  H   H2344     1.0  0.30033  0.84979  0.75959  1.0000
  H   H2345     1.0  0.27398  0.84177  0.78186  1.0000
  C   C1340     1.0  0.13457  0.83262  0.73889  1.0000
  H   H2346     1.0  0.27223  0.85971  0.71905  1.0000
  C   C1341     1.0  0.32662  0.84696  0.80092  1.0000
  C   C1342     1.0  0.31997  0.83921  0.79160  1.0000
  C   C1343     1.0  0.31092  0.82573  0.80043  1.0000
  C   C1344     1.0  0.30895  0.81966  0.81853  1.0000
  H   H2347     1.0  0.32158  0.84374  0.77763  1.0000
  H   H2348     1.0  0.30576  0.81980  0.79320  1.0000
  C   C1345     1.0  0.34798  0.93913  0.72572  1.0000
  C   C1346     1.0  0.34265  0.95567  0.72986  1.0000
  C   C1347     1.0  0.35506  0.96324  0.73247  1.0000
  C   C1348     1.0  0.37283  0.95431  0.73078  1.0000
  C   C1349     1.0  0.37828  0.93805  0.72604  1.0000
  C   C1350     1.0  0.36581  0.93038  0.72366  1.0000
  H   H2349     1.0  0.32885  0.96240  0.73159  1.0000
  H   H2350     1.0  0.45728  0.92371  0.68260  1.0000
  H   H2351     1.0  0.39202  0.93114  0.72473  1.0000
  H   H2352     1.0  0.37000  0.91770  0.72024  1.0000
  Fe  Fe151     1.0  0.32676  0.86817  0.73104  1.0000
  C   C1351     1.0  0.20744  0.89029  0.66851  1.0000
  C   C1352     1.0  0.13343  0.78063  0.78069  1.0000
  N   N75       1.0  0.23625  0.89509  0.78590  1.0000
  C   C1353     1.0  0.23992  0.89886  0.76619  1.0000
  C   C1354     1.0  0.25205  0.88257  0.79239  1.0000
  C   C1355     1.0  0.22075  0.88619  0.79277  1.0000
  C   C1356     1.0  0.23117  0.91162  0.79277  1.0000
  C   C1357     1.0  0.24503  0.92314  0.78687  1.0000
  C   C1358     1.0  0.22448  0.91090  0.75765  1.0000
  C   C1359     1.0  0.21638  0.87844  0.81277  1.0000
  C   C1360     1.0  0.27081  0.88475  0.78149  1.0000
  C   C1361     1.0  0.28494  0.87433  0.79191  1.0000
  C   C1362     1.0  0.23719  0.94072  0.79215  1.0000
  C   C1363     1.0  0.23013  0.91487  0.73773  1.0000
  C   C1364     1.0  0.20115  0.86900  0.81775  1.0000
  H   H2353     1.0  0.24373  0.88625  0.76175  1.0000
  H   H2354     1.0  0.25148  0.90497  0.76022  1.0000
  H   H2355     1.0  0.25123  0.88310  0.80608  1.0000
  H   H2356     1.0  0.25182  0.86876  0.79293  1.0000
  H   H2357     1.0  0.22286  0.87540  0.78603  1.0000
  H   H2358     1.0  0.20846  0.89548  0.78971  1.0000
  H   H2359     1.0  0.21843  0.91988  0.78961  1.0000
  H   H2360     1.0  0.22844  0.90840  0.80727  1.0000
  H   H2361     1.0  0.24992  0.92599  0.77250  1.0000
  H   H2362     1.0  0.25626  0.91659  0.79343  1.0000
  H   H2363     1.0  0.21310  0.90448  0.76122  1.0000
  H   H2364     1.0  0.21994  0.92367  0.76164  1.0000
  H   H2365     1.0  0.21225  0.88896  0.82019  1.0000
  H   H2366     1.0  0.22788  0.86870  0.81718  1.0000
  H   H2367     1.0  0.27376  0.87981  0.76941  1.0000
  H   H2368     1.0  0.27228  0.89849  0.77722  1.0000
  H   H2369     1.0  0.29829  0.87529  0.78370  1.0000
  H   H2370     1.0  0.28313  0.87960  0.80359  1.0000
  H   H2371     1.0  0.28426  0.86026  0.79616  1.0000
  H   H2372     1.0  0.24756  0.94848  0.78842  1.0000
  H   H2373     1.0  0.22644  0.94821  0.78523  1.0000
  H   H2374     1.0  0.23177  0.93887  0.80647  1.0000
  H   H2375     1.0  0.24088  0.92223  0.73321  1.0000
  H   H2376     1.0  0.23469  0.90252  0.73290  1.0000
  H   H2377     1.0  0.21865  0.92316  0.73213  1.0000
  H   H2378     1.0  0.19814  0.86370  0.83208  1.0000
  H   H2379     1.0  0.18903  0.87818  0.81403  1.0000
  H   H2380     1.0  0.20488  0.85789  0.81112  1.0000
  N   N76       1.0  0.32631  0.92015  0.79098  1.0000
  C   C1365     1.0  0.34618  0.91352  0.78648  1.0000
  C   C1366     1.0  0.31767  0.90635  0.80470  1.0000
  C   C1367     1.0  0.31952  0.92338  0.77458  1.0000
  C   C1368     1.0  0.32119  0.93730  0.79677  1.0000
  C   C1369     1.0  0.32797  0.93731  0.81271  1.0000
  C   C1370     1.0  0.35689  0.92677  0.77343  1.0000
  C   C1371     1.0  0.29898  0.92744  0.77701  1.0000
  C   C1372     1.0  0.32788  0.89456  0.81894  1.0000
  C   C1373     1.0  0.31600  0.88397  0.83362  1.0000
  C   C1374     1.0  0.32437  0.95593  0.81545  1.0000
  C   C1375     1.0  0.37671  0.91849  0.76972  1.0000
  C   C1376     1.0  0.29364  0.93078  0.75967  1.0000
  H   H2381     1.0  0.34943  0.90150  0.78113  1.0000
  H   H2382     1.0  0.35190  0.90930  0.79823  1.0000
  H   H2383     1.0  0.30423  0.91255  0.81137  1.0000
  H   H2384     1.0  0.31550  0.89683  0.79840  1.0000
  H   H2385     1.0  0.32508  0.91179  0.76843  1.0000
  H   H2386     1.0  0.32413  0.93459  0.76457  1.0000
  H   H2387     1.0  0.32545  0.94800  0.78571  1.0000
  H   H2388     1.0  0.30655  0.94165  0.80041  1.0000
  H   H2389     1.0  0.34242  0.93181  0.81116  1.0000
  H   H2390     1.0  0.32077  0.92964  0.82472  1.0000
  H   H2391     1.0  0.35272  0.93118  0.76084  1.0000
  H   H2392     1.0  0.35511  0.93845  0.77874  1.0000
  H   H2393     1.0  0.29253  0.93931  0.78241  1.0000
  H   H2394     1.0  0.29331  0.91632  0.78588  1.0000
  H   H2395     1.0  0.33931  0.88508  0.81308  1.0000
  H   H2396     1.0  0.33315  0.90211  0.82486  1.0000
  H   H2397     1.0  0.32395  0.87460  0.84285  1.0000
  H   H2398     1.0  0.30518  0.89283  0.84092  1.0000
  H   H2399     1.0  0.31010  0.87639  0.82822  1.0000
  H   H2400     1.0  0.31002  0.96213  0.81700  1.0000
  H   H2401     1.0  0.32854  0.95555  0.82744  1.0000
  H   H2402     1.0  0.33200  0.96411  0.80424  1.0000
  H   H2403     1.0  0.38420  0.92867  0.76173  1.0000
  H   H2404     1.0  0.38153  0.91277  0.78202  1.0000
  H   H2405     1.0  0.37952  0.90815  0.76226  1.0000
  H   H2406     1.0  0.29874  0.91903  0.75401  1.0000
  H   H2407     1.0  0.27899  0.93406  0.76175  1.0000
  N   N77       1.0  0.49331  0.79467  0.81276  1.0000
  C   C1377     1.0  0.25041  0.78021  0.84992  1.0000
  C   C1378     1.0  0.25360  0.78919  0.86251  1.0000
  H   H2408     1.0  0.35894  0.84202  0.83601  1.0000
  H   H2409     1.0  0.23597  0.78226  0.85152  1.0000
  H   H2410     1.0  0.26803  0.78714  0.86158  1.0000
  H   H2411     1.0  0.24776  0.80350  0.85948  1.0000
  H   H2412     1.0  0.24731  0.78350  0.87605  1.0000
  H   H2413     1.0  0.40908  0.97058  0.81341  1.0000
  S   S304      1.0  0.46324  0.78024  0.88694  1.0000
  C   C1379     1.0  0.17890  0.79812  0.74049  1.0000
  S   S305      1.0  0.49315  0.86766  0.74241  1.0000
  C   C1380     1.0  0.15147  0.77741  0.94455  1.0000
  S   S306      1.0  0.47222  0.88549  0.77653  1.0000
  H   H2414     1.0  0.42789  0.81808  0.78241  1.0000
  C   C1381     1.0  0.13437  0.90690  0.70890  1.0000
  C   C1382     1.0  0.24008  0.79658  0.80986  1.0000
  H   H2415     1.0  0.13240  0.83338  0.72586  1.0000
  N   N78       1.0  0.25498  0.78248  0.81641  1.0000
  H   H2416     1.0  0.29473  0.78842  0.76978  1.0000
  H   H2417     1.0  0.30454  0.73460  0.91365  1.0000
  H   H2418     1.0  0.45228  0.92204  0.79204  1.0000
  H   H2419     1.0  0.13930  0.76702  0.77881  1.0000
  C   C1383     1.0  0.17400  0.91053  0.78553  1.0000
  S   S307      1.0  0.46581  0.84205  0.72944  1.0000
  C   C1384     1.0  0.47791  0.94978  0.74259  1.0000
  H   H2420     1.0  0.21970  0.78339  0.95560  1.0000
  C   C1385     1.0  0.08460  0.89015  0.69998  1.0000
  H   H2421     1.0  0.13535  0.79688  0.74641  1.0000
  S   S308      1.0  0.46483  0.84848  0.77480  1.0000
  C   C1386     1.0  0.20582  0.77469  0.79689  1.0000
  H   H2422     1.0  0.17701  0.76695  0.83606  1.0000
  H   H2423     1.0  0.13009  0.93608  0.72052  1.0000
  H   H2424     1.0  0.25366  0.87730  0.66207  1.0000
  S   S309      1.0  0.11980  0.86468  0.65905  1.0000
  H   H2425     1.0  0.21299  0.79523  0.74362  1.0000
  C   C1387     1.0  0.35895  0.79489  0.80895  1.0000
  H   H2426     1.0  0.25827  0.80154  0.82853  1.0000
  C   C1388     1.0  0.31555  0.82748  0.82784  1.0000
  S   S310      1.0  0.20964  0.87046  0.74440  1.0000
  H   H2427     1.0  0.13539  0.91877  0.69822  1.0000
  H   H2428     1.0  0.26818  0.77629  0.79112  1.0000
  H   H2429     1.0  0.47099  0.90328  0.81205  1.0000
  H   H2430     1.0  0.42904  0.80439  0.74256  1.0000
  Fe  Fe152     1.0  0.31430  0.78351  0.84873  1.0000
  S   S311      1.0  0.12942  0.82612  0.64884  1.0000
  H   H2431     1.0  0.05694  0.92695  0.71209  1.0000
  H   H2432     1.0  0.21215  0.75367  0.94106  1.0000
  H   H2433     1.0  0.16443  0.91325  0.67750  1.0000
  Fe  Fe153     1.0  0.46817  0.85878  0.74592  1.0000
  C   C1389     1.0  0.24485  0.78858  0.92709  1.0000
  C   C1390     1.0  0.47912  0.95930  0.75390  1.0000
  H   H2434     1.0  0.47349  0.95665  0.73068  1.0000
  H   H2435     1.0  0.34854  0.81432  0.76621  1.0000
  C   C1391     1.0  0.40371  0.74127  0.93557  1.0000
  H   H2436     1.0  0.45541  0.83118  0.70448  1.0000
  C   C1392     1.0  0.35248  0.80128  0.76279  1.0000
  C   C1393     1.0  0.12176  0.91195  0.72539  1.0000
  H   H2437     1.0  0.14264  0.78778  0.95069  1.0000
  H   H2438     1.0  0.44037  0.82252  0.82105  1.0000
  H   H2439     1.0  0.18105  0.95029  0.71539  1.0000
  C   C1394     1.0  0.17827  0.96420  0.71007  1.0000
  Fe  Fe154     1.0  0.10263  0.85284  0.68374  1.0000
  H   H2440     1.0  0.03601  0.78021  0.71284  1.0000
  C   C1395     1.0  0.23587  0.78450  0.91470  1.0000
  Fe  Fe155     1.0  0.48872  0.85935  0.77154  1.0000
  C   C1396     1.0  0.42418  0.79543  0.69773  1.0000
  N   N79       1.0  0.21975  0.77668  0.92302  1.0000
  H   H2441     1.0  0.46322  0.79266  0.92003  1.0000
  H   H2442     1.0  0.46850  0.84111  0.83004  1.0000
  H   H2443     1.0  0.42907  0.80669  0.83711  1.0000
  C   C1397     1.0  0.43069  0.81430  0.82338  1.0000
  C   C1398     1.0  0.48249  0.93147  0.74665  1.0000
  C   C1399     1.0  0.31360  0.95157  0.68163  1.0000
  H   H2444     1.0  0.40868  0.74435  0.77308  1.0000
  S   S312      1.0  0.08512  0.86759  0.70401  1.0000
  H   H2445     1.0  0.06489  0.96770  0.66005  1.0000
  C   C1400     1.0  0.14945  0.77581  0.92863  1.0000
  C   C1401     1.0  0.20265  0.79308  0.89813  1.0000
  C   C1402     1.0  0.12849  0.92472  0.73169  1.0000
  H   H2446     1.0  0.05904  0.89506  0.71732  1.0000
  S   S313      1.0  0.44803  0.77039  0.85018  1.0000
  Fe  Fe156     1.0  0.11110  0.81737  0.67404  1.0000
  C   C1403     1.0  0.19768  0.83775  0.66848  1.0000
  H   H2447     1.0  0.06141  0.93783  0.66359  1.0000
  H   H2448     1.0  0.13570  0.93445  0.76080  1.0000
  C   C1404     1.0  0.01375  0.81113  0.71624  1.0000
  H   H2449     1.0  0.13398  0.73398  0.90254  1.0000
  H   H2450     1.0  0.43063  0.86192  0.74337  1.0000
  H   H2451     1.0  0.27439  0.78175  0.83060  1.0000
  S   S314      1.0  0.36176  0.88410  0.74392  1.0000
  H   H2452     1.0  0.19082  0.79958  0.90673  1.0000
  C   C1405     1.0  0.39634  0.77088  0.85336  1.0000
  C   C1406     1.0  0.37284  0.83487  0.83660  1.0000
  H   H2453     1.0  0.32938  0.84718  0.82631  1.0000
  H   H2454     1.0  0.40470  0.80837  0.81102  1.0000
  H   H2455     1.0  0.24361  0.80964  0.80586  1.0000
  H   H2456     1.0  0.41650  0.78614  0.69745  1.0000
  H   H2457     1.0  0.19112  0.82099  0.73057  1.0000
  H   H2458     1.0  0.13867  0.85941  0.73122  1.0000
  H   H2459     1.0  0.40058  0.81492  0.72131  1.0000
  N   N80       1.0  0.16036  0.80513  0.73734  1.0000
  C   C1407     1.0  0.32426  0.84121  0.81905  1.0000
  H   H2460     1.0  0.35041  0.84070  0.86839  1.0000
  H   H2461     1.0  0.31372  0.82309  0.84187  1.0000
  Fe  Fe157     1.0  0.20145  0.85114  0.73503  1.0000
  H   H2462     1.0  0.21908  0.76950  0.79014  1.0000
  S   S315      1.0  0.20551  0.74634  0.87521  1.0000
  H   H2463     1.0  0.43997  0.84953  0.84534  1.0000
  H   H2464     1.0  0.12478  0.91114  0.64828  1.0000
  S   S316      1.0  0.34746  0.84932  0.74470  1.0000
  H   H2465     1.0  0.21672  0.78697  0.82737  1.0000
  H   H2466     1.0  0.16235  0.83220  0.73035  1.0000
  S   S317      1.0  0.12981  0.94796  0.66747  1.0000
  H   H2467     1.0  0.33250  0.78970  0.93555  1.0000
  H   H2468     1.0  0.16753  0.93251  0.65070  1.0000
  C   C1408     1.0  0.47525  0.77658  0.95908  1.0000
  C   C1409     1.0  0.42553  0.82059  0.76910  1.0000
  H   H2469     1.0  0.38332  0.77572  0.86080  1.0000
  H   H2470     1.0  0.16347  0.77714  0.72071  1.0000
  H   H2471     1.0  0.04866  0.91542  0.65083  1.0000
  H   H2472     1.0  0.17282  0.85559  0.71012  1.0000
  H   H2473     1.0  0.46847  0.78727  0.81614  1.0000
  H   H2474     1.0  0.44601  0.80380  0.97369  1.0000
  H   H2475     1.0  0.18368  0.78501  0.71210  1.0000
  H   H2476     1.0  0.42838  0.94161  0.69564  1.0000
  S   S318      1.0  0.32134  0.78644  0.90635  1.0000
  S   S319      1.0  0.21817  0.96911  0.74929  1.0000
  H   H2477     1.0  0.16438  0.75499  0.79752  1.0000
  H   H2478     1.0  0.05216  0.79393  0.67428  1.0000
  S   S320      1.0  0.02437  0.75894  0.65818  1.0000
  C   C1410     1.0  0.44368  0.83886  0.71140  1.0000
  H   H2479     1.0  0.36976  0.86487  0.81011  1.0000
  C   C1411     1.0  0.18399  0.75174  0.77421  1.0000
  H   H2480     1.0  0.16556  0.81633  0.70947  1.0000
  Fe  Fe158     1.0  0.32512  0.77545  0.88296  1.0000
  S   S321      1.0  0.15716  0.95718  0.69307  1.0000
  H   H2481     1.0  0.40494  0.80976  0.95600  1.0000
  H   H2482     1.0  0.04073  0.85544  0.64603  1.0000
  C   C1412     1.0  0.03978  0.76400  0.69497  1.0000
  H   H2483     1.0  0.27361  0.74540  0.81388  1.0000
  C   C1413     1.0  0.21182  0.79776  0.72988  1.0000
  H   H2484     1.0  0.17785  0.94326  0.66034  1.0000
  H   H2485     1.0  0.09338  0.90972  0.65473  1.0000
  C   C1414     1.0  0.19371  0.79946  0.96215  1.0000
  H   H2486     1.0  0.11016  0.88948  0.68230  1.0000
  H   H2487     1.0  0.07119  0.95129  0.72838  1.0000
  H   H2488     1.0  0.45220  0.90314  0.83035  1.0000
  C   C1415     1.0  0.44677  0.92130  0.80615  1.0000
  H   H2489     1.0  0.28257  0.77206  0.80557  1.0000
  S   S322      1.0  0.33603  0.79013  0.85620  1.0000
  N   N81       1.0  0.28602  0.96346  0.70368  1.0000
  H   H2490     1.0  0.40203  0.74877  0.79468  1.0000
  C   C1416     1.0  0.43862  0.74369  0.91033  1.0000
  C   C1417     1.0  0.12996  0.85142  0.74147  1.0000
  H   H2491     1.0  0.15590  0.82421  0.75295  1.0000
  H   H2492     1.0  0.11600  0.85759  0.74049  1.0000
  C   C1418     1.0  0.36949  0.81283  0.82350  1.0000
  C   C1419     1.0  0.37267  0.82310  0.85524  1.0000
  C   C1420     1.0  0.36435  0.83408  0.86910  1.0000
  H   H2493     1.0  0.35524  0.81957  0.82551  1.0000
  H   H2494     1.0  0.37077  0.80204  0.83527  1.0000
  H   H2495     1.0  0.36481  0.81302  0.85808  1.0000
  H   H2496     1.0  0.36440  0.82545  0.88231  1.0000
  H   H2497     1.0  0.36369  0.78589  0.79984  1.0000
  H   H2498     1.0  0.35478  0.78700  0.82216  1.0000
  H   H2499     1.0  0.15823  0.78826  0.77387  1.0000
  H   H2500     1.0  0.29806  0.80870  0.77172  1.0000
  H   H2501     1.0  0.24597  0.85190  0.74116  1.0000
  C   C1421     1.0  0.40544  0.80083  0.72719  1.0000
  C   C1422     1.0  0.26000  0.78705  0.83084  1.0000
  C   C1423     1.0  0.14555  0.79298  0.76947  1.0000
  H   H2502     1.0  0.02549  0.76684  0.69486  1.0000
  C   C1424     1.0  0.19931  0.76649  0.81413  1.0000
  H   H2503     1.0  0.26713  0.80764  0.78368  1.0000
  H   H2504     1.0  0.13150  0.85149  0.75455  1.0000
  H   H2505     1.0  0.45379  0.89267  0.81299  1.0000
  C   C1425     1.0  0.22186  0.79915  0.82276  1.0000
  S   S323      1.0  0.33073  0.75808  0.84206  1.0000
  H   H2506     1.0  0.13923  0.80619  0.77224  1.0000
  H   H2507     1.0  0.19284  0.80980  0.71389  1.0000
  H   H2508     1.0  0.37988  0.84513  0.83562  1.0000
  N   N82       1.0  0.38073  0.82565  0.82158  1.0000
  H   H2509     1.0  0.23802  0.79407  0.79790  1.0000
  H   H2510     1.0  0.21508  0.78507  0.72585  1.0000
  H   H2511     1.0  0.15833  0.79348  0.82091  1.0000
  H   H2512     1.0  0.37115  0.76296  0.91230  1.0000
  Fe  Fe159     1.0  0.19996  0.97320  0.77486  1.0000
  C   C1426     1.0  0.27081  0.78149  0.80119  1.0000
  H   H2513     1.0  0.43904  0.75958  0.96629  1.0000
  H   H2514     1.0  0.42647  0.83567  0.69715  1.0000
  Fe  Fe160     1.0  0.13699  0.96841  0.67616  1.0000
  H   H2515     1.0  0.30525  0.78857  0.78668  1.0000
  C   C1427     1.0  0.15402  0.82362  0.74016  1.0000
  H   H2516     1.0  0.12516  0.82541  0.74902  1.0000
  Fe  Fe161     1.0  0.36601  0.86585  0.72630  1.0000
  H   H2517     1.0  0.27749  0.80613  0.80112  1.0000
  S   S324      1.0  0.48031  0.91983  0.73254  1.0000
  H   H2518     1.0  0.28819  0.75882  0.92891  1.0000
  H   H2519     1.0  0.14774  0.90018  0.71148  1.0000
  H   H2520     1.0  0.22281  0.80358  0.83403  1.0000
  H   H2521     1.0  0.42340  0.79391  0.77357  1.0000
  H   H2522     1.0  0.43853  0.81983  0.75964  1.0000
  H   H2523     1.0  0.24480  0.76291  0.81136  1.0000
  H   H2524     1.0  0.38872  0.95419  0.80471  1.0000
  H   H2525     1.0  0.45011  0.93213  0.80949  1.0000
  N   N83       1.0  0.41517  0.93776  0.80065  1.0000
  C   C1428     1.0  0.42254  0.95413  0.79431  1.0000
  C   C1429     1.0  0.41299  0.93268  0.78509  1.0000
  C   C1430     1.0  0.39687  0.94239  0.81191  1.0000
  C   C1431     1.0  0.42639  0.92268  0.81123  1.0000
  H   H2526     1.0  0.49386  0.96272  0.82311  1.0000
  H   H2527     1.0  0.42706  0.95334  0.82006  1.0000
  C   C1432     1.0  0.38603  0.92784  0.81851  1.0000
  C   C1433     1.0  0.43010  0.92716  0.77163  1.0000
  C   C1434     1.0  0.17592  0.75209  0.94466  1.0000
  H   H2528     1.0  0.14593  0.80845  0.71748  1.0000
  C   C1435     1.0  0.29389  0.96149  0.68512  1.0000
  C   C1436     1.0  0.36958  0.93263  0.83255  1.0000
  H   H2529     1.0  0.43243  0.80478  0.95919  1.0000
  H   H2530     1.0  0.43622  0.95154  0.78633  1.0000
  H   H2531     1.0  0.40671  0.92120  0.78932  1.0000
  H   H2532     1.0  0.40380  0.94361  0.77809  1.0000
  H   H2533     1.0  0.28001  0.74285  0.87149  1.0000
  H   H2534     1.0  0.39767  0.94605  0.82376  1.0000
  H   H2535     1.0  0.42228  0.92316  0.82532  1.0000
  H   H2536     1.0  0.42402  0.90997  0.81079  1.0000
  C   C1437     1.0  0.17843  0.92153  0.79342  1.0000
  H   H2537     1.0  0.21179  0.82645  0.81088  1.0000
  C   C1438     1.0  0.15987  0.80547  0.71890  1.0000
  H   H2538     1.0  0.40746  0.76962  0.91078  1.0000
  H   H2539     1.0  0.39407  0.91509  0.82416  1.0000
  H   H2540     1.0  0.38132  0.92619  0.80765  1.0000
  H   H2541     1.0  0.13002  0.73772  0.93211  1.0000
  C   C1439     1.0  0.38563  0.86758  0.78393  1.0000
  H   H2542     1.0  0.34859  0.76760  0.95686  1.0000
  H   H2543     1.0  0.20258  0.92354  0.70963  1.0000
  H   H2544     1.0  0.43818  0.92277  0.74538  1.0000
  C   C1440     1.0  0.14858  0.79334  0.74977  1.0000
  H   H2545     1.0  0.39968  0.80483  0.83389  1.0000
  H   H2546     1.0  0.04189  0.83027  0.71711  1.0000
  H   H2547     1.0  0.15417  0.77955  0.74833  1.0000
  C   C1441     1.0  0.20816  0.81354  0.81407  1.0000
  H   H2548     1.0  0.36172  0.92235  0.83656  1.0000
  H   H2549     1.0  0.37343  0.93354  0.84425  1.0000
  H   H2550     1.0  0.36116  0.94542  0.82745  1.0000
  H   H2551     1.0  0.34728  0.80499  0.80531  1.0000
  H   H2552     1.0  0.37475  0.86852  0.77765  1.0000
  C   C1442     1.0  0.33545  0.77592  0.93537  1.0000
  C   C1443     1.0  0.16751  0.79033  0.69368  1.0000
  C   C1444     1.0  0.13027  0.75356  0.83818  1.0000
  C   C1445     1.0  0.43213  0.86459  0.82144  1.0000
  C   C1446     1.0  0.06977  0.90078  0.70851  1.0000
  C   C1447     1.0  0.44000  0.93895  0.70152  1.0000
  H   H2553     1.0  0.31095  0.96266  0.70965  1.0000
  C   C1448     1.0  0.23648  0.74402  0.92399  1.0000
  C   C1449     1.0  0.42907  0.85700  0.83936  1.0000
  C   C1450     1.0  0.04115  0.79634  0.68566  1.0000
  S   S325      1.0  0.21133  0.84943  0.70687  1.0000
  H   H2554     1.0  0.40261  0.80972  0.77672  1.0000
  H   H2555     1.0  0.38657  0.88101  0.78357  1.0000
  H   H2556     1.0  0.42580  0.73859  0.89318  1.0000
  C   C1451     1.0  0.17972  0.85026  0.69871  1.0000
  C   C1452     1.0  0.38005  0.83869  0.80428  1.0000
  C   C1453     1.0  0.46240  0.76668  0.96771  1.0000
  H   H2557     1.0  0.18188  0.92580  0.68569  1.0000
  C   C1454     1.0  0.41318  0.85861  0.72926  1.0000
  C   C1455     1.0  0.41156  0.77398  0.85628  1.0000
  C   C1456     1.0  0.33093  0.77067  0.92260  1.0000
  H   H2558     1.0  0.38993  0.88633  0.81864  1.0000
  H   H2559     1.0  0.41717  0.93781  0.74958  1.0000
  S   S326      1.0  0.42107  0.79790  0.88638  1.0000
  H   H2560     1.0  0.13012  0.90592  0.76269  1.0000
  H   H2561     1.0  0.44533  0.91118  0.70193  1.0000
  Fe  Fe162     1.0  0.42905  0.82378  0.87664  1.0000
  H   H2562     1.0  0.07396  0.76013  0.65835  1.0000
  H   H2563     1.0  0.38616  0.79318  0.80863  1.0000
  H   H2564     1.0  0.37705  0.77130  0.92760  1.0000
  H   H2565     1.0  0.40843  0.83464  0.82994  1.0000
  H   H2566     1.0  0.35325  0.79092  0.77488  1.0000
  H   H2567     1.0  0.37546  0.81277  0.79530  1.0000
  C   C1457     1.0  0.13576  0.95489  0.73805  1.0000
  C   C1458     1.0  0.23993  0.87517  0.66609  1.0000
  H   H2568     1.0  0.17919  0.79895  0.75377  1.0000
  C   C1459     1.0  0.46280  0.78554  0.93337  1.0000
  C   C1460     1.0  0.39781  0.87029  0.84228  1.0000
  S   S327      1.0  0.39168  0.85198  0.71170  1.0000
  N   N84       1.0  0.11721  0.93052  0.74812  1.0000
  H   H2569     1.0  0.19489  0.81434  0.82304  1.0000
  C   C1461     1.0  0.02241  0.82165  0.69851  1.0000
  C   C1462     1.0  0.11655  0.91424  0.76267  1.0000
  H   H2570     1.0  0.20764  0.92405  0.64928  1.0000
  H   H2571     1.0  0.43587  0.80509  0.81442  1.0000
  C   C1463     1.0  0.40088  0.87817  0.82444  1.0000
  H   H2572     1.0  0.44819  0.83495  0.95967  1.0000
  C   C1464     1.0  0.45723  0.73540  0.90135  1.0000
  C   C1465     1.0  0.04711  0.82589  0.67357  1.0000
  H   H2573     1.0  0.23016  0.90009  0.65031  1.0000
  H   H2574     1.0  0.23571  0.79891  0.93375  1.0000
  C   C1466     1.0  0.18241  0.93765  0.78362  1.0000
  H   H2575     1.0  0.17988  0.88103  0.66045  1.0000
  C   C1467     1.0  0.37545  0.78902  0.90289  1.0000
  C   C1468     1.0  0.05381  0.80984  0.70181  1.0000
  C   C1469     1.0  0.44932  0.76679  0.95941  1.0000
  S   S328      1.0  0.30182  0.77126  0.87603  1.0000
  C   C1470     1.0  0.37380  0.80353  0.80813  1.0000
  H   H2576     1.0  0.09153  0.92958  0.74540  1.0000
  H   H2577     1.0  0.09084  0.76241  0.67855  1.0000
  H   H2578     1.0  0.18336  0.78389  0.74040  1.0000
  H   H2579     1.0  0.17444  0.77800  0.68915  1.0000
  H   H2580     1.0  0.38164  0.80407  0.76847  1.0000
  H   H2581     1.0  0.06981  0.83296  0.72215  1.0000
  H   H2582     1.0  0.38298  0.79754  0.90492  1.0000
  S   S329      1.0  0.40768  0.84793  0.87144  1.0000
  C   C1471     1.0  0.41187  0.85933  0.84965  1.0000
  S   S330      1.0  0.49440  0.81437  0.87226  1.0000
  C   C1472     1.0  0.38211  0.85745  0.80290  1.0000
  H   H2583     1.0  0.46400  0.91838  0.70322  1.0000
  C   C1473     1.0  0.16930  0.78833  0.71231  1.0000
  S   S331      1.0  0.42117  0.88364  0.79154  1.0000
  C   C1474     1.0  0.41795  0.87492  0.81397  1.0000
  C   C1475     1.0  0.15196  0.89097  0.66799  1.0000
  Fe  Fe163     1.0  0.32018  0.74632  0.87006  1.0000
  H   H2584     1.0  0.43064  0.78123  0.72244  1.0000
  H   H2585     1.0  0.48748  0.80343  0.77891  1.0000
  H   H2586     1.0  0.10322  0.90226  0.80823  1.0000
  H   H2587     1.0  0.27320  0.75131  0.83353  1.0000
  H   H2588     1.0  0.43772  0.91414  0.77725  1.0000
  C   C1476     1.0  0.42573  0.92549  0.75526  1.0000
  C   C1477     1.0  0.08816  0.77326  0.66771  1.0000
  H   H2589     1.0  0.27461  0.94820  0.72857  1.0000
  H   H2590     1.0  0.41081  0.82268  0.74318  1.0000
  H   H2591     1.0  0.39840  0.86115  0.77642  1.0000
  N   N85       1.0  0.40552  0.74262  0.91639  1.0000
  H   H2592     1.0  0.41738  0.83409  0.76602  1.0000
  C   C1478     1.0  0.19831  0.84648  0.69430  1.0000
  H   H2593     1.0  0.15579  0.85000  0.69157  1.0000
  C   C1479     1.0  0.48573  0.95059  0.76890  1.0000
  C   C1480     1.0  0.22670  0.89286  0.66407  1.0000
  C   C1481     1.0  0.18587  0.97500  0.71515  1.0000
  H   H2594     1.0  0.26813  0.93526  0.70614  1.0000
  H   H2595     1.0  0.18592  0.74271  0.95094  1.0000
  C   C1482     1.0  0.34409  0.74041  0.93431  1.0000
  H   H2596     1.0  0.41880  0.91458  0.75838  1.0000
  C   C1483     1.0  0.41593  0.80718  0.76825  1.0000
  C   C1484     1.0  0.39942  0.81540  0.82189  1.0000
  H   H2597     1.0  0.27692  0.90470  0.72011  1.0000
  H   H2598     1.0  0.40314  0.76352  0.89347  1.0000
  Fe  Fe164     1.0  0.44893  0.87573  0.77630  1.0000
  C   C1485     1.0  0.42445  0.79483  0.71653  1.0000
  H   H2599     1.0  0.38504  0.74752  0.89040  1.0000
  C   C1486     1.0  0.28470  0.94603  0.71643  1.0000
  C   C1487     1.0  0.28101  0.93138  0.70999  1.0000
  H   H2600     1.0  0.29725  0.93993  0.72098  1.0000
  C   C1488     1.0  0.42731  0.84141  0.70726  1.0000
  H   H2601     1.0  0.49283  0.81449  0.83738  1.0000
  H   H2602     1.0  0.08409  0.93941  0.65425  1.0000
  H   H2603     1.0  0.39025  0.83338  0.79357  1.0000
  C   C1489     1.0  0.17011  0.84735  0.68811  1.0000
  C   C1490     1.0  0.25290  0.96890  0.70273  1.0000
  C   C1491     1.0  0.39841  0.80067  0.96723  1.0000
  S   S332      1.0  0.49068  0.96285  0.78071  1.0000
  C   C1492     1.0  0.31915  0.94604  0.66415  1.0000
  H   H2604     1.0  0.38134  0.82054  0.74928  1.0000
  C   C1493     1.0  0.28099  0.91458  0.72429  1.0000
  C   C1494     1.0  0.09387  0.78870  0.66538  1.0000
  Fe  Fe165     1.0  0.35177  0.76370  0.85156  1.0000
  H   H2605     1.0  0.48570  0.79324  0.93496  1.0000
  S   S333      1.0  0.43250  0.77730  0.93231  1.0000
  H   H2606     1.0  0.18007  0.80139  0.96034  1.0000
  C   C1495     1.0  0.17919  0.84098  0.67298  1.0000
  C   C1496     1.0  0.46703  0.79019  0.78115  1.0000
  H   H2607     1.0  0.02250  0.80674  0.72569  1.0000
  H   H2608     1.0  0.48408  0.81892  0.95883  1.0000
  H   H2609     1.0  0.27175  0.91734  0.73659  1.0000
  C   C1497     1.0  0.40896  0.77885  0.75446  1.0000
  H   H2610     1.0  0.29144  0.92781  0.69864  1.0000
  H   H2611     1.0  0.42360  0.77509  0.75322  1.0000
  C   C1498     1.0  0.41200  0.85109  0.71626  1.0000
  H   H2612     1.0  0.39318  0.85724  0.80841  1.0000
  C   C1499     1.0  0.99637  0.82223  0.72453  1.0000
  H   H2613     1.0  0.29453  0.90887  0.72677  1.0000
  H   H2614     1.0  0.18642  0.89481  0.70649  1.0000
  H   H2615     1.0  0.18923  0.80269  0.87652  1.0000
  C   C1500     1.0  0.41504  0.80855  0.74926  1.0000
  H   H2616     1.0  0.12328  0.89271  0.79448  1.0000
  C   C1501     1.0  0.20717  0.84049  0.67904  1.0000
  N   N86       1.0  0.40339  0.79822  0.74668  1.0000
  H   H2617     1.0  0.40137  0.86603  0.73633  1.0000
  C   C1502     1.0  0.07642  0.96183  0.73009  1.0000
  C   C1503     1.0  0.19617  0.79000  0.88359  1.0000
  H   H2618     1.0  0.20749  0.78410  0.87409  1.0000
  H   H2619     1.0  0.18670  0.78118  0.88915  1.0000
  H   H2620     1.0  0.39703  0.79359  0.72448  1.0000
  H   H2621     1.0  0.22150  0.83777  0.67543  1.0000
  N   N87       1.0  0.19304  0.90667  0.66959  1.0000
  S   S334      1.0  0.06316  0.73454  0.64355  1.0000
  S   S335      1.0  0.45248  0.81440  0.85646  1.0000
  C   C1504     1.0  0.07058  0.94324  0.65164  1.0000
  H   H2622     1.0  0.47065  0.81459  0.82070  1.0000
  H   H2623     1.0  0.40033  0.78025  0.78249  1.0000
  S   S336      1.0  0.10441  0.79083  0.68066  1.0000
  H   H2624     1.0  0.05828  0.77505  0.70061  1.0000
  H   H2625     1.0  0.28598  0.95489  0.68092  1.0000
  H   H2626     1.0  0.41963  0.96901  0.75404  1.0000
  C   C1505     1.0  0.17083  0.89394  0.66168  1.0000
  H   H2627     1.0  0.22547  0.97810  0.70030  1.0000
  C   C1506     1.0  0.40002  0.77213  0.77383  1.0000
  C   C1507     1.0  0.38427  0.80598  0.75412  1.0000
  H   H2628     1.0  0.46369  0.79866  0.76873  1.0000
  C   C1508     1.0  0.44941  0.77636  0.94229  1.0000
  C   C1509     1.0  0.41302  0.82623  0.82028  1.0000
  N   N88       1.0  0.04092  0.81320  0.69027  1.0000
  H   H2629     1.0  0.46604  0.81195  0.79147  1.0000
  H   H2630     1.0  0.20543  0.88030  0.68089  1.0000
  H   H2631     1.0  0.10880  0.90592  0.76059  1.0000
  H   H2632     1.0  0.40623  0.77080  0.74690  1.0000
  C   C1510     1.0  0.29420  0.97964  0.75743  1.0000
  H   H2633     1.0  0.36786  0.80680  0.73652  1.0000
  Fe  Fe166     1.0  0.10847  0.85083  0.64599  1.0000
  S   S337      1.0  0.45090  0.88526  0.74750  1.0000
  Fe  Fe167     1.0  0.43904  0.79220  0.90471  1.0000
  H   H2634     1.0  0.12019  0.78515  0.77735  1.0000
  H   H2635     1.0  0.20541  0.80226  0.92804  1.0000
  C   C1511     1.0  0.37025  0.79917  0.74959  1.0000
  C   C1512     1.0  0.07858  0.77196  0.65631  1.0000
  H   H2636     1.0  0.06741  0.80431  0.69489  1.0000
  H   H2637     1.0  0.15334  0.79311  0.69309  1.0000
  C   C1513     1.0  0.42975  0.85630  0.73321  1.0000
  C   C1514     1.0  0.44427  0.82690  0.95304  1.0000
  H   H2638     1.0  0.33341  0.93937  0.66191  1.0000
  H   H2639     1.0  0.10852  0.91813  0.72230  1.0000
  S   S338      1.0  0.12262  0.82779  0.69017  1.0000
  H   H2640     1.0  0.13907  0.78494  0.92258  1.0000
  H   H2641     1.0  0.24852  0.73527  0.84943  1.0000
  C   C1515     1.0  0.47556  0.78585  0.94183  1.0000
  C   C1516     1.0  0.44500  0.84629  0.72434  1.0000
  H   H2642     1.0  0.48123  0.73923  0.93464  1.0000
  H   H2643     1.0  0.31136  0.93669  0.66422  1.0000
  H   H2644     1.0  0.27086  0.78677  0.90895  1.0000
  H   H2645     1.0  0.13169  0.78056  0.79469  1.0000
  H   H2646     1.0  0.17358  0.80117  0.68463  1.0000
  H   H2647     1.0  0.41564  0.83452  0.80690  1.0000
  H   H2648     1.0  0.19222  0.78625  0.93477  1.0000
  H   H2649     1.0  0.34198  0.79994  0.75719  1.0000
  H   H2650     1.0  0.48161  0.78631  0.84013  1.0000
  H   H2651     1.0  0.37488  0.78510  0.74900  1.0000
  H   H2652     1.0  0.38593  0.77227  0.77495  1.0000
  H   H2653     1.0  0.01327  0.82408  0.68970  1.0000
  S   S339      1.0  0.44477  0.81910  0.89680  1.0000
  H   H2654     1.0  0.44540  0.86241  0.81341  1.0000
  H   H2655     1.0  0.12096  0.89954  0.73531  1.0000
  S   S340      1.0  0.07970  0.94930  0.69081  1.0000
  H   H2656     1.0  0.00360  0.81447  0.65435  1.0000
  H   H2657     1.0  0.14222  0.91832  0.73357  1.0000
  C   C1517     1.0  0.06446  0.88871  0.65340  1.0000
  C   C1518     1.0  0.20561  0.78813  0.93415  1.0000
  H   H2658     1.0  0.23246  0.79717  0.90544  1.0000
  Fe  Fe168     1.0  0.44569  0.78811  0.86782  1.0000
  H   H2659     1.0  0.20249  0.76684  0.91383  1.0000
  C   C1519     1.0  0.21221  0.77547  0.90849  1.0000
  C   C1520     1.0  0.20633  0.78473  0.95367  1.0000
  H   H2660     1.0  0.04287  0.75159  0.70473  1.0000
  H   H2661     1.0  0.10808  0.92161  0.67712  1.0000
  C   C1521     1.0  0.26806  0.97588  0.70469  1.0000
  C   C1522     1.0  0.09852  0.89765  0.68870  1.0000
  H   H2662     1.0  0.09408  0.92410  0.78277  1.0000
  H   H2663     1.0  0.38955  0.74530  0.94198  1.0000
  H   H2664     1.0  0.26811  0.79767  0.92616  1.0000
  C   C1523     1.0  0.06859  0.91883  0.70556  1.0000
  H   H2665     1.0  0.12922  0.89783  0.70464  1.0000
  Fe  Fe169     1.0  0.47537  0.89318  0.74743  1.0000
  H   H2666     1.0  0.26961  0.74810  0.93788  1.0000
  C   C1524     1.0  0.08234  0.92644  0.69426  1.0000
  Fe  Fe170     1.0  0.13907  0.83890  0.66446  1.0000
  H   H2667     1.0  0.06168  0.82181  0.66875  1.0000
  H   H2668     1.0  0.18309  0.74053  0.92213  1.0000
  C   C1525     1.0  0.26131  0.79585  0.91691  1.0000
  H   H2669     1.0  0.41637  0.74856  0.82099  1.0000
  H   H2670     1.0  0.25754  0.80876  0.90807  1.0000
  H   H2671     1.0  0.24893  0.77669  0.93698  1.0000
  H   H2672     1.0  0.20477  0.83295  0.65678  1.0000
  H   H2673     1.0  0.24610  0.77590  0.90663  1.0000
  H   H2674     1.0  0.25686  0.96310  0.69108  1.0000
  H   H2675     1.0  0.01051  0.79954  0.71423  1.0000
  C   C1526     1.0  0.16458  0.76550  0.95271  1.0000
  H   H2676     1.0  0.20220  0.77226  0.96095  1.0000
  H   H2677     1.0  0.23114  0.75826  0.94415  1.0000
  C   C1527     1.0  0.09841  0.93926  0.74641  1.0000
  C   C1528     1.0  0.42267  0.96310  0.80870  1.0000
  Fe  Fe171     1.0  0.20306  0.73680  0.85290  1.0000
  H   H2678     1.0  0.22285  0.76917  0.89866  1.0000
  C   C1529     1.0  0.17419  0.75077  0.92841  1.0000
  C   C1530     1.0  0.09594  0.95527  0.73103  1.0000
  C   C1531     1.0  0.22450  0.75836  0.93390  1.0000
  H   H2679     1.0  0.19447  0.96931  0.72430  1.0000
  H   H2680     1.0  0.29213  0.97195  0.72372  1.0000
  C   C1532     1.0  0.43175  0.97438  0.74992  1.0000
  H   H2681     1.0  0.05099  0.79967  0.71385  1.0000
  S   S341      1.0  0.15745  0.76073  0.90078  1.0000
  C   C1533     1.0  0.16077  0.76252  0.92052  1.0000
  C   C1534     1.0  0.12558  0.94242  0.75307  1.0000
  H   H2682     1.0  0.23843  0.76463  0.83331  1.0000
  H   H2683     1.0  0.04777  0.76196  0.68194  1.0000
  C   C1535     1.0  0.19405  0.91542  0.68320  1.0000
  C   C1536     1.0  0.34440  0.76339  0.94754  1.0000
  H   H2684     1.0  0.37588  0.78865  0.97270  1.0000
  H   H2685     1.0  0.37247  0.81121  0.96051  1.0000
  H   H2686     1.0  0.47621  0.77783  0.77821  1.0000
  H   H2687     1.0  0.19676  0.90551  0.72698  1.0000
  H   H2688     1.0  0.23856  0.86708  0.65782  1.0000
  H   H2689     1.0  0.20670  0.88408  0.65831  1.0000
  H   H2690     1.0  0.49384  0.90869  0.76425  1.0000
  C   C1537     1.0  0.48273  0.84073  0.82448  1.0000
  C   C1538     1.0  0.19367  0.91415  0.71458  1.0000
  H   H2691     1.0  0.10018  0.96632  0.73290  1.0000
  H   H2692     1.0  0.06838  0.96633  0.74213  1.0000
  C   C1539     1.0  0.03843  0.82832  0.65803  1.0000
  H   H2693     1.0  0.20966  0.89457  0.70034  1.0000
  H   H2694     1.0  0.99993  0.79579  0.64925  1.0000
  C   C1540     1.0  0.39809  0.76170  0.84058  1.0000
  S   S342      1.0  0.10152  0.98007  0.64820  1.0000
  C   C1541     1.0  0.48485  0.81349  0.81406  1.0000
  C   C1542     1.0  0.10824  0.91728  0.78148  1.0000
  H   H2695     1.0  0.05705  0.83713  0.69711  1.0000
  S   S343      1.0  0.38806  0.96287  0.73565  1.0000
  C   C1543     1.0  0.23647  0.98361  0.70069  1.0000
  H   H2696     1.0  0.23775  0.86787  0.67994  1.0000
  C   C1544     1.0  0.05137  0.88124  0.66941  1.0000
  C   C1545     1.0  0.19622  0.90325  0.70126  1.0000
  C   C1546     1.0  0.26484  0.74874  0.82620  1.0000
  H   H2697     1.0  0.32231  0.96019  0.68122  1.0000
  C   C1547     1.0  0.09741  0.91582  0.68588  1.0000
  H   H2698     1.0  0.08247  0.81700  0.70936  1.0000
  H   H2699     1.0  0.04483  0.83920  0.67599  1.0000
  H   H2700     1.0  0.43525  0.93636  0.71589  1.0000
  H   H2701     1.0  0.17965  0.92142  0.71744  1.0000
  H   H2702     1.0  0.36108  0.79466  0.90701  1.0000
  H   H2703     1.0  0.37839  0.78896  0.88879  1.0000
  H   H2704     1.0  0.44879  0.96926  0.79737  1.0000
  H   H2705     1.0  0.45467  0.78710  0.79037  1.0000
  H   H2706     1.0  0.20503  0.92257  0.67838  1.0000
  H   H2707     1.0  0.31613  0.93964  0.69206  1.0000
  H   H2708     1.0  0.02205  0.83490  0.70014  1.0000
  H   H2709     1.0  0.11545  0.95045  0.76182  1.0000
  C   C1548     1.0  0.16688  0.97134  0.69842  1.0000
  H   H2710     1.0  0.14918  0.88477  0.65883  1.0000
  S   S344      1.0  0.17496  0.73421  0.86390  1.0000
  H   H2711     1.0  0.10193  0.89141  0.79231  1.0000
  H   H2712     1.0  0.14229  0.90366  0.66868  1.0000
  H   H2713     1.0  0.35082  0.97588  0.73594  1.0000
  H   H2714     1.0  0.09532  0.81437  0.64895  1.0000
  H   H2715     1.0  0.48770  0.75886  0.83171  1.0000
  H   H2716     1.0  0.46280  0.95019  0.69755  1.0000
  H   H2717     1.0  0.48421  0.84943  0.81123  1.0000
  H   H2718     1.0  0.17430  0.89169  0.68728  1.0000
  H   H2719     1.0  0.05418  0.88243  0.68156  1.0000
  C   C1549     1.0  0.43674  0.96629  0.72086  1.0000
  C   C1550     1.0  0.13937  0.96900  0.74480  1.0000
  H   H2720     1.0  0.29938  0.96565  0.76014  1.0000
  H   H2721     1.0  0.02381  0.83241  0.66172  1.0000
  S   S345      1.0  0.49133  0.77703  0.96949  1.0000
  C   C1551     1.0  0.38006  0.77039  0.91375  1.0000
  C   C1552     1.0  0.45248  0.92208  0.69697  1.0000
  H   H2722     1.0  0.41022  0.75076  0.93753  1.0000
  Fe  Fe172     1.0  0.10193  0.96259  0.67488  1.0000
  H   H2723     1.0  0.48770  0.84592  0.83295  1.0000
  H   H2724     1.0  0.29292  0.97452  0.67589  1.0000
  H   H2725     1.0  0.06383  0.90987  0.66455  1.0000
  H   H2726     1.0  0.47516  0.97347  0.75083  1.0000
  H   H2727     1.0  0.31719  0.95769  0.65328  1.0000
  C   C1553     1.0  0.40907  0.75327  0.78100  1.0000
  H   H2728     1.0  0.46709  0.74104  0.90388  1.0000
  C   C1554     1.0  0.42846  0.76753  0.84675  1.0000
  H   H2729     1.0  0.27645  0.75576  0.91453  1.0000
  H   H2730     1.0  0.18786  0.76416  0.77311  1.0000
  C   C1555     1.0  0.39987  0.76168  0.90790  1.0000
  H   H2731     1.0  0.42306  0.75249  0.78102  1.0000
  H   H2732     1.0  0.06720  0.81055  0.72971  1.0000
  H   H2733     1.0  0.22857  0.90029  0.67264  1.0000
  H   H2734     1.0  0.11529  0.92519  0.78511  1.0000
  C   C1556     1.0  0.43004  0.75842  0.83403  1.0000
  C   C1557     1.0  0.41495  0.75565  0.83087  1.0000
  H   H2735     1.0  0.40749  0.78757  0.96900  1.0000
  H   H2736     1.0  0.29881  0.94189  0.75015  1.0000
  C   C1558     1.0  0.10924  0.89981  0.79490  1.0000
  H   H2737     1.0  0.05280  0.86713  0.67006  1.0000
  C   C1559     1.0  0.06942  0.82123  0.71795  1.0000
  C   C1560     1.0  0.05455  0.82590  0.70810  1.0000
  C   C1561     1.0  0.47577  0.79977  0.78887  1.0000
  H   H2738     1.0  0.43489  0.83549  0.94482  1.0000
  H   H2739     1.0  0.38655  0.79385  0.94996  1.0000
  H   H2740     1.0  0.09066  0.94397  0.75843  1.0000
  H   H2741     1.0  0.12674  0.97741  0.75031  1.0000
  C   C1562     1.0  0.33487  0.75286  0.92238  1.0000
  H   H2742     1.0  0.44729  0.95494  0.72517  1.0000
  C   C1563     1.0  0.38229  0.79852  0.96234  1.0000
  C   C1564     1.0  0.48660  0.82141  0.97051  1.0000
  H   H2743     1.0  0.23016  0.74229  0.91433  1.0000
  C   C1565     1.0  0.06253  0.90859  0.65176  1.0000
  H   H2744     1.0  0.45631  0.82083  0.94433  1.0000
  S   S346      1.0  0.10881  0.98192  0.68550  1.0000
  H   H2745     1.0  0.42425  0.96162  0.72675  1.0000
  H   H2746     1.0  0.44301  0.75343  0.82659  1.0000
  C   C1566     1.0  0.17529  0.90172  0.67480  1.0000
  C   C1567     1.0  0.44937  0.95469  0.69445  1.0000
  H   H2747     1.0  0.07503  0.97305  0.71870  1.0000
  H   H2748     1.0  0.43628  0.75801  0.90471  1.0000
  H   H2749     1.0  0.47780  0.83404  0.97310  1.0000
  H   H2750     1.0  0.10341  0.95194  0.71833  1.0000
  S   S347      1.0  0.37981  0.75775  0.83571  1.0000
  C   C1568     1.0  0.19523  0.91933  0.65206  1.0000
  S   S348      1.0  0.34283  0.74949  0.87896  1.0000
  H   H2751     1.0  0.41818  0.80893  0.69127  1.0000
  H   H2752     1.0  0.28370  0.74586  0.97184  1.0000
  H   H2753     1.0  0.43850  0.74145  0.92436  1.0000
  H   H2754     1.0  0.07795  0.88123  0.65491  1.0000
  H   H2755     1.0  0.03753  0.88821  0.66863  1.0000
  C   C1569     1.0  0.49045  0.93225  0.77298  1.0000
  H   H2756     1.0  0.44283  0.96410  0.75435  1.0000
  H   H2757     1.0  0.35854  0.98144  0.84793  1.0000
  H   H2758     1.0  0.11992  0.74614  0.84602  1.0000
  H   H2759     1.0  0.33055  0.74864  0.91323  1.0000
  S   S349      1.0  0.16840  0.83684  0.65904  1.0000
  H   H2760     1.0  0.14694  0.97750  0.73388  1.0000
  H   H2761     1.0  0.24898  0.95892  0.71464  1.0000
  C   C1570     1.0  0.29755  0.97137  0.70974  1.0000
  H   H2762     1.0  0.14729  0.96290  0.75498  1.0000
  C   C1571     1.0  0.28118  0.74982  0.92684  1.0000
  C   C1572     1.0  0.43482  0.97615  0.80161  1.0000
  S   S350      1.0  0.21311  0.74799  0.82443  1.0000
  H   H2763     1.0  0.04180  0.81599  0.65333  1.0000
  C   C1573     1.0  0.43583  0.81253  0.96644  1.0000
  H   H2764     1.0  0.19831  0.81194  0.95639  1.0000
  H   H2765     1.0  0.14872  0.94712  0.73227  1.0000
  H   H2766     1.0  0.24947  0.74728  0.91709  1.0000
  S   S351      1.0  0.16616  0.76802  0.97289  1.0000
  H   H2767     1.0  0.12865  0.96161  0.72740  1.0000
  C   C1574     1.0  0.34873  0.74563  0.94697  1.0000
  H   H2768     1.0  0.24925  0.73750  0.88001  1.0000
  C   C1575     1.0  0.18010  0.93599  0.65003  1.0000
  H   H2769     1.0  0.48502  0.82221  0.80084  1.0000
  H   H2770     1.0  0.14160  0.73696  0.95428  1.0000
  H   H2771     1.0  0.48708  0.77484  0.80383  1.0000
  H   H2772     1.0  0.41130  0.83172  0.97152  1.0000
  H   H2773     1.0  0.99881  0.83382  0.72737  1.0000
  H   H2774     1.0  0.49365  0.97091  0.70049  1.0000
  Fe  Fe173     1.0  0.17833  0.74113  0.88736  1.0000
  H   H2775     1.0  0.45842  0.73821  0.88700  1.0000
  H   H2776     1.0  0.13086  0.78929  0.64613  1.0000
  C   C1576     1.0  0.49308  0.82194  0.82375  1.0000
  C   C1577     1.0  0.42443  0.73584  0.90758  1.0000
  N   N89       1.0  0.43955  0.97113  0.70113  1.0000
  H   H2777     1.0  0.41362  0.96765  0.70204  1.0000
  H   H2778     1.0  0.12592  0.76235  0.82633  1.0000
  S   S352      1.0  0.26425  0.97207  0.75437  1.0000
  H   H2779     1.0  0.15795  0.74884  0.82602  1.0000
  C   C1578     1.0  0.48899  0.92272  0.76174  1.0000
  C   C1579     1.0  0.42202  0.97745  0.69562  1.0000
  H   H2780     1.0  0.42401  0.97835  0.68140  1.0000
  H   H2781     1.0  0.05124  0.96782  0.64595  1.0000
  C   C1580     1.0  0.43636  0.98065  0.73013  1.0000
  H   H2782     1.0  0.02215  0.79942  0.64440  1.0000
  H   H2783     1.0  0.26355  0.98004  0.71742  1.0000
  C   C1581     1.0  0.00799  0.80594  0.64478  1.0000
  H   H2784     1.0  0.17440  0.75447  0.76581  1.0000
  Fe  Fe174     1.0  0.23492  0.98309  0.75617  1.0000
  H   H2785     1.0  0.13784  0.73618  0.81322  1.0000
  H   H2786     1.0  0.49416  0.75605  0.86046  1.0000
  C   C1582     1.0  0.17576  0.74457  0.79328  1.0000
  H   H2787     1.0  0.18596  0.74222  0.80087  1.0000
  C   C1583     1.0  0.14792  0.74096  0.83315  1.0000
  H   H2788     1.0  0.19610  0.74221  0.76948  1.0000
  H   H2789     1.0  0.17176  0.90280  0.64854  1.0000
  H   H2790     1.0  0.43418  0.98281  0.81199  1.0000
  H   H2791     1.0  0.38072  0.73430  0.92303  1.0000
  C   C1584     1.0  0.39190  0.73394  0.89560  1.0000
  C   C1585     1.0  0.07452  0.78620  0.64266  1.0000
  C   C1586     1.0  0.54690  0.03810  0.01656  1.0000
  H   H2792     1.0  0.82981  0.03053  0.26290  1.0000
  H   H2793     1.0  0.75202  0.17086  0.15087  1.0000
  H   H2794     1.0  0.80335  0.00282  0.18654  1.0000
  H   H2795     1.0  0.56966  0.05544  0.11390  1.0000
  H   H2796     1.0  0.80557  0.01703  0.26389  1.0000
  H   H2797     1.0  0.72797  0.08152  0.98770  1.0000
  H   H2798     1.0  0.97681  0.08214  0.17478  1.0000
  S   S353      1.0  0.85951  0.20987  0.07654  1.0000
  S   S354      1.0  0.73926  0.00448  0.19083  1.0000
  C   C1587     1.0  0.55959  0.06031  0.10575  1.0000
  C   C1588     1.0  0.53622  0.01118  0.11387  1.0000
  H   H2799     1.0  0.49710  0.03032  0.03092  1.0000
  Fe  Fe175     1.0  0.99137  0.22195  0.10662  1.0000
  C   C1589     1.0  0.53414  0.01950  0.12735  1.0000
  S   S355      1.0  0.52950  0.06910  0.98196  1.0000
  S   S356      1.0  0.97660  0.21102  0.09411  1.0000
  H   H2800     1.0  0.82812  0.00935  0.22830  1.0000
  H   H2801     1.0  0.96421  0.19127  0.21762  1.0000
  H   H2802     1.0  0.97764  0.04877  0.25506  1.0000
  C   C1590     1.0  0.96019  0.20688  0.01782  1.0000
  H   H2803     1.0  0.66957  0.18572  0.99477  1.0000
  H   H2804     1.0  0.52392  0.04538  0.07520  1.0000
  C   C1591     1.0  0.78835  0.06845  0.29800  1.0000
  Fe  Fe176     1.0  0.82358  0.19763  0.11720  1.0000
  S   S357      1.0  0.84394  0.17723  0.10444  1.0000
  S   S358      1.0  0.80036  0.19140  0.13875  1.0000
  H   H2805     1.0  0.58268  0.06294  0.05341  1.0000
  C   C1592     1.0  0.81810  0.01438  0.25411  1.0000
  H   H2806     1.0  0.65315  0.08812  0.07382  1.0000
  Fe  Fe177     1.0  0.83838  0.19565  0.07930  1.0000
  H   H2807     1.0  0.58833  0.09330  0.04144  1.0000
  Fe  Fe178     1.0  0.86273  0.19381  0.10303  1.0000
  S   S359      1.0  0.88969  0.18302  0.10960  1.0000
  S   S360      1.0  0.81667  0.21488  0.09219  1.0000
  S   S361      1.0  0.84258  0.21314  0.11753  1.0000
  Fe  Fe179     1.0  0.95635  0.14237  0.20770  1.0000
  S   S362      1.0  0.97094  0.11506  0.20489  1.0000
  S   S363      1.0  0.94622  0.16379  0.18611  1.0000
  Fe  Fe180     1.0  0.95336  0.13385  0.24687  1.0000
  S   S364      1.0  0.96765  0.10590  0.24772  1.0000
  S   S365      1.0  0.94154  0.14314  0.27191  1.0000
  H   H2808     1.0  0.63281  0.05120  0.01044  1.0000
  Fe  Fe181     1.0  0.95148  0.10629  0.22932  1.0000
  S   S366      1.0  0.93855  0.08363  0.23467  1.0000
  S   S367      1.0  0.97325  0.14496  0.22418  1.0000
  S   S368      1.0  0.93539  0.13338  0.23059  1.0000
  Fe  Fe182     1.0  0.84225  0.07744  0.23478  1.0000
  S   S369      1.0  0.85850  0.06355  0.21344  1.0000
  S   S370      1.0  0.84683  0.06303  0.26159  1.0000
  Fe  Fe183     1.0  0.82385  0.10722  0.20953  1.0000
  S   S371      1.0  0.83867  0.09576  0.18628  1.0000
  S   S372      1.0  0.80245  0.13188  0.20778  1.0000
  Fe  Fe184     1.0  0.83332  0.07015  0.20393  1.0000
  S   S373      1.0  0.82642  0.04969  0.19450  1.0000
  Fe  Fe185     1.0  0.86219  0.09030  0.19817  1.0000
  S   S374      1.0  0.88870  0.09589  0.18284  1.0000
  S   S375      1.0  0.81666  0.08201  0.22648  1.0000
  S   S376      1.0  0.84771  0.10383  0.22019  1.0000
  C   C1593     1.0  0.92759  0.09876  0.29697  1.0000
  C   C1594     1.0  0.66578  0.99472  0.16694  1.0000
  H   H2809     1.0  0.65875  0.03453  0.10022  1.0000
  H   H2810     1.0  0.59039  0.03268  0.06848  1.0000
  S   S377      1.0  0.74661  0.04875  0.19961  1.0000
  C   C1595     1.0  0.63220  0.04135  0.98849  1.0000
  H   H2811     1.0  0.80792  0.03699  0.29655  1.0000
  Fe  Fe186     1.0  0.65011  0.99635  0.12662  1.0000
  C   C1596     1.0  0.99203  0.17701  0.15638  1.0000
  S   S378      1.0  0.67055  0.00779  0.13132  1.0000
  C   C1597     1.0  0.51058  0.05620  0.05404  1.0000
  S   S379      1.0  0.65341  0.99861  0.06481  1.0000
  C   C1598     1.0  0.65836  0.07434  0.07204  1.0000
  H   H2812     1.0  0.79364  0.01277  0.21632  1.0000
  C   C1599     1.0  0.77290  0.10502  0.20218  1.0000
  H   H2813     1.0  0.82585  0.99068  0.18105  1.0000
  Fe  Fe187     1.0  0.66840  0.11685  0.99869  1.0000
  S   S380      1.0  0.66922  0.08852  0.00050  1.0000
  S   S381      1.0  0.69172  0.12174  0.00544  1.0000
  H   H2814     1.0  0.99437  0.07230  0.28465  1.0000
  H   H2815     1.0  0.67987  0.00759  0.09066  1.0000
  Fe  Fe188     1.0  0.64065  0.09491  0.01414  1.0000
  S   S382      1.0  0.62626  0.08015  0.03921  1.0000
  C   C1600     1.0  0.89281  0.11011  0.26036  1.0000
  H   H2816     1.0  0.77664  0.14666  0.15772  1.0000
  C   C1601     1.0  0.69229  0.14345  0.00466  1.0000
  C   C1602     1.0  0.86001  0.22928  0.03301  1.0000
  H   H2817     1.0  0.76000  0.09829  0.97994  1.0000
  H   H2818     1.0  0.97131  0.18394  0.03541  1.0000
  C   C1603     1.0  0.98513  0.00637  0.24962  1.0000
  C   C1604     1.0  0.64575  0.02110  0.05686  1.0000
  C   C1605     1.0  0.65634  0.03059  0.04282  1.0000
  C   C1606     1.0  0.65051  0.04882  0.03716  1.0000
  C   C1607     1.0  0.63396  0.05741  0.04538  1.0000
  C   C1608     1.0  0.62334  0.04786  0.05923  1.0000
  C   C1609     1.0  0.62923  0.02976  0.06499  1.0000
  C   C1610     1.0  0.67331  0.08927  0.04220  1.0000
  H   H2819     1.0  0.98983  0.18738  0.23169  1.0000
  H   H2820     1.0  0.61060  0.05451  0.06567  1.0000
  H   H2821     1.0  0.62091  0.02245  0.07568  1.0000
  H   H2822     1.0  0.55234  0.09019  0.03828  1.0000
  C   C1611     1.0  0.69365  0.00762  0.16953  1.0000
  C   C1612     1.0  0.68939  0.01038  0.15326  1.0000
  C   C1613     1.0  0.67546  0.00394  0.15194  1.0000
  C   C1614     1.0  0.83832  0.01667  0.30520  1.0000
  H   H2823     1.0  0.68524  0.08784  0.03143  1.0000
  H   H2824     1.0  0.70444  0.01254  0.17046  1.0000
  H   H2825     1.0  0.69692  0.01751  0.14167  1.0000
  C   C1615     1.0  0.66444  0.04301  0.08784  1.0000
  H   H2826     1.0  0.58342  0.09160  0.02174  1.0000
  C   C1616     1.0  0.80419  0.04896  0.19675  1.0000
  C   C1617     1.0  0.79044  0.05661  0.20898  1.0000
  C   C1618     1.0  0.77277  0.05637  0.20997  1.0000
  C   C1619     1.0  0.76884  0.04783  0.19925  1.0000
  C   C1620     1.0  0.78267  0.03971  0.18741  1.0000
  C   C1621     1.0  0.80025  0.04040  0.18609  1.0000
  H   H2827     1.0  0.79344  0.06281  0.21757  1.0000
  H   H2828     1.0  0.76212  0.06263  0.21918  1.0000
  H   H2829     1.0  0.77974  0.03325  0.17897  1.0000
  H   H2830     1.0  0.81084  0.03439  0.17665  1.0000
  C   C1622     1.0  0.90261  0.09239  0.19721  1.0000
  C   C1623     1.0  0.91903  0.09718  0.19096  1.0000
  C   C1624     1.0  0.92994  0.09497  0.20249  1.0000
  C   C1625     1.0  0.92472  0.08731  0.22020  1.0000
  C   C1626     1.0  0.90856  0.08205  0.22635  1.0000
  C   C1627     1.0  0.89738  0.08487  0.21494  1.0000
  H   H2831     1.0  0.92326  0.10259  0.17720  1.0000
  H   H2832     1.0  0.94252  0.09888  0.19765  1.0000
  H   H2833     1.0  0.90450  0.07604  0.24001  1.0000
  H   H2834     1.0  0.88480  0.08099  0.21989  1.0000
  H   H2835     1.0  0.89856  0.07171  0.29733  1.0000
  H   H2836     1.0  0.90815  0.04611  0.22699  1.0000
  H   H2837     1.0  0.66244  0.98496  0.19482  1.0000
  H   H2838     1.0  0.73531  0.12556  0.17356  1.0000
  H   H2839     1.0  0.85729  0.22660  0.14953  1.0000
  C   C1628     1.0  0.80271  0.17516  0.15792  1.0000
  C   C1629     1.0  0.78830  0.17558  0.17219  1.0000
  C   C1630     1.0  0.78880  0.16251  0.18748  1.0000
  C   C1631     1.0  0.80352  0.14852  0.18856  1.0000
  C   C1632     1.0  0.81816  0.14802  0.17436  1.0000
  C   C1633     1.0  0.81785  0.16154  0.15909  1.0000
  H   H2840     1.0  0.77668  0.18617  0.17145  1.0000
  H   H2841     1.0  0.77758  0.16312  0.19846  1.0000
  H   H2842     1.0  0.82970  0.13737  0.17520  1.0000
  H   H2843     1.0  0.82914  0.16132  0.14818  1.0000
  C   C1634     1.0  0.98752  0.13275  0.28760  1.0000
  C   C1635     1.0  0.96788  0.19804  0.14481  1.0000
  C   C1636     1.0  0.95578  0.18887  0.15730  1.0000
  C   C1637     1.0  0.96176  0.17395  0.16955  1.0000
  H   H2844     1.0  0.81875  0.04218  0.24526  1.0000
  C   C1638     1.0  0.81354  0.04396  0.30292  1.0000
  H   H2845     1.0  0.96314  0.20981  0.13570  1.0000
  H   H2846     1.0  0.94175  0.19362  0.15774  1.0000
  H   H2847     1.0  0.93596  0.19511  0.20926  1.0000
  H   H2848     1.0  0.77604  0.13867  0.99444  1.0000
  N   N90       1.0  0.55761  0.05471  0.06030  1.0000
  C   C1639     1.0  0.92649  0.20979  0.10639  1.0000
  C   C1640     1.0  0.91756  0.19625  0.10950  1.0000
  C   C1641     1.0  0.90103  0.19990  0.10522  1.0000
  C   C1642     1.0  0.81382  0.99207  0.19171  1.0000
  S   S383      1.0  0.51687  0.01125  0.10772  1.0000
  H   H2849     1.0  0.93903  0.20695  0.11012  1.0000
  H   H2850     1.0  0.92345  0.18296  0.11522  1.0000
  S   S384      1.0  0.56910  0.06097  0.00416  1.0000
  C   C1643     1.0  0.60906  0.06300  0.10920  1.0000
  C   C1644     1.0  0.97827  0.20412  0.19149  1.0000
  C   C1645     1.0  0.56827  0.00464  0.11088  1.0000
  C   C1646     1.0  0.75765  0.02307  0.26139  1.0000
  C   C1647     1.0  0.68871  0.05826  0.12186  1.0000
  C   C1648     1.0  0.95716  0.13786  0.28487  1.0000
  C   C1649     1.0  0.73776  0.98442  0.27967  1.0000
  H   H2851     1.0  0.97820  0.20337  0.17809  1.0000
  H   H2852     1.0  0.73467  0.08897  0.00324  1.0000
  H   H2853     1.0  0.84730  0.02342  0.29396  1.0000
  H   H2854     1.0  0.72755  0.11823  0.98447  1.0000
  Fe  Fe189     1.0  0.75895  0.20209  0.97825  1.0000
  H   H2855     1.0  0.98622  0.99266  0.18599  1.0000
  H   H2856     1.0  0.61510  0.06663  0.98772  1.0000
  C   C1650     1.0  0.85484  0.06537  0.29100  1.0000
  C   C1651     1.0  0.84875  0.07479  0.27584  1.0000
  C   C1652     1.0  0.84356  0.09312  0.27286  1.0000
  C   C1653     1.0  0.84417  0.10188  0.28524  1.0000
  H   H2857     1.0  0.65500  0.98981  0.16600  1.0000
  H   H2858     1.0  0.69218  0.04215  0.07267  1.0000
  H   H2859     1.0  0.83881  0.10051  0.26120  1.0000
  H   H2860     1.0  0.83994  0.11603  0.28300  1.0000
  H   H2861     1.0  0.93047  0.22076  0.04007  1.0000
  H   H2862     1.0  0.78256  0.11059  0.20515  1.0000
  H   H2863     1.0  0.53329  0.03509  0.05694  1.0000
  H   H2864     1.0  0.57784  0.06064  0.08106  1.0000
  C   C1654     1.0  0.56562  0.03553  0.06009  1.0000
  Fe  Fe190     1.0  0.72653  0.99739  0.24154  1.0000
  H   H2865     1.0  0.76959  0.10656  0.23669  1.0000
  C   C1655     1.0  0.56695  0.05395  0.08866  1.0000
  H   H2866     1.0  0.74773  0.09761  0.21629  1.0000
  C   C1656     1.0  0.67884  0.15760  0.99963  1.0000
  H   H2867     1.0  0.79672  0.11868  0.17435  1.0000
  H   H2868     1.0  0.67164  0.10181  0.04601  1.0000
  H   H2869     1.0  0.52099  0.02542  0.13374  1.0000
  H   H2870     1.0  0.53618  0.04954  0.01553  1.0000
  H   H2871     1.0  0.93168  0.19184  0.03877  1.0000
  N   N91       1.0  0.65953  0.06193  0.08951  1.0000
  H   H2872     1.0  0.59815  0.06254  0.10365  1.0000
  H   H2873     1.0  0.88095  0.22005  0.09403  1.0000
  C   C1657     1.0  0.90728  0.06941  0.30651  1.0000
  H   H2874     1.0  0.81015  0.07458  0.27565  1.0000
  H   H2875     1.0  0.55507  0.99738  0.09501  1.0000
  C   C1658     1.0  0.81480  0.01245  0.23699  1.0000
  H   H2876     1.0  0.98103  0.03018  0.28416  1.0000
  H   H2877     1.0  0.60071  0.20925  0.97631  1.0000
  C   C1659     1.0  0.94708  0.23052  0.05053  1.0000
  C   C1660     1.0  0.62661  0.18223  0.01370  1.0000
  N   N92       1.0  0.90259  0.15189  0.16409  1.0000
  C   C1661     1.0  0.92245  0.14579  0.16190  1.0000
  C   C1662     1.0  0.89327  0.14495  0.18264  1.0000
  C   C1663     1.0  0.89718  0.14414  0.15209  1.0000
  C   C1664     1.0  0.89691  0.17161  0.15890  1.0000
  C   C1665     1.0  0.90261  0.18224  0.16855  1.0000
  C   C1666     1.0  0.93385  0.15306  0.14395  1.0000
  C   C1667     1.0  0.87693  0.14745  0.15343  1.0000
  C   C1668     1.0  0.90249  0.14309  0.19762  1.0000
  C   C1669     1.0  0.89045  0.13807  0.21549  1.0000
  C   C1670     1.0  0.89920  0.20177  0.15982  1.0000
  C   C1671     1.0  0.95354  0.14483  0.14313  1.0000
  C   C1672     1.0  0.87316  0.13792  0.14167  1.0000
  H   H2878     1.0  0.92620  0.13121  0.16458  1.0000
  H   H2879     1.0  0.92718  0.14937  0.17161  1.0000
  H   H2880     1.0  0.87964  0.15314  0.18570  1.0000
  H   H2881     1.0  0.89141  0.13149  0.18409  1.0000
  H   H2882     1.0  0.90249  0.12963  0.15454  1.0000
  H   H2883     1.0  0.90292  0.14943  0.13817  1.0000
  H   H2884     1.0  0.90165  0.17622  0.14458  1.0000
  H   H2885     1.0  0.88223  0.17578  0.16119  1.0000
  H   H2886     1.0  0.91686  0.17788  0.16868  1.0000
  H   H2887     1.0  0.89475  0.18094  0.18219  1.0000
  H   H2888     1.0  0.93036  0.15026  0.13298  1.0000
  H   H2889     1.0  0.93215  0.16746  0.14191  1.0000
  H   H2890     1.0  0.87120  0.16163  0.14914  1.0000
  H   H2891     1.0  0.86976  0.14269  0.16695  1.0000
  H   H2892     1.0  0.91470  0.13250  0.19688  1.0000
  H   H2893     1.0  0.90631  0.15531  0.19706  1.0000
  H   H2894     1.0  0.89736  0.13693  0.22587  1.0000
  H   H2895     1.0  0.87798  0.14825  0.21716  1.0000
  H   H2896     1.0  0.88723  0.12520  0.21704  1.0000
  H   H2897     1.0  0.90324  0.20911  0.16710  1.0000
  H   H2898     1.0  0.90702  0.20393  0.14613  1.0000
  H   H2899     1.0  0.88490  0.20696  0.15986  1.0000
  H   H2900     1.0  0.95618  0.13044  0.14432  1.0000
  H   H2901     1.0  0.96151  0.15069  0.13047  1.0000
  H   H2902     1.0  0.95789  0.14734  0.15379  1.0000
  H   H2903     1.0  0.87794  0.12350  0.14581  1.0000
  H   H2904     1.0  0.85867  0.14079  0.14270  1.0000
  H   H2905     1.0  0.87965  0.14252  0.12781  1.0000
  H   H2906     1.0  0.97956  0.13893  0.26307  1.0000
  H   H2907     1.0  0.97318  0.21824  0.19199  1.0000
  H   H2908     1.0  0.78824  0.99880  0.26537  1.0000
  H   H2909     1.0  0.74902  0.07108  0.99367  1.0000
  C   C1673     1.0  0.55335  0.00363  0.10561  1.0000
  H   H2910     1.0  0.99256  0.17315  0.21214  1.0000
  H   H2911     1.0  0.91046  0.08943  0.27398  1.0000
  H   H2912     1.0  0.82304  0.05049  0.29216  1.0000
  C   C1674     1.0  0.92165  0.18364  0.06633  1.0000
  S   S385      1.0  0.61133  0.15286  0.98048  1.0000
  C   C1675     1.0  0.64139  0.06520  0.10148  1.0000
  H   H2913     1.0  0.68783  0.05224  0.13600  1.0000
  H   H2914     1.0  0.72843  0.99829  0.30057  1.0000
  H   H2915     1.0  0.50388  0.06870  0.05833  1.0000
  H   H2916     1.0  0.58533  0.99694  0.02057  1.0000
  H   H2917     1.0  0.97428  0.20815  0.22712  1.0000
  H   H2918     1.0  0.90952  0.12624  0.30882  1.0000
  C   C1676     1.0  0.97720  0.20578  0.00356  1.0000
  H   H2919     1.0  0.97445  0.20361  0.03780  1.0000
  C   C1677     1.0  0.54108  0.06014  0.05301  1.0000
  H   H2920     1.0  0.96745  0.02953  0.18589  1.0000
  S   S386      1.0  0.72601  0.22296  0.01533  1.0000
  H   H2921     1.0  0.64356  0.17565  0.98228  1.0000
  C   C1678     1.0  0.93736  0.21633  0.05111  1.0000
  C   C1679     1.0  0.52765  0.04794  0.06076  1.0000
  C   C1680     1.0  0.49499  0.03453  0.00406  1.0000
  H   H2922     1.0  0.89942  0.10697  0.24740  1.0000
  C   C1681     1.0  0.90610  0.10385  0.27216  1.0000
  H   H2923     1.0  0.80834  0.02550  0.23006  1.0000
  H   H2924     1.0  0.75296  0.14956  0.99728  1.0000
  S   S387      1.0  0.51008  0.00759  0.06354  1.0000
  C   C1682     1.0  0.78669  0.00226  0.25160  1.0000
  C   C1683     1.0  0.62490  0.05974  0.97776  1.0000
  H   H2925     1.0  0.63807  0.07850  0.10437  1.0000
  C   C1684     1.0  0.56317  0.08607  0.04548  1.0000
  H   H2926     1.0  0.78595  0.23116  0.01160  1.0000
  H   H2927     1.0  0.81785  0.07401  0.30578  1.0000
  H   H2928     1.0  0.97690  0.06806  0.26221  1.0000
  H   H2929     1.0  0.97966  0.04916  0.29196  1.0000
  N   N93       1.0  0.90784  0.10181  0.30428  1.0000
  H   H2930     1.0  0.98381  0.19187  0.00327  1.0000
  H   H2931     1.0  0.97791  0.15329  0.09204  1.0000
  C   C1685     1.0  0.67228  0.05730  0.11663  1.0000
  H   H2932     1.0  0.70087  0.05090  0.11437  1.0000
  C   C1686     1.0  0.54320  0.02134  0.02293  1.0000
  H   H2933     1.0  0.98641  0.01634  0.25583  1.0000
  Fe  Fe191     1.0  0.51587  0.99488  0.09005  1.0000
  H   H2934     1.0  0.54471  0.06123  0.03862  1.0000
  H   H2935     1.0  0.83608  0.22382  0.03137  1.0000
  H   H2936     1.0  0.59758  0.04589  0.98097  1.0000
  H   H2937     1.0  0.72463  0.98486  0.10137  1.0000
  H   H2938     1.0  0.73186  0.98722  0.13762  1.0000
  H   H2939     1.0  0.95120  0.20059  0.01478  1.0000
  S   S388      1.0  0.52852  0.10180  0.99897  1.0000
  C   C1687     1.0  0.97518  0.13663  0.27713  1.0000
  H   H2940     1.0  0.83147  0.00948  0.30038  1.0000
  H   H2941     1.0  0.96524  0.19948  0.06748  1.0000
  H   H2942     1.0  0.95956  0.05607  0.27200  1.0000
  H   H2943     1.0  0.62390  0.18844  0.02495  1.0000
  C   C1688     1.0  0.59182  0.00927  0.06049  1.0000
  H   H2944     1.0  0.51343  0.05887  0.03956  1.0000
  H   H2945     1.0  0.58523  0.00240  0.07339  1.0000
  Fe  Fe192     1.0  0.50992  0.09336  0.98850  1.0000
  H   H2946     1.0  0.76865  0.15667  0.97751  1.0000
  H   H2947     1.0  0.69014  0.03188  0.09537  1.0000
  H   H2948     1.0  0.64148  0.03263  0.98009  1.0000
  H   H2949     1.0  0.98846  0.02913  0.22020  1.0000
  C   C1689     1.0  0.99448  0.20859  0.23910  1.0000
  Fe  Fe193     1.0  0.99403  0.22211  0.06908  1.0000
  C   C1690     1.0  0.93748  0.18637  0.05055  1.0000
  H   H2950     1.0  0.68608  0.06326  0.08959  1.0000
  H   H2951     1.0  0.75973  0.01904  0.27496  1.0000
  H   H2952     1.0  0.92606  0.17831  0.07884  1.0000
  C   C1691     1.0  0.80132  0.99961  0.22154  1.0000
  H   H2953     1.0  0.95915  0.23072  0.03991  1.0000
  H   H2954     1.0  0.80027  0.20210  0.07414  1.0000
  C   C1692     1.0  0.62947  0.19595  0.99659  1.0000
  N   N94       1.0  0.94868  0.19804  0.05142  1.0000
  C   C1693     1.0  0.77562  0.98577  0.15308  1.0000
  H   H2955     1.0  0.64664  0.02971  0.00926  1.0000
  H   H2956     1.0  0.77962  0.23200  0.08009  1.0000
  H   H2957     1.0  0.79267  0.10022  0.25882  1.0000
  H   H2958     1.0  0.74950  0.01487  0.25984  1.0000
  S   S389      1.0  0.74648  0.18554  0.00317  1.0000
  H   H2959     1.0  0.66153  0.08983  0.03738  1.0000
  H   H2960     1.0  0.89684  0.12444  0.28590  1.0000
  C   C1694     1.0  0.76163  0.13209  0.97919  1.0000
  H   H2961     1.0  0.85904  0.05121  0.29331  1.0000
  H   H2962     1.0  0.91787  0.10956  0.26511  1.0000
  H   H2963     1.0  0.59514  0.12221  0.99015  1.0000
  H   H2964     1.0  0.90673  0.17576  0.05237  1.0000
  C   C1695     1.0  0.97402  0.05476  0.26652  1.0000
  C   C1696     1.0  0.71397  0.98620  0.11326  1.0000
  H   H2965     1.0  0.88407  0.10808  0.29422  1.0000
  C   C1697     1.0  0.58704  0.13323  0.98298  1.0000
  H   H2966     1.0  0.78451  0.05981  0.29193  1.0000
  C   C1698     1.0  0.97195  0.16756  0.08884  1.0000
  S   S390      1.0  0.62721  0.98488  0.14400  1.0000
  C   C1699     1.0  0.62578  0.06376  0.09471  1.0000
  H   H2967     1.0  0.54294  0.04904  0.08706  1.0000
  Fe  Fe194     1.0  0.71346  0.99981  0.20918  1.0000
  H   H2968     1.0  0.54703  0.02702  0.14299  1.0000
  H   H2969     1.0  0.60503  0.07481  0.11487  1.0000
  H   H2970     1.0  0.62244  0.07537  0.08418  1.0000
  C   C1700     1.0  0.67230  0.06637  0.09719  1.0000
  N   N95       1.0  0.77022  0.11359  0.18391  1.0000
  C   C1701     1.0  0.78829  0.11131  0.17170  1.0000
  C   C1702     1.0  0.75868  0.10484  0.17885  1.0000
  C   C1703     1.0  0.73841  0.11264  0.18260  1.0000
  C   C1704     1.0  0.79899  0.09208  0.17236  1.0000
  C   C1705     1.0  0.72829  0.10061  0.17993  1.0000
  C   C1706     1.0  0.81439  0.09071  0.15652  1.0000
  H   H2971     1.0  0.77895  0.09091  0.20326  1.0000
  H   H2972     1.0  0.78703  0.11699  0.15794  1.0000
  H   H2973     1.0  0.76265  0.10505  0.16460  1.0000
  H   H2974     1.0  0.76083  0.09061  0.18535  1.0000
  H   H2975     1.0  0.73314  0.11464  0.19609  1.0000
  H   H2976     1.0  0.75901  0.13807  0.15600  1.0000
  H   H2977     1.0  0.79056  0.08323  0.17275  1.0000
  H   H2978     1.0  0.80470  0.08720  0.18417  1.0000
  H   H2979     1.0  0.73291  0.09832  0.16645  1.0000
  H   H2980     1.0  0.73017  0.08777  0.18941  1.0000
  H   H2981     1.0  0.71390  0.10673  0.18209  1.0000
  H   H2982     1.0  0.80944  0.09455  0.14429  1.0000
  H   H2983     1.0  0.82335  0.09921  0.15569  1.0000
  H   H2984     1.0  0.82213  0.07691  0.15788  1.0000
  N   N96       1.0  0.79735  0.15161  0.10279  1.0000
  C   C1707     1.0  0.79897  0.15550  0.08331  1.0000
  C   C1708     1.0  0.79099  0.16871  0.10885  1.0000
  C   C1709     1.0  0.81577  0.14351  0.10612  1.0000
  C   C1710     1.0  0.78537  0.13905  0.11285  1.0000
  C   C1711     1.0  0.76946  0.13987  0.10515  1.0000
  C   C1712     1.0  0.80808  0.13969  0.07445  1.0000
  C   C1713     1.0  0.81759  0.14025  0.12524  1.0000
  C   C1714     1.0  0.77213  0.17929  0.10696  1.0000
  C   C1715     1.0  0.76823  0.19716  0.11157  1.0000
  C   C1716     1.0  0.75653  0.12931  0.11833  1.0000
  C   C1717     1.0  0.80422  0.14336  0.05633  1.0000
  C   C1718     1.0  0.83555  0.12854  0.12789  1.0000
  H   H2985     1.0  0.80700  0.16558  0.07676  1.0000
  H   H2986     1.0  0.78593  0.16146  0.07974  1.0000
  H   H2987     1.0  0.79063  0.16644  0.12299  1.0000
  H   H2988     1.0  0.80052  0.17741  0.10195  1.0000
  H   H2989     1.0  0.82520  0.15189  0.09773  1.0000
  H   H2990     1.0  0.82089  0.13059  0.10233  1.0000
  H   H2991     1.0  0.79303  0.12518  0.11423  1.0000
  H   H2992     1.0  0.78005  0.14094  0.12646  1.0000
  H   H2993     1.0  0.77417  0.13422  0.09336  1.0000
  H   H2994     1.0  0.76194  0.15342  0.10118  1.0000
  H   H2995     1.0  0.82269  0.13722  0.07275  1.0000
  H   H2996     1.0  0.80380  0.12750  0.08241  1.0000
  H   H2997     1.0  0.80711  0.13390  0.13463  1.0000
  H   H2998     1.0  0.81668  0.15288  0.12845  1.0000
  H   H2999     1.0  0.77032  0.18171  0.09350  1.0000
  H   H3000     1.0  0.76211  0.17216  0.11615  1.0000
  H   H3001     1.0  0.77826  0.20477  0.10333  1.0000
  H   H3002     1.0  0.75497  0.20480  0.10932  1.0000
  H   H3003     1.0  0.76824  0.19548  0.12553  1.0000
  H   H3004     1.0  0.76341  0.11544  0.12253  1.0000
  H   H3005     1.0  0.75040  0.13520  0.12994  1.0000
  H   H3006     1.0  0.74578  0.12945  0.11220  1.0000
  H   H3007     1.0  0.81098  0.13189  0.05029  1.0000
  H   H3008     1.0  0.78975  0.14580  0.05719  1.0000
  H   H3009     1.0  0.80922  0.15499  0.04776  1.0000
  H   H3010     1.0  0.83640  0.12651  0.14168  1.0000
  H   H3011     1.0  0.83727  0.11551  0.12506  1.0000
  H   H3012     1.0  0.84647  0.13483  0.11924  1.0000
  H   H3013     1.0  0.54760  0.05525  0.11337  1.0000
  N   N97       1.0  0.96424  0.03600  0.21067  1.0000
  C   C1719     1.0  0.98600  0.19231  0.14456  1.0000
  H   H3014     1.0  0.98461  0.15609  0.17806  1.0000
  C   C1720     1.0  0.94471  0.03736  0.21889  1.0000
  C   C1721     1.0  0.97022  0.02291  0.19907  1.0000
  Fe  Fe195     1.0  0.63249  0.12920  0.98825  1.0000
  C   C1722     1.0  0.76499  0.14509  0.98758  1.0000
  C   C1723     1.0  0.93197  0.04394  0.20606  1.0000
  H   H3015     1.0  0.99316  0.22471  0.16160  1.0000
  H   H3016     1.0  0.65352  0.04886  0.99437  1.0000
  H   H3017     1.0  0.66046  0.06386  0.12523  1.0000
  H   H3018     1.0  0.71138  0.99963  0.11554  1.0000
  C   C1724     1.0  0.89795  0.10994  0.28966  1.0000
  C   C1725     1.0  0.98553  0.05579  0.19001  1.0000
  S   S391      1.0  0.55260  0.98550  0.03166  1.0000
  H   H3019     1.0  0.95836  0.05911  0.19025  1.0000
  H   H3020     1.0  0.96161  0.06355  0.20905  1.0000
  H   H3021     1.0  0.94020  0.04627  0.22823  1.0000
  H   H3022     1.0  0.94228  0.02433  0.22675  1.0000
  H   H3023     1.0  0.96233  0.01255  0.20420  1.0000
  Fe  Fe196     1.0  0.83790  0.22816  0.09099  1.0000
  S   S392      1.0  0.68922  0.99383  0.20514  1.0000
  H   H3024     1.0  0.79278  0.99048  0.22279  1.0000
  H   H3025     1.0  0.95776  0.01710  0.24861  1.0000
  C   C1726     1.0  0.96522  0.17214  0.07202  1.0000
  H   H3026     1.0  0.93698  0.03745  0.19484  1.0000
  H   H3027     1.0  0.93034  0.05831  0.20093  1.0000
  C   C1727     1.0  0.97992  0.16780  0.16884  1.0000
  C   C1728     1.0  0.91902  0.22695  0.09864  1.0000
  Fe  Fe197     1.0  0.53017  0.98448  0.05517  1.0000
  H   H3028     1.0  0.75790  0.12107  0.98995  1.0000
  C   C1729     1.0  0.79749  0.08151  0.28270  1.0000
  S   S393      1.0  0.75332  0.00147  0.22626  1.0000
  H   H3029     1.0  0.60639  0.00515  0.05940  1.0000
  H   H3030     1.0  0.84015  0.02743  0.24106  1.0000
  Fe  Fe198     1.0  0.54854  0.07900  0.98994  1.0000
  H   H3031     1.0  0.97683  0.16914  0.06135  1.0000
  C   C1730     1.0  0.96420  0.19375  0.20363  1.0000
  H   H3032     1.0  0.77554  0.07603  0.30438  1.0000
  H   H3033     1.0  0.67179  0.04334  0.11924  1.0000
  H   H3034     1.0  0.86604  0.21510  0.03698  1.0000
  H   H3035     1.0  0.55818  0.09042  0.05802  1.0000
  C   C1731     1.0  0.55210  0.05761  0.07869  1.0000
  H   H3036     1.0  0.77231  0.02500  0.23503  1.0000
  H   H3037     1.0  0.65838  0.04159  0.07774  1.0000
  C   C1732     1.0  0.55706  0.00650  0.02421  1.0000
  S   S394      1.0  0.76733  0.21790  0.99178  1.0000
  H   H3038     1.0  0.97016  0.04159  0.23245  1.0000
  C   C1733     1.0  0.78584  0.09084  0.26947  1.0000
  H   H3039     1.0  0.82677  0.00218  0.25998  1.0000
  H   H3040     1.0  0.57490  0.06257  0.03553  1.0000
  H   H3041     1.0  0.64872  0.07168  0.06620  1.0000
  C   C1734     1.0  0.77534  0.02127  0.24815  1.0000
  H   H3042     1.0  0.54430  0.07125  0.07887  1.0000
  H   H3043     1.0  0.91180  0.19619  0.06721  1.0000
  C   C1735     1.0  0.95897  0.08721  0.30156  1.0000
  C   C1736     1.0  0.63287  0.18771  0.98068  1.0000
  H   H3044     1.0  0.57199  0.11017  0.03145  1.0000
  C   C1737     1.0  0.57827  0.02523  0.01373  1.0000
  H   H3045     1.0  0.92104  0.15769  0.06416  1.0000
  H   H3046     1.0  0.62916  0.05178  0.08951  1.0000
  Fe  Fe199     1.0  0.75213  0.20361  0.01646  1.0000
  H   H3047     1.0  0.94580  0.17324  0.04882  1.0000
  H   H3048     1.0  0.96690  0.18077  0.20036  1.0000
  H   H3049     1.0  0.96090  0.17084  0.09993  1.0000
  H   H3050     1.0  0.97400  0.21251  0.99061  1.0000
  S   S395      1.0  0.71907  0.99419  0.27070  1.0000
  C   C1738     1.0  0.82726  0.02954  0.25056  1.0000
  H   H3051     1.0  0.92653  0.21647  0.06306  1.0000
  H   H3052     1.0  0.58151  0.99932  0.10427  1.0000
  H   H3053     1.0  0.68705  0.07423  0.06224  1.0000
  H   H3054     1.0  0.82494  0.18595  0.02570  1.0000
  H   H3055     1.0  0.55614  0.07488  0.10304  1.0000
  C   C1739     1.0  0.76304  0.14452  0.16409  1.0000
  C   C1740     1.0  0.97395  0.03080  0.22531  1.0000
  C   C1741     1.0  0.85550  0.07412  0.30327  1.0000
  C   C1742     1.0  0.91200  0.17077  0.06446  1.0000
  C   C1743     1.0  0.73944  0.08382  0.99110  1.0000
  C   C1744     1.0  0.76290  0.13302  0.18281  1.0000
  C   C1745     1.0  0.68444  0.03414  0.08382  1.0000
  H   H3056     1.0  0.91401  0.02614  0.21906  1.0000
  C   C1746     1.0  0.64190  0.04292  0.00139  1.0000
  H   H3057     1.0  0.71732  0.13570  0.01244  1.0000
  C   C1747     1.0  0.75621  0.10584  0.21719  1.0000
  C   C1748     1.0  0.75062  0.16255  0.16433  1.0000
  C   C1749     1.0  0.98437  0.04331  0.28030  1.0000
  H   H3058     1.0  0.93117  0.11136  0.28916  1.0000
  H   H3059     1.0  0.77064  0.13821  0.18878  1.0000
  H   H3060     1.0  0.74922  0.13569  0.19075  1.0000
  H   H3061     1.0  0.73662  0.16125  0.16932  1.0000
  S   S396      1.0  0.64041  0.12261  0.01397  1.0000
  H   H3062     1.0  0.88158  0.10337  0.26611  1.0000
  C   C1750     1.0  0.97055  0.01393  0.23922  1.0000
  H   H3063     1.0  0.90434  0.04669  0.20614  1.0000
  C   C1751     1.0  0.67557  0.07372  0.05764  1.0000
  C   C1752     1.0  0.70690  0.14662  0.00847  1.0000
  C   C1753     1.0  0.94553  0.20336  0.20119  1.0000
  C   C1754     1.0  0.76134  0.09855  0.23492  1.0000
  H   H3064     1.0  0.95618  0.16339  0.07384  1.0000
  H   H3065     1.0  0.66916  0.02391  0.03653  1.0000
  C   C1755     1.0  0.56601  0.01309  0.12440  1.0000
  H   H3066     1.0  0.75394  0.16923  0.17273  1.0000
  H   H3067     1.0  0.65879  0.05617  0.02650  1.0000
  C   C1756     1.0  0.84988  0.09237  0.30064  1.0000
  H   H3068     1.0  0.74845  0.11947  0.21704  1.0000
  S   S397      1.0  0.63367  0.01401  0.10777  1.0000
  S   S398      1.0  0.63063  0.10196  0.98954  1.0000
  H   H3069     1.0  0.76888  0.08470  0.23599  1.0000
  H   H3070     1.0  0.74921  0.09897  0.24554  1.0000
  H   H3071     1.0  0.66759  0.15522  0.99664  1.0000
  H   H3072     1.0  0.70168  0.98444  0.11098  1.0000
  Fe  Fe200     1.0  0.73879  0.02243  0.20773  1.0000
  H   H3073     1.0  0.64126  0.05567  0.11431  1.0000
  H   H3074     1.0  0.98652  0.21229  0.00586  1.0000
  H   H3075     1.0  0.95100  0.22801  0.06314  1.0000
  H   H3076     1.0  0.96300  0.09963  0.29389  1.0000
  H   H3077     1.0  0.78219  0.03092  0.24911  1.0000
  H   H3078     1.0  0.61514  0.17659  0.01488  1.0000
  C   C1757     1.0  0.95562  0.19175  0.06795  1.0000
  H   H3079     1.0  0.96977  0.00362  0.23318  1.0000
  H   H3080     1.0  0.98191  0.99485  0.26001  1.0000
  C   C1758     1.0  0.54889  0.02038  0.13262  1.0000
  H   H3081     1.0  0.55886  0.02701  0.07181  1.0000
  H   H3082     1.0  0.77075  0.20574  0.06843  1.0000
  C   C1759     1.0  0.98197  0.12934  0.30583  1.0000
  C   C1760     1.0  0.68396  0.99839  0.18455  1.0000
  H   H3083     1.0  0.93192  0.09014  0.28751  1.0000
  C   C1761     1.0  0.57765  0.09582  0.03434  1.0000
  C   C1762     1.0  0.96433  0.19771  0.03607  1.0000
  H   H3084     1.0  0.80731  0.23280  0.02731  1.0000
  H   H3085     1.0  0.94165  0.21604  0.20536  1.0000
  C   C1763     1.0  0.96653  0.05409  0.20027  1.0000
  H   H3086     1.0  0.64068  0.20128  0.99635  1.0000
  H   H3087     1.0  0.61739  0.20667  0.99704  1.0000
  H   H3088     1.0  0.82410  0.00783  0.20200  1.0000
  H   H3089     1.0  0.75018  0.03694  0.25908  1.0000
  H   H3090     1.0  0.57236  0.03962  0.09213  1.0000
  H   H3091     1.0  0.58856  0.00526  0.05006  1.0000
  S   S399      1.0  0.69551  0.19995  0.00066  1.0000
  C   C1764     1.0  0.98846  0.20172  0.22661  1.0000
  H   H3092     1.0  0.94478  0.20583  0.18731  1.0000
  C   C1765     1.0  0.70815  0.16387  0.00712  1.0000
  C   C1766     1.0  0.78258  0.20167  0.05897  1.0000
  C   C1767     1.0  0.79933  0.19982  0.06213  1.0000
  C   C1768     1.0  0.95157  0.13475  0.30309  1.0000
  N   N98       1.0  0.80446  0.99886  0.23911  1.0000
  C   C1769     1.0  0.57171  0.13112  0.97935  1.0000
  C   C1770     1.0  0.83982  0.23203  0.03793  1.0000
  H   H3093     1.0  0.62079  0.18277  0.98244  1.0000
  H   H3094     1.0  0.71935  0.16615  0.01024  1.0000
  H   H3095     1.0  0.77845  0.99343  0.25140  1.0000
  H   H3096     1.0  0.77296  0.09831  0.27578  1.0000
  H   H3097     1.0  0.56329  0.03231  0.04865  1.0000
  Fe  Fe201     1.0  0.72160  0.20603  0.99996  1.0000
  H   H3098     1.0  0.95395  0.22101  0.01705  1.0000
  Fe  Fe202     1.0  0.61178  0.00047  0.12344  1.0000
  H   H3099     1.0  0.68966  0.07214  0.11949  1.0000
  S   S400      1.0  0.75995  0.19647  0.04254  1.0000
  C   C1771     1.0  0.68001  0.17483  0.99851  1.0000
  S   S401      1.0  0.83570  0.18798  0.05573  1.0000
  Fe  Fe203     1.0  0.64264  0.99203  0.09376  1.0000
  H   H3100     1.0  0.62113  0.03490  0.99629  1.0000
  H   H3101     1.0  0.67859  0.06158  0.05267  1.0000
  C   C1772     1.0  0.69467  0.17807  0.00216  1.0000
  C   C1773     1.0  0.78100  0.19765  0.04396  1.0000
  H   H3102     1.0  0.88763  0.12453  0.25847  1.0000
  H   H3103     1.0  0.73461  0.14502  0.97928  1.0000
  C   C1774     1.0  0.81468  0.19371  0.05040  1.0000
  H   H3104     1.0  0.53358  0.07347  0.05493  1.0000
  H   H3105     1.0  0.66931  0.08080  0.09629  1.0000
  H   H3106     1.0  0.94477  0.19424  0.07939  1.0000
  H   H3107     1.0  0.76490  0.99720  0.15615  1.0000
  H   H3108     1.0  0.68244  0.01779  0.06766  1.0000
  C   C1775     1.0  0.56442  0.04006  0.01198  1.0000
  H   H3109     1.0  0.59181  0.02669  0.01049  1.0000
  S   S402      1.0  0.71173  0.01973  0.22427  1.0000
  S   S403      1.0  0.58393  0.01593  0.13094  1.0000
  C   C1776     1.0  0.58597  0.02917  0.05854  1.0000
  H   H3110     1.0  0.59316  0.03518  0.04546  1.0000
  H   H3111     1.0  0.52966  0.01984  0.02651  1.0000
  H   H3112     1.0  0.76638  0.98436  0.13135  1.0000
  H   H3113     1.0  0.61125  0.05099  0.11967  1.0000
  H   H3114     1.0  0.78344  0.08119  0.26359  1.0000
  H   H3115     1.0  0.80021  0.09179  0.28747  1.0000
  C   C1777     1.0  0.81821  0.99605  0.20703  1.0000
  H   H3116     1.0  0.56826  0.11842  0.98355  1.0000
  C   C1778     1.0  0.91353  0.04046  0.21518  1.0000
  C   C1779     1.0  0.79632  0.19272  0.03159  1.0000
  C   C1780     1.0  0.81314  0.19066  0.03487  1.0000
  H   H3117     1.0  0.70149  0.00982  0.07744  1.0000
  C   C1781     1.0  0.57461  0.00843  0.01948  1.0000
  H   H3118     1.0  0.98616  0.20552  0.25246  1.0000
  C   C1782     1.0  0.68719  0.01626  0.07964  1.0000
  H   H3119     1.0  0.79522  0.18953  0.02000  1.0000
  C   C1783     1.0  0.57037  0.06590  0.04860  1.0000
  H   H3120     1.0  0.90066  0.16923  0.07581  1.0000
  C   C1784     1.0  0.89368  0.21705  0.09738  1.0000
  H   H3121     1.0  0.63862  0.17145  0.01437  1.0000
  C   C1785     1.0  0.73902  0.98876  0.29464  1.0000
  H   H3122     1.0  0.96158  0.07826  0.29266  1.0000
  C   C1786     1.0  0.66996  0.99207  0.18321  1.0000
  H   H3123     1.0  0.50905  0.02806  0.99976  1.0000
  H   H3124     1.0  0.82845  0.98483  0.21182  1.0000
  Fe  Fe204     1.0  0.98611  0.11670  0.22346  1.0000
  H   H3125     1.0  0.99262  0.00352  0.20878  1.0000
  H   H3126     1.0  0.98231  0.17485  0.08716  1.0000
  H   H3127     1.0  0.49703  0.05929  0.98633  1.0000
  H   H3128     1.0  0.99308  0.22305  0.23491  1.0000
  H   H3129     1.0  0.87394  0.22639  0.12954  1.0000
  C   C1787     1.0  0.90271  0.23048  0.09399  1.0000
  H   H3130     1.0  0.99200  0.08284  0.22500  1.0000
  H   H3131     1.0  0.50136  0.04712  0.05933  1.0000
  H   H3132     1.0  0.66357  0.98819  0.28144  1.0000
  C   C1788     1.0  0.59173  0.14960  0.97735  1.0000
  H   H3133     1.0  0.83593  0.22720  0.05225  1.0000
  H   H3134     1.0  0.98405  0.08147  0.19410  1.0000
  H   H3135     1.0  0.78745  0.99069  0.14469  1.0000
  H   H3136     1.0  0.86469  0.23351  0.01866  1.0000
  H   H3137     1.0  0.68470  0.99095  0.26750  1.0000
  C   C1789     1.0  0.98660  0.07505  0.18304  1.0000
  H   H3138     1.0  0.92130  0.06705  0.29940  1.0000
  C   C1790     1.0  0.98999  0.01290  0.19651  1.0000
  H   H3139     1.0  0.98926  0.04961  0.17860  1.0000
  H   H3140     1.0  0.50315  0.05019  0.01685  1.0000
  H   H3141     1.0  0.99319  0.01115  0.16961  1.0000
  H   H3142     1.0  0.93765  0.13566  0.30910  1.0000
  C   C1791     1.0  0.74845  0.09678  0.97616  1.0000
  C   C1792     1.0  0.97227  0.16984  0.32485  1.0000
  H   H3143     1.0  0.97607  0.98570  0.52789  1.0000
  H   H3144     1.0  0.96797  0.17303  0.35086  1.0000
  H   H3145     1.0  0.96456  0.98765  0.57248  1.0000
  H   H3146     1.0  0.88584  0.12682  0.34652  1.0000
  H   H3147     1.0  0.73025  0.04171  0.63547  1.0000
  H   H3148     1.0  0.75953  0.01925  0.33810  1.0000
  H   H3149     1.0  0.79894  0.01713  0.57688  1.0000
  S   S404      1.0  0.97857  0.11145  0.37036  1.0000
  H   H3150     1.0  0.96556  0.15865  0.32896  1.0000
  H   H3151     1.0  0.90676  0.15482  0.63673  1.0000
  H   H3152     1.0  0.79857  0.98504  0.39412  1.0000
  S   S405      1.0  0.98677  0.12738  0.63234  1.0000
  H   H3153     1.0  0.96180  0.02426  0.53648  1.0000
  H   H3154     1.0  0.98531  0.18286  0.33533  1.0000
  H   H3155     1.0  0.95664  0.04885  0.43947  1.0000
  S   S406      1.0  0.75344  0.01311  0.61711  1.0000
  C   C1793     1.0  0.88036  0.17730  0.61930  1.0000
  H   H3156     1.0  0.93353  0.04791  0.36360  1.0000
  H   H3157     1.0  0.96606  0.00372  0.38927  1.0000
  H   H3158     1.0  0.80390  0.03531  0.53781  1.0000
  H   H3159     1.0  0.88695  0.14550  0.32814  1.0000
  C   C1794     1.0  0.73118  0.01007  0.52309  1.0000
  Fe  Fe205     1.0  0.86143  0.03357  0.50949  1.0000
  S   S407      1.0  0.84937  0.05842  0.51911  1.0000
  S   S408      1.0  0.84681  0.01175  0.52152  1.0000
  Fe  Fe206     1.0  0.89463  0.04646  0.48838  1.0000
  S   S409      1.0  0.88529  0.07229  0.49636  1.0000
  S   S410      1.0  0.92136  0.03839  0.47172  1.0000
  Fe  Fe207     1.0  0.87632  0.05630  0.52308  1.0000
  Fe  Fe208     1.0  0.85945  0.07174  0.49125  1.0000
  S   S411      1.0  0.84316  0.09598  0.47693  1.0000
  S   S412      1.0  0.88771  0.03046  0.51534  1.0000
  S   S413      1.0  0.86949  0.04702  0.48133  1.0000
  C   C1795     1.0  0.72103  0.99564  0.53292  1.0000
  S   S414      1.0  0.96297  0.09211  0.50775  1.0000
  C   C1796     1.0  0.99353  0.15429  0.34497  1.0000
  Fe  Fe209     1.0  0.86903  0.06053  0.36985  1.0000
  S   S415      1.0  0.86330  0.09000  0.36283  1.0000
  S   S416      1.0  0.89691  0.04591  0.37124  1.0000
  Fe  Fe210     1.0  0.83174  0.05925  0.37064  1.0000
  S   S417      1.0  0.82314  0.08849  0.36448  1.0000
  S   S418      1.0  0.81081  0.04561  0.37154  1.0000
  Fe  Fe211     1.0  0.84861  0.08753  0.34429  1.0000
  Fe  Fe212     1.0  0.83863  0.08758  0.38381  1.0000
  S   S419      1.0  0.82624  0.10521  0.40305  1.0000
  S   S420      1.0  0.85636  0.05825  0.34970  1.0000
  S   S421      1.0  0.84507  0.05817  0.39185  1.0000
  S   S422      1.0  0.93369  0.09662  0.38766  1.0000
  C   C1797     1.0  0.92823  0.01768  0.54325  1.0000
  H   H3160     1.0  0.76053  0.02189  0.38471  1.0000
  C   C1798     1.0  0.76601  0.02832  0.34077  1.0000
  C   C1799     1.0  0.90067  0.01746  0.41825  1.0000
  H   H3161     1.0  0.92284  0.01835  0.55719  1.0000
  H   H3162     1.0  0.93210  0.03921  0.43570  1.0000
  H   H3163     1.0  0.92812  0.12578  0.62872  1.0000
  H   H3164     1.0  0.95776  0.08742  0.46981  1.0000
  H   H3165     1.0  0.85159  0.00400  0.60319  1.0000
  H   H3166     1.0  0.98003  0.01852  0.48530  1.0000
  H   H3167     1.0  0.88114  0.04177  0.41223  1.0000
  C   C1800     1.0  0.66268  0.00881  0.56490  1.0000
  H   H3168     1.0  0.88748  0.08768  0.31985  1.0000
  H   H3169     1.0  0.93327  0.15093  0.40975  1.0000
  H   H3170     1.0  0.97047  0.06300  0.58149  1.0000
  C   C1801     1.0  0.86528  0.15326  0.63492  1.0000
  C   C1802     1.0  0.93383  0.06913  0.37438  1.0000
  C   C1803     1.0  0.80488  0.09700  0.32558  1.0000
  C   C1804     1.0  0.94640  0.00507  0.54084  1.0000
  C   C1805     1.0  0.98328  0.01977  0.56276  1.0000
  H   H3171     1.0  0.92914  0.03107  0.53526  1.0000
  H   H3172     1.0  0.86839  0.18815  0.62040  1.0000
  C   C1806     1.0  0.92336  0.13327  0.61672  1.0000
  C   C1807     1.0  0.98553  0.06391  0.44878  1.0000
  S   S423      1.0  0.80553  0.00658  0.46933  1.0000
  H   H3173     1.0  0.66325  0.01088  0.55074  1.0000
  H   H3174     1.0  0.95715  0.11647  0.58341  1.0000
  C   C1808     1.0  0.77856  0.03551  0.32410  1.0000
  H   H3175     1.0  0.77606  0.05913  0.33240  1.0000
  C   C1809     1.0  0.94392  0.09521  0.47152  1.0000
  C   C1810     1.0  0.74550  0.99268  0.39816  1.0000
  C   C1811     1.0  0.90214  0.08520  0.31535  1.0000
  C   C1812     1.0  0.93468  0.09267  0.45873  1.0000
  C   C1813     1.0  0.89611  0.14907  0.63600  1.0000
  H   H3176     1.0  0.78388  0.02917  0.55184  1.0000
  C   C1814     1.0  0.90722  0.05996  0.37571  1.0000
  C   C1815     1.0  0.89704  0.07320  0.38447  1.0000
  C   C1816     1.0  0.90517  0.08477  0.38764  1.0000
  C   C1817     1.0  0.92358  0.08262  0.38283  1.0000
  H   H3177     1.0  0.88289  0.07447  0.38898  1.0000
  H   H3178     1.0  0.89713  0.09538  0.39382  1.0000
  H   H3179     1.0  0.98658  0.06518  0.43465  1.0000
  C   C1818     1.0  0.96400  0.13012  0.31359  1.0000
  C   C1819     1.0  0.83185  0.99206  0.62243  1.0000
  H   H3180     1.0  0.96961  0.00669  0.35772  1.0000
  H   H3181     1.0  0.72498  0.02224  0.52812  1.0000
  C   C1820     1.0  0.83960  0.09772  0.45607  1.0000
  C   C1821     1.0  0.82764  0.11256  0.44940  1.0000
  C   C1822     1.0  0.82388  0.11457  0.43314  1.0000
  C   C1823     1.0  0.83231  0.10197  0.42307  1.0000
  C   C1824     1.0  0.84461  0.08719  0.42949  1.0000
  C   C1825     1.0  0.84790  0.08485  0.44621  1.0000
  H   H3182     1.0  0.82110  0.12254  0.45691  1.0000
  H   H3183     1.0  0.81442  0.12603  0.42827  1.0000
  H   H3184     1.0  0.85118  0.07738  0.42180  1.0000
  H   H3185     1.0  0.85686  0.07314  0.45137  1.0000
  C   C1826     1.0  0.93782  0.03917  0.48148  1.0000
  C   C1827     1.0  0.93466  0.05138  0.49175  1.0000
  C   C1828     1.0  0.94810  0.05225  0.49907  1.0000
  C   C1829     1.0  0.96445  0.04045  0.49668  1.0000
  C   C1830     1.0  0.96743  0.02781  0.48697  1.0000
  C   C1831     1.0  0.95428  0.02747  0.47899  1.0000
  H   H3186     1.0  0.92201  0.06043  0.49376  1.0000
  H   H3187     1.0  0.94573  0.06183  0.50681  1.0000
  H   H3188     1.0  0.73110  0.01313  0.50899  1.0000
  H   H3189     1.0  0.95673  0.01793  0.47118  1.0000
  H   H3190     1.0  0.92964  0.14474  0.61100  1.0000
  H   H3191     1.0  0.96710  0.14637  0.40940  1.0000
  H   H3192     1.0  0.68872  0.98537  0.55040  1.0000
  H   H3193     1.0  0.98721  0.14291  0.34830  1.0000
  H   H3194     1.0  0.80272  0.99124  0.50631  1.0000
  C   C1832     1.0  0.83423  0.15556  0.63134  1.0000
  H   H3195     1.0  0.86057  0.06667  0.31462  1.0000
  C   C1833     1.0  0.92563  0.05797  0.37059  1.0000
  H   H3196     1.0  0.90851  0.20545  0.59436  1.0000
  C   C1834     1.0  0.90331  0.11480  0.31582  1.0000
  C   C1835     1.0  0.82894  0.99349  0.35443  1.0000
  C   C1836     1.0  0.84170  0.00220  0.35437  1.0000
  C   C1837     1.0  0.83638  0.01817  0.35988  1.0000
  C   C1838     1.0  0.81834  0.02538  0.36530  1.0000
  C   C1839     1.0  0.80575  0.01639  0.36571  1.0000
  C   C1840     1.0  0.81101  0.00053  0.36032  1.0000
  H   H3197     1.0  0.85562  0.99676  0.34988  1.0000
  H   H3198     1.0  0.84622  0.02488  0.35979  1.0000
  H   H3199     1.0  0.79184  0.02178  0.37001  1.0000
  H   H3200     1.0  0.80108  0.99380  0.36078  1.0000
  H   H3201     1.0  0.96629  0.99659  0.42322  1.0000
  C   C1841     1.0  0.96021  0.01164  0.54587  1.0000
  H   H3202     1.0  0.90812  0.04145  0.31329  1.0000
  C   C1842     1.0  0.84582  0.16405  0.63694  1.0000
  H   H3203     1.0  0.81646  0.09016  0.33155  1.0000
  H   H3204     1.0  0.88049  0.17283  0.60757  1.0000
  C   C1843     1.0  0.80404  0.02717  0.56567  1.0000
  H   H3205     1.0  0.81644  0.02245  0.32617  1.0000
  H   H3206     1.0  0.72871  0.99091  0.58393  1.0000
  C   C1844     1.0  0.88226  0.02933  0.42234  1.0000
  C   C1845     1.0  0.81883  0.00475  0.48362  1.0000
  C   C1846     1.0  0.81397  0.99737  0.50143  1.0000
  C   C1847     1.0  0.82310  0.99885  0.51308  1.0000
  C   C1848     1.0  0.83702  0.00772  0.50685  1.0000
  C   C1849     1.0  0.84257  0.01397  0.48893  1.0000
  C   C1850     1.0  0.83358  0.01235  0.47732  1.0000
  C   C1851     1.0  0.97577  0.98370  0.56173  1.0000
  H   H3207     1.0  0.94500  0.99185  0.54892  1.0000
  H   H3208     1.0  0.85379  0.02003  0.48398  1.0000
  H   H3209     1.0  0.83782  0.01737  0.46347  1.0000
  H   H3210     1.0  0.99347  0.01920  0.53559  1.0000
  C   C1852     1.0  0.72761  0.00190  0.42474  1.0000
  C   C1853     1.0  0.73020  0.00267  0.40687  1.0000
  C   C1854     1.0  0.74037  0.99125  0.43407  1.0000
  C   C1855     1.0  0.79494  0.08375  0.32514  1.0000
  N   N99       1.0  0.87890  0.16257  0.63542  1.0000
  H   H3211     1.0  0.71573  0.00973  0.43131  1.0000
  H   H3212     1.0  0.72035  0.01114  0.39973  1.0000
  S   S424      1.0  0.76228  0.98697  0.49116  1.0000
  C   C1856     1.0  0.78714  0.04896  0.32712  1.0000
  H   H3213     1.0  0.82025  0.16298  0.63386  1.0000
  H   H3214     1.0  0.93791  0.13078  0.40249  1.0000
  S   S425      1.0  0.91005  0.07565  0.63600  1.0000
  H   H3215     1.0  0.82921  0.03331  0.55015  1.0000
  S   S426      1.0  0.84966  0.10349  0.31648  1.0000
  H   H3216     1.0  0.89598  0.09422  0.42243  1.0000
  H   H3217     1.0  0.73512  0.98565  0.55385  1.0000
  H   H3218     1.0  0.97672  0.14851  0.56901  1.0000
  C   C1857     1.0  0.91359  0.11480  0.42939  1.0000
  N   N100      1.0  0.93429  0.01679  0.41311  1.0000
  C   C1858     1.0  0.94605  0.02879  0.41213  1.0000
  C   C1859     1.0  0.93677  0.01287  0.39539  1.0000
  C   C1860     1.0  0.91530  0.02647  0.41833  1.0000
  C   C1861     1.0  0.92757  0.13993  0.40990  1.0000
  H   H3219     1.0  0.95056  0.02109  0.43894  1.0000
  C   C1862     1.0  0.94562  0.03312  0.42958  1.0000
  S   S427      1.0  0.84320  0.10812  0.59728  1.0000
  C   C1863     1.0  0.95533  0.01247  0.38290  1.0000
  H   H3220     1.0  0.89739  0.12753  0.62427  1.0000
  C   C1864     1.0  0.86251  0.00655  0.56610  1.0000
  C   C1865     1.0  0.95721  0.04611  0.42673  1.0000
  C   C1866     1.0  0.69062  0.98472  0.56356  1.0000
  H   H3221     1.0  0.94268  0.04142  0.40266  1.0000
  H   H3222     1.0  0.96015  0.02320  0.40700  1.0000
  H   H3223     1.0  0.96969  0.16856  0.40597  1.0000
  H   H3224     1.0  0.92754  0.02291  0.38778  1.0000
  H   H3225     1.0  0.91308  0.03974  0.40953  1.0000
  C   C1867     1.0  0.90317  0.13930  0.62070  1.0000
  S   S428      1.0  0.97560  0.12259  0.46160  1.0000
  S   S429      1.0  0.98168  0.06869  0.38569  1.0000
  H   H3226     1.0  0.81684  0.05957  0.55804  1.0000
  H   H3227     1.0  0.86883  0.14868  0.62251  1.0000
  N   N101      1.0  0.79920  0.05749  0.31127  1.0000
  H   H3228     1.0  0.95229  0.05871  0.41800  1.0000
  H   H3229     1.0  0.93322  0.00289  0.44006  1.0000
  H   H3230     1.0  0.78877  0.02421  0.31998  1.0000
  H   H3231     1.0  0.95796  0.02591  0.37843  1.0000
  H   H3232     1.0  0.96246  0.18209  0.32110  1.0000
  H   H3233     1.0  0.92762  0.12463  0.60723  1.0000
  H   H3234     1.0  0.86019  0.00545  0.55372  1.0000
  H   H3235     1.0  0.79602  0.10655  0.33339  1.0000
  Fe  Fe213     1.0  0.74106  0.99386  0.63927  1.0000
  H   H3236     1.0  0.80965  0.10432  0.31213  1.0000
  H   H3237     1.0  0.74514  0.00558  0.52456  1.0000
  H   H3238     1.0  0.97122  0.04059  0.42095  1.0000
  H   H3239     1.0  0.84483  0.17760  0.62894  1.0000
  H   H3240     1.0  0.85337  0.13541  0.45691  1.0000
  H   H3241     1.0  0.68868  0.01302  0.56092  1.0000
  H   H3242     1.0  0.77818  0.99830  0.53887  1.0000
  H   H3243     1.0  0.97915  0.10422  0.40831  1.0000
  N   N102      1.0  0.79141  0.07352  0.48698  1.0000
  C   C1868     1.0  0.77671  0.08309  0.47737  1.0000
  C   C1869     1.0  0.78599  0.05828  0.50127  1.0000
  C   C1870     1.0  0.79443  0.08644  0.49546  1.0000
  C   C1871     1.0  0.80854  0.06737  0.47473  1.0000
  C   C1872     1.0  0.80793  0.05476  0.46399  1.0000
  C   C1873     1.0  0.78081  0.09872  0.46195  1.0000
  C   C1874     1.0  0.80674  0.07872  0.50867  1.0000
  C   C1875     1.0  0.77443  0.04785  0.49766  1.0000
  C   C1876     1.0  0.77274  0.03127  0.51197  1.0000
  C   C1877     1.0  0.82387  0.05328  0.44868  1.0000
  C   C1878     1.0  0.76516  0.10710  0.45305  1.0000
  C   C1879     1.0  0.80775  0.09292  0.51707  1.0000
  H   H3244     1.0  0.76454  0.08811  0.48673  1.0000
  H   H3245     1.0  0.77269  0.07418  0.47190  1.0000
  H   H3246     1.0  0.79802  0.04872  0.50504  1.0000
  H   H3247     1.0  0.77804  0.06295  0.51332  1.0000
  H   H3248     1.0  0.78153  0.09333  0.50249  1.0000
  H   H3249     1.0  0.80044  0.09683  0.48541  1.0000
  H   H3250     1.0  0.81359  0.07876  0.46563  1.0000
  H   H3251     1.0  0.81918  0.06033  0.48205  1.0000
  H   H3252     1.0  0.79599  0.05893  0.45850  1.0000
  H   H3253     1.0  0.80808  0.04155  0.47257  1.0000
  H   H3254     1.0  0.78354  0.10914  0.46648  1.0000
  H   H3255     1.0  0.79241  0.09432  0.45184  1.0000
  H   H3256     1.0  0.82031  0.07326  0.50192  1.0000
  H   H3257     1.0  0.80203  0.06815  0.51944  1.0000
  H   H3258     1.0  0.76083  0.05601  0.49746  1.0000
  H   H3259     1.0  0.77987  0.04377  0.48507  1.0000
  H   H3260     1.0  0.78603  0.02312  0.51351  1.0000
  H   H3261     1.0  0.76522  0.03465  0.52467  1.0000
  H   H3262     1.0  0.76576  0.02331  0.50834  1.0000
  H   H3263     1.0  0.82428  0.04235  0.44286  1.0000
  H   H3264     1.0  0.82256  0.06553  0.43841  1.0000
  H   H3265     1.0  0.83646  0.05068  0.45300  1.0000
  H   H3266     1.0  0.76857  0.11809  0.44199  1.0000
  H   H3267     1.0  0.76212  0.09737  0.44776  1.0000
  H   H3268     1.0  0.75324  0.11241  0.46240  1.0000
  H   H3269     1.0  0.79446  0.09842  0.52448  1.0000
  C   C1880     1.0  0.88228  0.00553  0.56347  1.0000
  H   H3270     1.0  0.91242  0.02856  0.43179  1.0000
  H   H3271     1.0  0.85875  0.12738  0.47822  1.0000
  C   C1881     1.0  0.80248  0.03165  0.63776  1.0000
  S   S430      1.0  0.88276  0.05519  0.54846  1.0000
  C   C1882     1.0  0.98313  0.14574  0.55585  1.0000
  C   C1883     1.0  0.90716  0.08622  0.44589  1.0000
  H   H3272     1.0  0.94422  0.10923  0.46923  1.0000
  C   C1884     1.0  0.89517  0.08439  0.43495  1.0000
  C   C1885     1.0  0.88326  0.12232  0.32234  1.0000
  C   C1886     1.0  0.79856  0.02599  0.54964  1.0000
  H   H3273     1.0  0.91342  0.06416  0.42234  1.0000
  C   C1887     1.0  0.81451  0.07569  0.57561  1.0000
  H   H3274     1.0  0.90802  0.09767  0.47415  1.0000
  H   H3275     1.0  0.92889  0.99131  0.42695  1.0000
  H   H3276     1.0  0.88365  0.14116  0.44409  1.0000
  S   S431      1.0  0.86546  0.10982  0.63346  1.0000
  H   H3277     1.0  0.85408  0.03446  0.55892  1.0000
  H   H3278     1.0  0.90386  0.07768  0.45912  1.0000
  H   H3279     1.0  0.80351  0.01244  0.54739  1.0000
  S   S432      1.0  0.97196  0.08771  0.34684  1.0000
  C   C1888     1.0  0.99249  0.08812  0.56516  1.0000
  H   H3280     1.0  0.85667  0.02706  0.58066  1.0000
  Fe  Fe214     1.0  0.97722  0.09590  0.52612  1.0000
  C   C1889     1.0  0.91533  0.10360  0.46105  1.0000
  H   H3281     1.0  0.85932  0.99496  0.57632  1.0000
  H   H3282     1.0  0.89034  0.06511  0.42430  1.0000
  H   H3283     1.0  0.67989  0.00134  0.58267  1.0000
  H   H3284     1.0  0.70583  0.00159  0.58588  1.0000
  H   H3285     1.0  0.86903  0.04969  0.58511  1.0000
  H   H3286     1.0  0.88625  0.01688  0.55331  1.0000
  Fe  Fe215     1.0  0.96235  0.09180  0.37428  1.0000
  H   H3287     1.0  0.97707  0.11217  0.60346  1.0000
  N   N103      1.0  0.97808  0.99917  0.54649  1.0000
  S   S433      1.0  0.73663  0.99075  0.45647  1.0000
  C   C1890     1.0  0.98649  0.10480  0.41729  1.0000
  C   C1891     1.0  0.95639  0.00624  0.36658  1.0000
  H   H3288     1.0  0.85833  0.14997  0.46708  1.0000
  H   H3289     1.0  0.94607  0.01491  0.35948  1.0000
  C   C1892     1.0  0.83698  0.00732  0.60767  1.0000
  S   S434      1.0  0.74844  0.99475  0.37547  1.0000
  C   C1893     1.0  0.98129  0.10521  0.59298  1.0000
  H   H3290     1.0  0.80898  0.04269  0.58983  1.0000
  H   H3291     1.0  0.83336  0.01916  0.61318  1.0000
  H   H3292     1.0  0.80025  0.07580  0.58133  1.0000
  H   H3293     1.0  0.82086  0.07614  0.58587  1.0000
  H   H3294     1.0  0.99175  0.00755  0.40865  1.0000
  H   H3295     1.0  0.90027  0.03747  0.62285  1.0000
  H   H3296     1.0  0.75521  0.98460  0.31315  1.0000
  C   C1894     1.0  0.82752  0.01045  0.59255  1.0000
  C   C1895     1.0  0.93940  0.09078  0.31059  1.0000
  H   H3297     1.0  0.95388  0.01521  0.55875  1.0000
  H   H3298     1.0  0.86601  0.13952  0.33917  1.0000
  C   C1896     1.0  0.97005  0.10769  0.58157  1.0000
  C   C1897     1.0  0.71496  0.98889  0.58954  1.0000
  H   H3299     1.0  0.85080  0.11317  0.55976  1.0000
  H   H3300     1.0  0.80412  0.05733  0.62144  1.0000
  C   C1898     1.0  0.89722  0.19905  0.59711  1.0000
  C   C1899     1.0  0.93740  0.00005  0.42675  1.0000
  H   H3301     1.0  0.93684  0.09086  0.48519  1.0000
  H   H3302     1.0  0.70736  0.00045  0.53071  1.0000
  C   C1900     1.0  0.86294  0.08746  0.55420  1.0000
  H   H3303     1.0  0.88903  0.13268  0.46544  1.0000
  H   H3304     1.0  0.90711  0.08093  0.32764  1.0000
  C   C1901     1.0  0.98697  0.15484  0.37584  1.0000
  H   H3305     1.0  0.93306  0.00023  0.39692  1.0000
  C   C1902     1.0  0.85582  0.07514  0.59048  1.0000
  H   H3306     1.0  0.90357  0.11981  0.42111  1.0000
  H   H3307     1.0  0.98314  0.16794  0.31321  1.0000
  H   H3308     1.0  0.81547  0.06046  0.32692  1.0000
  C   C1903     1.0  0.80830  0.04745  0.63238  1.0000
  C   C1904     1.0  0.85128  0.02414  0.57091  1.0000
  C   C1905     1.0  0.95655  0.98881  0.42449  1.0000
  H   H3309     1.0  0.81677  0.08721  0.52630  1.0000
  H   H3310     1.0  0.92103  0.08015  0.44008  1.0000
  H   H3311     1.0  0.76337  0.04408  0.37514  1.0000
  H   H3312     1.0  0.98085  0.15095  0.42084  1.0000
  H   H3313     1.0  0.81564  0.08763  0.56503  1.0000
  C   C1906     1.0  0.72108  0.99095  0.55266  1.0000
  C   C1907     1.0  0.86867  0.06964  0.56140  1.0000
  H   H3314     1.0  0.79738  0.04032  0.56843  1.0000
  H   H3315     1.0  0.87883  0.11389  0.44311  1.0000
  C   C1908     1.0  0.97766  0.11265  0.43156  1.0000
  Fe  Fe216     1.0  0.98382  0.06740  0.50616  1.0000
  H   H3316     1.0  0.86594  0.09229  0.54018  1.0000
  C   C1909     1.0  0.92145  0.13041  0.42876  1.0000
  Fe  Fe217     1.0  0.79066  0.98523  0.47708  1.0000
  C   C1910     1.0  0.85442  0.09925  0.56527  1.0000
  C   C1911     1.0  0.88144  0.13143  0.45663  1.0000
  H   H3317     1.0  0.88042  0.10390  0.46513  1.0000
  H   H3318     1.0  0.97192  0.06246  0.45593  1.0000
  H   H3319     1.0  0.87620  0.11169  0.32950  1.0000
  H   H3320     1.0  0.82956  0.04362  0.59271  1.0000
  S   S435      1.0  0.78777  0.02889  0.62677  1.0000
  H   H3321     1.0  0.74140  0.03970  0.38315  1.0000
  H   H3322     1.0  0.83871  0.15561  0.61717  1.0000
  H   H3323     1.0  0.94244  0.09638  0.44524  1.0000
  C   C1912     1.0  0.85137  0.09315  0.58347  1.0000
  C   C1913     1.0  0.82307  0.04239  0.58288  1.0000
  H   H3324     1.0  0.87199  0.02261  0.42240  1.0000
  H   H3325     1.0  0.71563  0.99455  0.61373  1.0000
  H   H3326     1.0  0.81304  0.01283  0.59839  1.0000
  H   H3327     1.0  0.71721  0.00350  0.55699  1.0000
  H   H3328     1.0  0.94808  0.06721  0.37083  1.0000
  S   S436      1.0  0.76887  0.99758  0.57510  1.0000
  C   C1914     1.0  0.89631  0.18608  0.61482  1.0000
  H   H3329     1.0  0.89008  0.99329  0.55916  1.0000
  H   H3330     1.0  0.89977  0.05596  0.44336  1.0000
  C   C1915     1.0  0.86177  0.13631  0.46522  1.0000
  H   H3331     1.0  0.91884  0.01305  0.53884  1.0000
  H   H3332     1.0  0.65615  0.02148  0.56893  1.0000
  Fe  Fe218     1.0  0.98297  0.10482  0.48633  1.0000
  H   H3333     1.0  0.93317  0.12574  0.43472  1.0000
  C   C1916     1.0  0.88043  0.13428  0.33479  1.0000
  S   S437      1.0  0.78892  0.98448  0.33629  1.0000
  C   C1917     1.0  0.86480  0.06348  0.57951  1.0000
  H   H3334     1.0  0.91340  0.04927  0.32941  1.0000
  C   C1918     1.0  0.68134  0.00263  0.56849  1.0000
  S   S438      1.0  0.96293  0.10458  0.55153  1.0000
  C   C1919     1.0  0.88632  0.11276  0.45309  1.0000
  H   H3335     1.0  0.83747  0.06036  0.56179  1.0000
  H   H3336     1.0  0.81411  0.98867  0.40427  1.0000
  H   H3337     1.0  0.89930  0.19213  0.58650  1.0000
  C   C1920     1.0  0.93871  0.08400  0.64054  1.0000
  C   C1921     1.0  0.90005  0.06620  0.43105  1.0000
  H   H3338     1.0  0.89075  0.05380  0.32725  1.0000
  H   H3339     1.0  0.93488  0.07847  0.46144  1.0000
  Fe  Fe219     1.0  0.84975  0.09702  0.62393  1.0000
  C   C1922     1.0  0.80781  0.06859  0.31689  1.0000
  S   S439      1.0  0.86630  0.07003  0.63104  1.0000
  H   H3340     1.0  0.85242  0.07018  0.60438  1.0000
  N   N104      1.0  0.90576  0.10477  0.44720  1.0000
  Fe  Fe220     1.0  0.77672  0.00511  0.62981  1.0000
  H   H3341     1.0  0.89479  0.19373  0.62462  1.0000
  H   H3342     1.0  0.88129  0.08639  0.44240  1.0000
  C   C1923     1.0  0.97656  0.15449  0.40826  1.0000
  H   H3343     1.0  0.91186  0.14009  0.43587  1.0000
  H   H3344     1.0  0.97853  0.14544  0.37756  1.0000
  H   H3345     1.0  0.84644  0.00695  0.31409  1.0000
  H   H3346     1.0  0.91623  0.14536  0.40331  1.0000
  H   H3347     1.0  0.92461  0.10588  0.42221  1.0000
  H   H3348     1.0  0.89949  0.14754  0.60840  1.0000
  H   H3349     1.0  0.93757  0.09990  0.31913  1.0000
  H   H3350     1.0  0.78854  0.07835  0.33881  1.0000
  H   H3351     1.0  0.96328  0.04278  0.59304  1.0000
  H   H3352     1.0  0.91557  0.11683  0.46208  1.0000
  H   H3353     1.0  0.77068  0.04171  0.31392  1.0000
  N   N105      1.0  0.91672  0.07584  0.57901  1.0000
  C   C1924     1.0  0.90566  0.06500  0.59385  1.0000
  C   C1925     1.0  0.91228  0.09422  0.58199  1.0000
  C   C1926     1.0  0.91258  0.07570  0.56217  1.0000
  C   C1927     1.0  0.93625  0.06843  0.57811  1.0000
  C   C1928     1.0  0.94264  0.06644  0.59496  1.0000
  C   C1929     1.0  0.91045  0.04496  0.59474  1.0000
  C   C1930     1.0  0.92112  0.08775  0.54543  1.0000
  C   C1931     1.0  0.89309  0.10474  0.58123  1.0000
  C   C1932     1.0  0.89016  0.12310  0.58436  1.0000
  C   C1933     1.0  0.96197  0.05662  0.59345  1.0000
  C   C1934     1.0  0.89857  0.03550  0.61054  1.0000
  C   C1935     1.0  0.91484  0.08723  0.52961  1.0000
  H   H3354     1.0  0.89148  0.06955  0.59314  1.0000
  H   H3355     1.0  0.90597  0.06703  0.60662  1.0000
  H   H3356     1.0  0.91404  0.09384  0.59514  1.0000
  H   H3357     1.0  0.92173  0.10203  0.57261  1.0000
  H   H3358     1.0  0.89803  0.07919  0.56319  1.0000
  H   H3359     1.0  0.91691  0.06222  0.55968  1.0000
  H   H3360     1.0  0.94047  0.05559  0.57417  1.0000
  H   H3361     1.0  0.94412  0.07704  0.56764  1.0000
  H   H3362     1.0  0.93477  0.05905  0.60664  1.0000
  H   H3363     1.0  0.94167  0.07956  0.59722  1.0000
  H   H3364     1.0  0.90864  0.04219  0.58288  1.0000
  H   H3365     1.0  0.92433  0.03912  0.59608  1.0000
  H   H3366     1.0  0.93577  0.08336  0.54265  1.0000
  H   H3367     1.0  0.91759  0.10162  0.54664  1.0000
  H   H3368     1.0  0.89012  0.10633  0.56835  1.0000
  H   H3369     1.0  0.88336  0.09808  0.59151  1.0000
  H   H3370     1.0  0.89247  0.12220  0.59738  1.0000
  H   H3371     1.0  0.89920  0.13065  0.57408  1.0000
  H   H3372     1.0  0.87624  0.13019  0.58404  1.0000
  H   H3373     1.0  0.94657  0.07538  0.63189  1.0000
  C   C1936     1.0  0.97947  0.17110  0.33980  1.0000
  H   H3374     1.0  0.81903  0.99361  0.52693  1.0000
  H   H3375     1.0  0.90882  0.10872  0.32774  1.0000
  H   H3376     1.0  0.88443  0.04049  0.60976  1.0000
  H   H3377     1.0  0.90216  0.02121  0.61090  1.0000
  H   H3378     1.0  0.92136  0.09561  0.51768  1.0000
  H   H3379     1.0  0.91819  0.07360  0.52766  1.0000
  H   H3380     1.0  0.90026  0.09225  0.53144  1.0000
  S   S440      1.0  0.98113  0.04077  0.50630  1.0000
  C   C1937     1.0  0.71223  0.98433  0.60943  1.0000
  C   C1938     1.0  0.97594  0.09963  0.56722  1.0000
  H   H3381     1.0  0.88484  0.20943  0.59711  1.0000
  H   H3382     1.0  0.90232  0.01447  0.40538  1.0000
  H   H3383     1.0  0.97657  0.13650  0.55361  1.0000
  C   C1939     1.0  0.99040  0.00942  0.54798  1.0000
  H   H3384     1.0  0.90083  0.00504  0.42834  1.0000
  H   H3385     1.0  0.97346  0.03193  0.55871  1.0000
  H   H3386     1.0  0.79423  0.04246  0.33793  1.0000
  H   H3387     1.0  0.83050  0.99787  0.58830  1.0000
  H   H3388     1.0  0.90912  0.17637  0.61402  1.0000
  H   H3389     1.0  0.96666  0.05673  0.60497  1.0000
  N   N106      1.0  0.83159  0.02526  0.57718  1.0000
  H   H3390     1.0  0.83233  0.03602  0.32036  1.0000
  C   C1940     1.0  0.98692  0.11308  0.44356  1.0000
  H   H3391     1.0  0.96360  0.11819  0.43348  1.0000
  H   H3392     1.0  0.81732  0.99477  0.62775  1.0000
  H   H3393     1.0  0.97801  0.16810  0.37440  1.0000
  H   H3394     1.0  0.95462  0.99252  0.37015  1.0000
  H   H3395     1.0  0.87962  0.03242  0.43537  1.0000
  H   H3396     1.0  0.95964  0.12752  0.32766  1.0000
  H   H3397     1.0  0.75549  0.03910  0.34560  1.0000
  Fe  Fe221     1.0  0.76677  0.99055  0.60415  1.0000
  H   H3398     1.0  0.97670  0.01186  0.57503  1.0000
  H   H3399     1.0  0.98773  0.07599  0.45080  1.0000
  H   H3400     1.0  0.77344  0.02086  0.35111  1.0000
  C   C1941     1.0  0.82449  0.02407  0.56242  1.0000
  N   N107      1.0  0.77620  0.03666  0.42268  1.0000
  C   C1942     1.0  0.79263  0.02463  0.42825  1.0000
  C   C1943     1.0  0.76027  0.03580  0.43783  1.0000
  C   C1944     1.0  0.77292  0.03007  0.40856  1.0000
  C   C1945     1.0  0.77850  0.05531  0.41501  1.0000
  C   C1946     1.0  0.78488  0.06389  0.42608  1.0000
  C   C1947     1.0  0.81002  0.02374  0.41403  1.0000
  C   C1948     1.0  0.75464  0.03831  0.40348  1.0000
  C   C1949     1.0  0.76335  0.03327  0.45638  1.0000
  C   C1950     1.0  0.74582  0.03578  0.46979  1.0000
  C   C1951     1.0  0.78932  0.08149  0.41560  1.0000
  C   C1952     1.0  0.82568  0.01144  0.42144  1.0000
  C   C1953     1.0  0.75504  0.03583  0.38552  1.0000
  H   H3401     1.0  0.79047  0.01106  0.43354  1.0000
  H   H3402     1.0  0.79538  0.02831  0.43911  1.0000
  H   H3403     1.0  0.74947  0.04764  0.43547  1.0000
  H   H3404     1.0  0.75462  0.02438  0.43888  1.0000
  H   H3405     1.0  0.77407  0.01557  0.41244  1.0000
  H   H3406     1.0  0.78327  0.03228  0.39646  1.0000
  H   H3407     1.0  0.78793  0.05614  0.40207  1.0000
  H   H3408     1.0  0.76591  0.06421  0.41219  1.0000
  H   H3409     1.0  0.79708  0.05558  0.43018  1.0000
  H   H3410     1.0  0.77431  0.06648  0.43767  1.0000
  H   H3411     1.0  0.80894  0.01861  0.40329  1.0000
  H   H3412     1.0  0.81320  0.03689  0.40863  1.0000
  H   H3413     1.0  0.75039  0.05256  0.40306  1.0000
  H   H3414     1.0  0.74433  0.03190  0.41319  1.0000
  H   H3415     1.0  0.77080  0.01965  0.46057  1.0000
  H   H3416     1.0  0.77102  0.04236  0.45692  1.0000
  H   H3417     1.0  0.73804  0.02631  0.47012  1.0000
  H   H3418     1.0  0.74852  0.03335  0.48296  1.0000
  H   H3419     1.0  0.73793  0.04939  0.46658  1.0000
  H   H3420     1.0  0.77752  0.09078  0.41128  1.0000
  H   H3421     1.0  0.79390  0.08742  0.42378  1.0000
  H   H3422     1.0  0.80020  0.07963  0.40396  1.0000
  H   H3423     1.0  0.82314  0.99803  0.42717  1.0000
  H   H3424     1.0  0.83781  0.01063  0.41081  1.0000
  H   H3425     1.0  0.82810  0.01643  0.43170  1.0000
  H   H3426     1.0  0.93642  0.07813  0.31885  1.0000
  H   H3427     1.0  0.81298  0.10370  0.50696  1.0000
  H   H3428     1.0  0.82995  0.01082  0.55935  1.0000
  C   C1954     1.0  0.82363  0.05931  0.56821  1.0000
  H   H3429     1.0  0.78440  0.09103  0.31790  1.0000
  Fe  Fe222     1.0  0.99013  0.10517  0.34389  1.0000
  H   H3430     1.0  0.83854  0.99030  0.63318  1.0000
  C   C1955     1.0  0.77396  0.98617  0.54556  1.0000
  H   H3431     1.0  0.95044  0.00448  0.52682  1.0000
  C   C1956     1.0  0.98495  0.99316  0.52945  1.0000
  H   H3432     1.0  0.65451  0.99905  0.57243  1.0000
  C   C1957     1.0  0.82483  0.02992  0.31509  1.0000
  C   C1958     1.0  0.90473  0.05247  0.31998  1.0000
  H   H3433     1.0  0.98496  0.00474  0.51829  1.0000
  H   H3434     1.0  0.98470  0.03285  0.38429  1.0000
  H   H3435     1.0  0.98109  0.15821  0.54591  1.0000
  H   H3436     1.0  0.88545  0.00554  0.57585  1.0000
  H   H3437     1.0  0.99284  0.03399  0.57589  1.0000
  H   H3438     1.0  0.82351  0.06305  0.63703  1.0000
  C   C1959     1.0  0.99270  0.15115  0.39343  1.0000
  Fe  Fe223     1.0  0.99280  0.06617  0.35786  1.0000
  H   H3439     1.0  0.79322  0.98383  0.41712  1.0000
  C   C1960     1.0  0.81930  0.05072  0.64120  1.0000
  H   H3440     1.0  0.83469  0.14180  0.63879  1.0000
  H   H3441     1.0  0.69819  0.98382  0.61570  1.0000
  H   H3442     1.0  0.72767  0.98406  0.52702  1.0000
  H   H3443     1.0  0.87692  0.13015  0.31131  1.0000
  H   H3444     1.0  0.96707  0.08096  0.31156  1.0000
  Fe  Fe224     1.0  0.52835  0.99737  0.73156  1.0000
  H   H3445     1.0  0.62302  0.09287  0.95667  1.0000
  H   H3446     1.0  0.71081  0.15690  0.96845  1.0000
  C   C1961     1.0  0.92457  0.07991  0.70850  1.0000
  H   H3447     1.0  0.56054  0.12036  0.86555  1.0000
  H   H3448     1.0  0.66084  0.20208  0.94246  1.0000
  H   H3449     1.0  0.89283  0.15948  0.66731  1.0000
  C   C1962     1.0  0.56818  0.17812  0.84934  1.0000
  H   H3450     1.0  0.64387  0.11799  0.94895  1.0000
  H   H3451     1.0  0.62414  0.05304  0.89917  1.0000
  C   C1963     1.0  0.63839  0.16539  0.93599  1.0000
  H   H3452     1.0  0.71948  0.03202  0.65707  1.0000
  H   H3453     1.0  0.92278  0.17677  0.66136  1.0000
  Fe  Fe225     1.0  0.62962  0.00140  0.76584  1.0000
  S   S441      1.0  0.63990  0.00397  0.73695  1.0000
  H   H3454     1.0  0.78777  0.98986  0.69696  1.0000
  Fe  Fe226     1.0  0.63069  0.03888  0.76430  1.0000
  S   S442      1.0  0.64091  0.04452  0.73522  1.0000
  S   S443      1.0  0.62307  0.06204  0.77691  1.0000
  Fe  Fe227     1.0  0.62103  0.03015  0.73484  1.0000
  S   S444      1.0  0.60278  0.04009  0.71616  1.0000
  Fe  Fe228     1.0  0.65886  0.01785  0.74010  1.0000
  S   S445      1.0  0.68819  0.01247  0.72799  1.0000
  S   S446      1.0  0.60926  0.02671  0.76346  1.0000
  S   S447      1.0  0.65014  0.01321  0.76943  1.0000
  C   C1964     1.0  0.58114  0.13254  0.82214  1.0000
  H   H3455     1.0  0.55543  0.14812  0.83132  1.0000
  S   S448      1.0  0.54268  0.14319  0.96375  1.0000
  H   H3456     1.0  0.60334  0.07810  0.74633  1.0000
  H   H3457     1.0  0.77315  0.05868  0.69381  1.0000
  H   H3458     1.0  0.54289  0.16811  0.91374  1.0000
  C   C1965     1.0  0.56915  0.07249  0.75740  1.0000
  H   H3459     1.0  0.91817  0.03271  0.69982  1.0000
  H   H3460     1.0  0.53777  0.03783  0.93785  1.0000
  S   S449      1.0  0.61672  0.10657  0.85894  1.0000
  S   S450      1.0  0.65890  0.10373  0.85644  1.0000
  Fe  Fe229     1.0  0.64295  0.09409  0.84395  1.0000
  S   S451      1.0  0.64909  0.06582  0.84165  1.0000
  H   H3461     1.0  0.69009  0.11016  0.91360  1.0000
  S   S452      1.0  0.85846  0.21538  0.74210  1.0000
  C   C1966     1.0  0.63898  0.11409  0.91027  1.0000
  C   C1967     1.0  0.63656  0.12120  0.92472  1.0000
  H   H3462     1.0  0.78561  0.16627  0.74587  1.0000
  H   H3463     1.0  0.62647  0.13288  0.92649  1.0000
  C   C1968     1.0  0.66251  0.09076  0.92068  1.0000
  C   C1969     1.0  0.65235  0.09913  0.90795  1.0000
  S   S453      1.0  0.81219  0.20912  0.75370  1.0000
  C   C1970     1.0  0.97928  0.05356  0.68812  1.0000
  H   H3464     1.0  0.67260  0.07898  0.91915  1.0000
  H   H3465     1.0  0.65443  0.09364  0.89673  1.0000
  H   H3466     1.0  0.94094  0.10891  0.72982  1.0000
  S   S454      1.0  0.55144  0.10082  0.80688  1.0000
  Fe  Fe230     1.0  0.63269  0.11842  0.86913  1.0000
  Fe  Fe231     1.0  0.65736  0.12713  0.83395  1.0000
  H   H3467     1.0  0.49754  0.06310  0.70171  1.0000
  C   C1971     1.0  0.53059  0.02753  0.93913  1.0000
  C   C1972     1.0  0.94590  0.05685  0.69415  1.0000
  H   H3468     1.0  0.56852  0.08057  0.88389  1.0000
  H   H3469     1.0  0.60775  0.15662  0.91302  1.0000
  S   S455      1.0  0.49768  0.04837  0.76032  1.0000
  H   H3470     1.0  0.52159  0.11814  0.77152  1.0000
  C   C1973     1.0  0.63046  0.06190  0.79525  1.0000
  C   C1974     1.0  0.62494  0.07728  0.80159  1.0000
  C   C1975     1.0  0.63036  0.07826  0.81603  1.0000
  C   C1976     1.0  0.64164  0.06391  0.82417  1.0000
  C   C1977     1.0  0.64712  0.04830  0.81805  1.0000
  C   C1978     1.0  0.64155  0.04729  0.80352  1.0000
  H   H3471     1.0  0.61658  0.08856  0.79512  1.0000
  H   H3472     1.0  0.62576  0.09014  0.82091  1.0000
  H   H3473     1.0  0.65584  0.03710  0.82438  1.0000
  H   H3474     1.0  0.64587  0.03533  0.79872  1.0000
  C   C1979     1.0  0.69423  0.00813  0.70693  1.0000
  Fe  Fe232     1.0  0.53663  0.11628  0.97128  1.0000
  C   C1980     1.0  0.71731  0.99780  0.68326  1.0000
  C   C1981     1.0  0.70501  0.00235  0.67273  1.0000
  C   C1982     1.0  0.68719  0.00944  0.67950  1.0000
  C   C1983     1.0  0.68179  0.01233  0.69658  1.0000
  Fe  Fe233     1.0  0.97663  0.11024  0.65791  1.0000
  H   H3475     1.0  0.51644  0.07496  0.88697  1.0000
  H   H3476     1.0  0.67759  0.01300  0.67142  1.0000
  H   H3477     1.0  0.66810  0.01812  0.70160  1.0000
  C   C1984     1.0  0.82007  0.21231  0.83759  1.0000
  H   H3478     1.0  0.65810  0.16803  0.82999  1.0000
  H   H3479     1.0  0.62501  0.16284  0.94264  1.0000
  H   H3480     1.0  0.93740  0.19832  0.78293  1.0000
  Fe  Fe234     1.0  0.53737  0.08607  0.95569  1.0000
  C   C1985     1.0  0.57955  0.15639  0.92086  1.0000
  H   H3481     1.0  0.67159  0.15214  0.74880  1.0000
  S   S456      1.0  0.55709  0.98640  0.72117  1.0000
  H   H3482     1.0  0.83341  0.20663  0.84068  1.0000
  H   H3483     1.0  0.58059  0.14255  0.92795  1.0000
  C   C1986     1.0  0.88672  0.17236  0.65976  1.0000
  H   H3484     1.0  0.81695  0.18635  0.83700  1.0000
  H   H3485     1.0  0.93430  0.08105  0.71515  1.0000
  C   C1987     1.0  0.70256  0.10968  0.93367  1.0000
  C   C1988     1.0  0.57519  0.11943  0.91212  1.0000
  H   H3486     1.0  0.82630  0.15350  0.69348  1.0000
  H   H3487     1.0  0.93992  0.03440  0.76218  1.0000
  H   H3488     1.0  0.70687  0.09515  0.93592  1.0000
  H   H3489     1.0  0.65679  0.22743  0.95451  1.0000
  C   C1989     1.0  0.60852  0.09421  0.96082  1.0000
  C   C1990     1.0  0.56943  0.00146  0.72019  1.0000
  C   C1991     1.0  0.56614  0.01843  0.70984  1.0000
  C   C1992     1.0  0.57654  0.03019  0.70855  1.0000
  C   C1993     1.0  0.59000  0.02514  0.71787  1.0000
  C   C1994     1.0  0.59301  0.00828  0.72855  1.0000
  C   C1995     1.0  0.58287  0.99640  0.72954  1.0000
  H   H3490     1.0  0.55574  0.02242  0.70264  1.0000
  H   H3491     1.0  0.57408  0.04326  0.70040  1.0000
  H   H3492     1.0  0.60313  0.00440  0.73606  1.0000
  H   H3493     1.0  0.77316  0.08604  0.67121  1.0000
  H   H3494     1.0  0.75316  0.06712  0.67100  1.0000
  H   H3495     1.0  0.77031  0.14680  0.93790  1.0000
  C   C1996     1.0  0.78562  0.18001  0.74557  1.0000
  H   H3496     1.0  0.74125  0.22134  0.91283  1.0000
  H   H3497     1.0  0.58230  0.07710  0.77548  1.0000
  C   C1997     1.0  0.94200  0.14595  0.69412  1.0000
  H   H3498     1.0  0.96309  0.08238  0.72613  1.0000
  H   H3499     1.0  0.75675  0.13441  0.81870  1.0000
  C   C1998     1.0  0.91404  0.06151  0.69643  1.0000
  H   H3500     1.0  0.95998  0.19194  0.70085  1.0000
  C   C1999     1.0  0.60676  0.04567  0.96802  1.0000
  C   C2000     1.0  0.95049  0.16970  0.75984  1.0000
  H   H3501     1.0  0.77955  0.02263  0.68717  1.0000
  C   C2001     1.0  0.82703  0.20927  0.80674  1.0000
  C   C2002     1.0  0.58598  0.03064  0.96220  1.0000
  C   C2003     1.0  0.65911  0.09725  0.93575  1.0000
  H   H3502     1.0  0.65925  0.09868  0.79015  1.0000
  C   C2004     1.0  0.91856  0.10637  0.66277  1.0000
  C   C2005     1.0  0.52214  0.10087  0.91755  1.0000
  H   H3503     1.0  0.71642  0.20089  0.77253  1.0000
  H   H3504     1.0  0.60489  0.10917  0.93511  1.0000
  H   H3505     1.0  0.50596  0.04569  0.93686  1.0000
  C   C2006     1.0  0.59558  0.16242  0.92173  1.0000
  C   C2007     1.0  0.77089  0.18638  0.92500  1.0000
  H   H3506     1.0  0.54790  0.03411  0.89456  1.0000
  C   C2008     1.0  0.56241  0.11369  0.81240  1.0000
  C   C2009     1.0  0.72689  0.12578  0.86075  1.0000
  H   H3507     1.0  0.65026  0.99430  0.68246  1.0000
  S   S457      1.0  0.99438  0.11475  0.67235  1.0000
  H   H3508     1.0  0.69344  0.07438  0.77433  1.0000
  H   H3509     1.0  0.52749  0.15499  0.89858  1.0000
  H   H3510     1.0  0.70469  0.17309  0.89164  1.0000
  H   H3511     1.0  0.61863  0.99343  0.69794  1.0000
  H   H3512     1.0  0.75216  0.02704  0.65380  1.0000
  H   H3513     1.0  0.59447  0.00037  0.65507  1.0000
  H   H3514     1.0  0.86524  0.16074  0.66261  1.0000
  H   H3515     1.0  0.53279  0.05430  0.76933  1.0000
  H   H3516     1.0  0.63588  0.06692  0.97262  1.0000
  C   C2010     1.0  0.92652  0.14403  0.72472  1.0000
  H   H3517     1.0  0.51083  0.16483  0.92551  1.0000
  H   H3518     1.0  0.55183  0.17704  0.88333  1.0000
  H   H3519     1.0  0.55725  0.01545  0.75155  1.0000
  C   C2011     1.0  0.90113  0.04558  0.68200  1.0000
  H   H3520     1.0  0.80398  0.00657  0.65586  1.0000
  H   H3521     1.0  0.75120  0.15399  0.82712  1.0000
  H   H3522     1.0  0.96118  0.06223  0.71026  1.0000
  H   H3523     1.0  0.77938  0.17658  0.77335  1.0000
  H   H3524     1.0  0.94186  0.22022  0.72368  1.0000
  C   C2012     1.0  0.85014  0.15221  0.70142  1.0000
  H   H3525     1.0  0.65670  0.98389  0.70319  1.0000
  H   H3526     1.0  0.54514  0.10328  0.74978  1.0000
  C   C2013     1.0  0.64514  0.17328  0.94715  1.0000
  H   H3527     1.0  0.65983  0.05588  0.91992  1.0000
  C   C2014     1.0  0.67959  0.06127  0.73838  1.0000
  C   C2015     1.0  0.54595  0.05674  0.76146  1.0000
  C   C2016     1.0  0.83995  0.14669  0.69337  1.0000
  C   C2017     1.0  0.51833  0.08229  0.89523  1.0000
  C   C2018     1.0  0.96121  0.06353  0.69647  1.0000
  H   H3528     1.0  0.57626  0.17366  0.89660  1.0000
  H   H3529     1.0  0.91341  0.07287  0.68505  1.0000
  H   H3530     1.0  0.67555  0.15455  0.72551  1.0000
  C   C2019     1.0  0.67959  0.16558  0.89474  1.0000
  C   C2020     1.0  0.55755  0.05659  0.78682  1.0000
  C   C2021     1.0  0.77384  0.18553  0.76222  1.0000
  H   H3531     1.0  0.54150  0.03659  0.79435  1.0000
  Fe  Fe235     1.0  0.84665  0.06808  0.65661  1.0000
  H   H3532     1.0  0.58008  0.98730  0.67120  1.0000
  S   S458      1.0  0.76309  0.98762  0.65327  1.0000
  C   C2022     1.0  0.51076  0.03369  0.94630  1.0000
  C   C2023     1.0  0.59999  0.11053  0.94885  1.0000
  H   H3533     1.0  0.66300  0.13796  0.87064  1.0000
  H   H3534     1.0  0.64184  0.16572  0.86728  1.0000
  H   H3535     1.0  0.57031  0.04682  0.78456  1.0000
  C   C2024     1.0  0.76061  0.18405  0.91482  1.0000
  C   C2025     1.0  0.57835  0.15915  0.90161  1.0000
  H   H3536     1.0  0.64102  0.03169  0.95136  1.0000
  S   S459      1.0  0.74278  0.20751  0.83112  1.0000
  H   H3537     1.0  0.67702  0.12503  0.89255  1.0000
  H   H3538     1.0  0.79539  0.07539  0.67402  1.0000
  H   H3539     1.0  0.82093  0.18480  0.86679  1.0000
  S   S460      1.0  0.51623  0.10979  0.96141  1.0000
  C   C2026     1.0  0.69100  0.17517  0.89964  1.0000
  H   H3540     1.0  0.95996  0.07768  0.69004  1.0000
  H   H3541     1.0  0.53273  0.02487  0.92602  1.0000
  H   H3542     1.0  0.56173  0.12985  0.89067  1.0000
  H   H3543     1.0  0.89579  0.10055  0.65834  1.0000
  C   C2027     1.0  0.67260  0.13919  0.89265  1.0000
  H   H3544     1.0  0.75610  0.22506  0.88226  1.0000
  S   S461      1.0  0.85884  0.17326  0.75083  1.0000
  H   H3545     1.0  0.54145  0.08948  0.78198  1.0000
  C   C2028     1.0  0.65647  0.19984  0.95698  1.0000
  H   H3546     1.0  0.70268  0.15652  0.86920  1.0000
  H   H3547     1.0  0.72940  0.13793  0.85101  1.0000
  H   H3548     1.0  0.67984  0.06049  0.80444  1.0000
  H   H3549     1.0  0.59338  0.17695  0.91777  1.0000
  H   H3550     1.0  0.67712  0.04779  0.74209  1.0000
  C   C2029     1.0  0.53205  0.14775  0.91077  1.0000
  C   C2030     1.0  0.70783  0.12876  0.87143  1.0000
  H   H3551     1.0  0.89919  0.05750  0.67145  1.0000
  S   S462      1.0  0.88130  0.15010  0.71086  1.0000
  H   H3552     1.0  0.88857  0.12226  0.69336  1.0000
  C   C2031     1.0  0.62309  0.05590  0.88535  1.0000
  C   C2032     1.0  0.97162  0.18070  0.70092  1.0000
  H   H3553     1.0  0.76929  0.11458  0.95243  1.0000
  S   S463      1.0  0.62422  0.12359  0.89619  1.0000
  S   S464      1.0  0.71162  0.99949  0.65105  1.0000
  C   C2033     1.0  0.74756  0.04186  0.70190  1.0000
  C   C2034     1.0  0.76192  0.00559  0.69261  1.0000
  C   C2035     1.0  0.73065  0.03495  0.71267  1.0000
  C   C2036     1.0  0.72800  0.03397  0.73215  1.0000
  H   H3554     1.0  0.75829  0.03579  0.70933  1.0000
  H   H3555     1.0  0.74397  0.05606  0.70226  1.0000
  H   H3556     1.0  0.75760  0.00549  0.70674  1.0000
  H   H3557     1.0  0.71874  0.04394  0.70825  1.0000
  H   H3558     1.0  0.73101  0.02175  0.71122  1.0000
  H   H3559     1.0  0.73918  0.02437  0.73735  1.0000
  H   H3560     1.0  0.72703  0.04704  0.73449  1.0000
  H   H3561     1.0  0.71556  0.02950  0.73933  1.0000
  H   H3562     1.0  0.84816  0.22404  0.81695  1.0000
  H   H3563     1.0  0.52356  0.10806  0.92613  1.0000
  H   H3564     1.0  0.69149  0.17043  0.91363  1.0000
  H   H3565     1.0  0.64563  0.16381  0.95982  1.0000
  H   H3566     1.0  0.69351  0.18521  0.77115  1.0000
  C   C2037     1.0  0.79196  0.20671  0.78683  1.0000
  H   H3567     1.0  0.50434  0.02312  0.94685  1.0000
  C   C2038     1.0  0.50839  0.09940  0.89529  1.0000
  C   C2039     1.0  0.74135  0.20846  0.77976  1.0000
  C   C2040     1.0  0.77719  0.98955  0.69084  1.0000
  H   H3568     1.0  0.73267  0.15328  0.94130  1.0000
  H   H3569     1.0  0.77340  0.02160  0.66842  1.0000
  C   C2041     1.0  0.71004  0.14768  0.96107  1.0000
  H   H3570     1.0  0.98242  0.18458  0.68980  1.0000
  H   H3571     1.0  0.53748  0.06106  0.90676  1.0000
  H   H3572     1.0  0.60441  0.09650  0.97429  1.0000
  H   H3573     1.0  0.97998  0.05430  0.67416  1.0000
  Fe  Fe236     1.0  0.49812  0.98612  0.76034  1.0000
  C   C2042     1.0  0.55316  0.12762  0.82058  1.0000
  H   H3574     1.0  0.55720  0.17297  0.95812  1.0000
  H   H3575     1.0  0.62302  0.06193  0.93530  1.0000
  H   H3576     1.0  0.73555  0.15566  0.80342  1.0000
  H   H3577     1.0  0.73206  0.02993  0.68243  1.0000
  H   H3578     1.0  0.81333  0.22169  0.84631  1.0000
  H   H3579     1.0  0.71226  0.11417  0.90609  1.0000
  N   N108      1.0  0.82155  0.22192  0.81870  1.0000
  H   H3580     1.0  0.56391  0.11999  0.92357  1.0000
  C   C2043     1.0  0.58091  0.10950  0.80883  1.0000
  H   H3581     1.0  0.51803  0.98921  0.80883  1.0000
  H   H3582     1.0  0.51032  0.01869  0.78709  1.0000
  C   C2044     1.0  0.73908  0.04070  0.67536  1.0000
  H   H3583     1.0  0.53715  0.03526  0.87754  1.0000
  H   H3584     1.0  0.97918  0.09452  0.71190  1.0000
  H   H3585     1.0  0.75478  0.17106  0.76364  1.0000
  Fe  Fe237     1.0  0.61826  0.12954  0.83621  1.0000
  C   C2045     1.0  0.70174  0.17258  0.77687  1.0000
  H   H3586     1.0  0.71459  0.18763  0.79411  1.0000
  H   H3587     1.0  0.59128  0.09955  0.89760  1.0000
  H   H3588     1.0  0.68874  0.08729  0.74715  1.0000
  H   H3589     1.0  0.56347  0.03094  0.76988  1.0000
  S   S465      1.0  0.50133  0.04445  0.83745  1.0000
  H   H3590     1.0  0.67471  0.06831  0.72628  1.0000
  C   C2046     1.0  0.74891  0.15847  0.80009  1.0000
  H   H3591     1.0  0.73912  0.19076  0.96196  1.0000
  N   N109      1.0  0.74149  0.18961  0.78046  1.0000
  H   H3592     1.0  0.62835  0.06782  0.87824  1.0000
  H   H3593     1.0  0.70221  0.14256  0.91405  1.0000
  C   C2047     1.0  0.95791  0.12800  0.71688  1.0000
  H   H3594     1.0  0.97196  0.09523  0.73486  1.0000
  C   C2048     1.0  0.91009  0.09822  0.65541  1.0000
  C   C2049     1.0  0.75437  0.18459  0.76431  1.0000
  H   H3595     1.0  0.72905  0.05312  0.67686  1.0000
  C   C2050     1.0  0.74719  0.17847  0.79699  1.0000
  H   H3596     1.0  0.58787  0.09900  0.80220  1.0000
  H   H3597     1.0  0.71309  0.11488  0.93547  1.0000
  N   N110      1.0  0.92780  0.06157  0.70577  1.0000
  H   H3598     1.0  0.56655  0.07908  0.74416  1.0000
  C   C2051     1.0  0.72296  0.18858  0.78058  1.0000
  H   H3599     1.0  0.73640  0.12176  0.86945  1.0000
  C   C2052     1.0  0.92568  0.04812  0.72282  1.0000
  C   C2053     1.0  0.93696  0.04726  0.73569  1.0000
  H   H3600     1.0  0.56262  0.02951  0.81497  1.0000
  N   N111      1.0  0.61636  0.06045  0.96316  1.0000
  H   H3601     1.0  0.91082  0.11513  0.67122  1.0000
  H   H3602     1.0  0.59765  0.15816  0.93528  1.0000
  C   C2054     1.0  0.93134  0.03517  0.75333  1.0000
  C   C2055     1.0  0.54344  0.04681  0.79975  1.0000
  C   C2056     1.0  0.55139  0.98383  0.79322  1.0000
  H   H3603     1.0  0.78106  0.18890  0.73385  1.0000
  C   C2057     1.0  0.53369  0.09725  0.75715  1.0000
  H   H3604     1.0  0.95010  0.04235  0.69547  1.0000
  H   H3605     1.0  0.70072  0.16208  0.77121  1.0000
  H   H3606     1.0  0.56805  0.09861  0.90537  1.0000
  H   H3607     1.0  0.68329  0.16074  0.95887  1.0000
  H   H3608     1.0  0.91153  0.04995  0.72988  1.0000
  H   H3609     1.0  0.92913  0.03469  0.72035  1.0000
  H   H3610     1.0  0.93562  0.06029  0.73825  1.0000
  H   H3611     1.0  0.95108  0.04164  0.73051  1.0000
  C   C2058     1.0  0.56256  0.13722  0.82519  1.0000
  C   C2059     1.0  0.80811  0.01891  0.65181  1.0000
  H   H3612     1.0  0.66726  0.03249  0.92683  1.0000
  S   S466      1.0  0.82912  0.09450  0.64893  1.0000
  H   H3613     1.0  0.72585  0.17681  0.75854  1.0000
  H   H3614     1.0  0.72882  0.16077  0.77817  1.0000
  H   H3615     1.0  0.58259  0.09109  0.92040  1.0000
  C   C2060     1.0  0.90580  0.08729  0.71869  1.0000
  C   C2061     1.0  0.90511  0.10439  0.72343  1.0000
  H   H3616     1.0  0.90367  0.03391  0.67642  1.0000
  H   H3617     1.0  0.93845  0.21642  0.75211  1.0000
  H   H3618     1.0  0.60222  0.21688  0.95318  1.0000
  C   C2062     1.0  0.54893  0.03768  0.81711  1.0000
  H   H3619     1.0  0.53055  0.05609  0.80260  1.0000
  H   H3620     1.0  0.53978  0.02901  0.82517  1.0000
  S   S467      1.0  0.55804  0.09406  0.96308  1.0000
  C   C2063     1.0  0.82429  0.03834  0.65572  1.0000
  C   C2064     1.0  0.59028  0.11859  0.81405  1.0000
  H   H3621     1.0  0.58398  0.17669  0.96459  1.0000
  H   H3622     1.0  0.58868  0.09794  0.73737  1.0000
  C   C2065     1.0  0.76800  0.02270  0.68224  1.0000
  C   C2066     1.0  0.57955  0.10106  0.90856  1.0000
  C   C2067     1.0  0.54846  0.02828  0.75329  1.0000
  H   H3623     1.0  0.69641  0.16926  0.79118  1.0000
  C   C2068     1.0  0.64656  0.11282  0.93743  1.0000
  C   C2069     1.0  0.88864  0.23240  0.77936  1.0000
  H   H3624     1.0  0.57982  0.06065  0.75536  1.0000
  H   H3625     1.0  0.56987  0.04136  0.74734  1.0000
  H   H3626     1.0  0.78965  0.04652  0.67914  1.0000
  H   H3627     1.0  0.69407  0.06023  0.73576  1.0000
  C   C2070     1.0  0.57114  0.13369  0.89583  1.0000
  C   C2071     1.0  0.53828  0.08296  0.77333  1.0000
  H   H3628     1.0  0.79947  0.18075  0.74450  1.0000
  S   S468      1.0  0.69356  0.20029  0.84378  1.0000
  S   S469      1.0  0.72980  0.17963  0.90994  1.0000
  H   H3629     1.0  0.77261  0.21657  0.89525  1.0000
  H   H3630     1.0  0.53885  0.13105  0.82326  1.0000
  H   H3631     1.0  0.52577  0.07873  0.78072  1.0000
  C   C2072     1.0  0.72563  0.21801  0.79229  1.0000
  H   H3632     1.0  0.54803  0.04758  0.82448  1.0000
  C   C2073     1.0  0.93020  0.16334  0.68607  1.0000
  C   C2074     1.0  0.50492  0.03020  0.79256  1.0000
  H   H3633     1.0  0.70484  0.13655  0.97035  1.0000
  C   C2075     1.0  0.96704  0.16439  0.69909  1.0000
  Fe  Fe238     1.0  0.50214  0.02353  0.75141  1.0000
  C   C2076     1.0  0.57735  0.08430  0.76345  1.0000
  H   H3634     1.0  0.55999  0.06528  0.79388  1.0000
  C   C2077     1.0  0.77785  0.05751  0.67999  1.0000
  H   H3635     1.0  0.53672  0.02578  0.76379  1.0000
  S   S470      1.0  0.63219  0.14256  0.84756  1.0000
  C   C2078     1.0  0.67388  0.18237  0.83575  1.0000
  C   C2079     1.0  0.76328  0.05456  0.67267  1.0000
  H   H3636     1.0  0.63218  0.11329  0.78693  1.0000
  H   H3637     1.0  0.53593  0.13353  0.91084  1.0000
  H   H3638     1.0  0.75101  0.00400  0.68781  1.0000
  N   N112      1.0  0.55279  0.06718  0.76972  1.0000
  H   H3639     1.0  0.77195  0.14881  0.81174  1.0000
  H   H3640     1.0  0.88878  0.04578  0.69237  1.0000
  C   C2080     1.0  0.68544  0.15427  0.82730  1.0000
  N   N113      1.0  0.58289  0.06669  0.86307  1.0000
  C   C2081     1.0  0.58371  0.06964  0.84380  1.0000
  C   C2082     1.0  0.57375  0.08350  0.86948  1.0000
  C   C2083     1.0  0.60175  0.06192  0.86543  1.0000
  C   C2084     1.0  0.57406  0.05178  0.87382  1.0000
  C   C2085     1.0  0.55664  0.05133  0.86959  1.0000
  C   C2086     1.0  0.59336  0.05361  0.83537  1.0000
  C   C2087     1.0  0.60373  0.05890  0.88451  1.0000
  H   H3641     1.0  0.53888  0.12017  0.86357  1.0000
  H   H3642     1.0  0.63843  0.13112  0.76965  1.0000
  C   C2088     1.0  0.53011  0.07444  0.90645  1.0000
  C   C2089     1.0  0.58865  0.05607  0.81785  1.0000
  H   H3643     1.0  0.59075  0.07669  0.97157  1.0000
  H   H3644     1.0  0.59049  0.08059  0.83637  1.0000
  H   H3645     1.0  0.57020  0.07408  0.84107  1.0000
  H   H3646     1.0  0.69930  0.06752  0.80392  1.0000
  H   H3647     1.0  0.58346  0.09181  0.86714  1.0000
  H   H3648     1.0  0.60897  0.07228  0.85704  1.0000
  H   H3649     1.0  0.60927  0.04967  0.86091  1.0000
  H   H3650     1.0  0.58336  0.03890  0.87272  1.0000
  H   H3651     1.0  0.57097  0.05183  0.88798  1.0000
  H   H3652     1.0  0.55830  0.05132  0.85567  1.0000
  H   H3653     1.0  0.54619  0.06270  0.87285  1.0000
  H   H3654     1.0  0.60792  0.05193  0.83304  1.0000
  H   H3655     1.0  0.58986  0.04124  0.84377  1.0000
  H   H3656     1.0  0.59877  0.04714  0.89279  1.0000
  H   H3657     1.0  0.59625  0.07031  0.89036  1.0000
  H   H3658     1.0  0.56344  0.10078  0.84702  1.0000
  C   C2090     1.0  0.66947  0.12956  0.74071  1.0000
  H   H3659     1.0  0.65938  0.07915  0.78477  1.0000
  H   H3660     1.0  0.79642  0.20210  0.84076  1.0000
  C   C2091     1.0  0.61445  0.12493  0.76944  1.0000
  N   N114      1.0  0.94424  0.14448  0.71223  1.0000
  C   C2092     1.0  0.86494  0.12366  0.68514  1.0000
  C   C2093     1.0  0.54999  0.03485  0.88038  1.0000
  H   H3661     1.0  0.57430  0.05692  0.81974  1.0000
  H   H3662     1.0  0.59186  0.06829  0.80879  1.0000
  H   H3663     1.0  0.59624  0.04482  0.81173  1.0000
  H   H3664     1.0  0.71306  0.22085  0.78792  1.0000
  H   H3665     1.0  0.98174  0.03956  0.69511  1.0000
  H   H3666     1.0  0.68910  0.19866  0.96367  1.0000
  S   S471      1.0  0.83658  0.04298  0.66806  1.0000
  S   S472      1.0  0.94732  0.11310  0.66905  1.0000
  H   H3667     1.0  0.77482  0.19909  0.76135  1.0000
  S   S473      1.0  0.50567  0.09166  0.81190  1.0000
  H   H3668     1.0  0.58535  0.05800  0.95343  1.0000
  C   C2094     1.0  0.51822  0.11195  0.76270  1.0000
  H   H3669     1.0  0.79960  0.19990  0.87073  1.0000
  S   S474      1.0  0.89106  0.18920  0.72103  1.0000
  H   H3670     1.0  0.51529  0.12219  0.75099  1.0000
  H   H3671     1.0  0.96136  0.09021  0.64441  1.0000
  H   H3672     1.0  0.69889  0.13118  0.86244  1.0000
  C   C2095     1.0  0.63296  0.19129  0.94991  1.0000
  C   C2096     1.0  0.81883  0.02234  0.66089  1.0000
  C   C2097     1.0  0.67239  0.11616  0.75796  1.0000
  H   H3673     1.0  0.87067  0.11258  0.67901  1.0000
  C   C2098     1.0  0.94712  0.09234  0.64772  1.0000
  C   C2099     1.0  0.55835  0.03902  0.75823  1.0000
  C   C2100     1.0  0.95266  0.11044  0.71901  1.0000
  C   C2101     1.0  0.69633  0.15728  0.95004  1.0000
  H   H3674     1.0  0.51994  0.14413  0.93863  1.0000
  H   H3675     1.0  0.69227  0.14072  0.73716  1.0000
  C   C2102     1.0  0.80776  0.18976  0.86330  1.0000
  H   H3676     1.0  0.74797  0.22873  0.93445  1.0000
  Fe  Fe239     1.0  0.99265  0.17722  0.74901  1.0000
  H   H3677     1.0  0.92683  0.08923  0.69563  1.0000
  Fe  Fe240     1.0  0.50149  0.07221  0.83748  1.0000
  H   H3678     1.0  0.58697  0.00385  0.67703  1.0000
  S   S475      1.0  0.64348  0.11636  0.82028  1.0000
  H   H3679     1.0  0.59911  0.09769  0.75435  1.0000
  C   C2103     1.0  0.70239  0.15473  0.82829  1.0000
  C   C2104     1.0  0.50563  0.02937  0.80982  1.0000
  H   H3680     1.0  0.63135  0.04464  0.87950  1.0000
  H   H3681     1.0  0.83698  0.17374  0.80454  1.0000
  C   C2105     1.0  0.67118  0.16815  0.83099  1.0000
  C   C2106     1.0  0.55841  0.09596  0.86111  1.0000
  H   H3682     1.0  0.54342  0.06439  0.74846  1.0000
  H   H3683     1.0  0.50613  0.10674  0.76956  1.0000
  C   C2107     1.0  0.96769  0.09473  0.72323  1.0000
  H   H3684     1.0  0.64339  0.11078  0.74805  1.0000
  C   C2108     1.0  0.68549  0.07215  0.80201  1.0000
  H   H3685     1.0  0.67398  0.06234  0.76530  1.0000
  C   C2109     1.0  0.59569  0.04573  0.95520  1.0000
  C   C2110     1.0  0.75855  0.12343  0.94607  1.0000
  C   C2111     1.0  0.78403  0.07432  0.66947  1.0000
  H   H3686     1.0  0.54410  0.03529  0.74091  1.0000
  C   C2112     1.0  0.92347  0.18689  0.75037  1.0000
  H   H3687     1.0  0.77005  0.05249  0.65929  1.0000
  C   C2113     1.0  0.63321  0.11912  0.77278  1.0000
  C   C2114     1.0  0.74261  0.18419  0.92166  1.0000
  H   H3688     1.0  0.57818  0.03094  0.95281  1.0000
  H   H3689     1.0  0.70612  0.11637  0.88101  1.0000
  H   H3690     1.0  0.66932  0.19752  0.90479  1.0000
  C   C2115     1.0  0.84728  0.18155  0.79808  1.0000
  H   H3691     1.0  0.59822  0.07992  0.94849  1.0000
  S   S476      1.0  0.51200  0.02408  0.72276  1.0000
  H   H3692     1.0  0.81014  0.15669  0.80139  1.0000
  H   H3693     1.0  0.94672  0.15341  0.78579  1.0000
  H   H3694     1.0  0.86047  0.17255  0.79832  1.0000
  H   H3695     1.0  0.65519  0.13485  0.74078  1.0000
  N   N115      1.0  0.75436  0.03962  0.68321  1.0000
  H   H3696     1.0  0.91302  0.10181  0.73337  1.0000
  C   C2116     1.0  0.69929  0.11717  0.91520  1.0000
  H   H3697     1.0  0.68305  0.20078  0.88290  1.0000
  H   H3698     1.0  0.84638  0.18738  0.78425  1.0000
  H   H3699     1.0  0.67992  0.13981  0.92286  1.0000
  H   H3700     1.0  0.56093  0.19122  0.85200  1.0000
  H   H3701     1.0  0.74978  0.19320  0.75243  1.0000
  H   H3702     1.0  0.51618  0.04577  0.96416  1.0000
  H   H3703     1.0  0.90809  0.13861  0.76959  1.0000
  S   S477      1.0  0.68266  0.13663  0.82061  1.0000
  C   C2117     1.0  0.93098  0.16410  0.66698  1.0000
  H   H3704     1.0  0.78679  0.22066  0.78280  1.0000
  H   H3705     1.0  0.89748  0.17759  0.64977  1.0000
  H   H3706     1.0  0.64680  0.04129  0.91941  1.0000
  H   H3707     1.0  0.58213  0.15331  0.86194  1.0000
  H   H3708     1.0  0.59167  0.15351  0.89420  1.0000
  Fe  Fe241     1.0  0.74493  0.22021  0.85124  1.0000
  H   H3709     1.0  0.72657  0.13430  0.94057  1.0000
  C   C2118     1.0  0.92021  0.08682  0.64450  1.0000
  C   C2119     1.0  0.74362  0.03995  0.65579  1.0000
  C   C2120     1.0  0.75770  0.14837  0.81538  1.0000
  H   H3710     1.0  0.72920  0.11523  0.85367  1.0000
  C   C2121     1.0  0.55929  0.16367  0.88138  1.0000
  H   H3711     1.0  0.52974  0.09173  0.74823  1.0000
  C   C2122     1.0  0.69177  0.13724  0.91214  1.0000
  H   H3712     1.0  0.84435  0.16321  0.70769  1.0000
  H   H3713     1.0  0.93480  0.12742  0.74887  1.0000
  C   C2123     1.0  0.84732  0.13242  0.68518  1.0000
  H   H3714     1.0  0.56759  0.09640  0.76622  1.0000
  C   C2124     1.0  0.59307  0.08984  0.74945  1.0000
  H   H3715     1.0  0.51241  0.02437  0.97316  1.0000
  H   H3716     1.0  0.75696  0.15317  0.78855  1.0000
  C   C2125     1.0  0.87506  0.12913  0.69326  1.0000
  H   H3717     1.0  0.63765  0.17440  0.92306  1.0000
  S   S478      1.0  0.66967  0.08535  0.95294  1.0000
  C   C2126     1.0  0.72110  0.17384  0.77298  1.0000
  H   H3718     1.0  0.69025  0.11297  0.94356  1.0000
  S   S479      1.0  0.59276  0.14462  0.82793  1.0000
  H   H3719     1.0  0.58702  0.12095  0.91535  1.0000
  H   H3720     1.0  0.71338  0.14394  0.82552  1.0000
  H   H3721     1.0  0.58372  0.13259  0.88572  1.0000
  C   C2127     1.0  0.70505  0.16880  0.83333  1.0000
  H   H3722     1.0  0.71807  0.16890  0.83443  1.0000
  H   H3723     1.0  0.76672  0.18176  0.90185  1.0000
  H   H3724     1.0  0.60457  0.11519  0.81135  1.0000
  H   H3725     1.0  0.73767  0.18257  0.80864  1.0000
  C   C2128     1.0  0.57492  0.16609  0.86532  1.0000
  H   H3726     1.0  0.55934  0.17219  0.84558  1.0000
  H   H3727     1.0  0.75994  0.18071  0.79772  1.0000
  H   H3728     1.0  0.58456  0.17208  0.86772  1.0000
  N   N116      1.0  0.56422  0.15233  0.89822  1.0000
  C   C2129     1.0  0.70352  0.14466  0.88008  1.0000
  H   H3729     1.0  0.71534  0.14443  0.88474  1.0000
  H   H3730     1.0  0.78484  0.18614  0.91975  1.0000
  H   H3731     1.0  0.55029  0.15818  0.87730  1.0000
  H   H3732     1.0  0.93444  0.17505  0.68639  1.0000
  N   N117      1.0  0.68713  0.14635  0.89464  1.0000
  C   C2130     1.0  0.93708  0.10332  0.65907  1.0000
  H   H3733     1.0  0.60824  0.11350  0.77270  1.0000
  C   C2131     1.0  0.59124  0.99372  0.66907  1.0000
  H   H3734     1.0  0.94533  0.06245  0.68012  1.0000
  C   C2132     1.0  0.69078  0.18263  0.83711  1.0000
  H   H3735     1.0  0.66470  0.18696  0.96213  1.0000
  C   C2133     1.0  0.64539  0.04421  0.94553  1.0000
  N   N118      1.0  0.74251  0.12982  0.95941  1.0000
  S   S480      1.0  0.73566  0.17338  0.86280  1.0000
  H   H3736     1.0  0.67115  0.09610  0.73610  1.0000
  C   C2134     1.0  0.71194  0.00071  0.70029  1.0000
  C   C2135     1.0  0.76314  0.18903  0.94196  1.0000
  H   H3737     1.0  0.64743  0.15267  0.93402  1.0000
  H   H3738     1.0  0.93171  0.15051  0.74701  1.0000
  H   H3739     1.0  0.51186  0.01731  0.81757  1.0000
  H   H3740     1.0  0.90193  0.13109  0.75376  1.0000
  C   C2136     1.0  0.79199  0.17966  0.80912  1.0000
  C   C2137     1.0  0.60543  0.21908  0.96466  1.0000
  H   H3741     1.0  0.91023  0.11393  0.71165  1.0000
  H   H3742     1.0  0.75774  0.14570  0.92324  1.0000
  H   H3743     1.0  0.78125  0.12098  0.91359  1.0000
  C   C2138     1.0  0.90776  0.14114  0.75558  1.0000
  C   C2139     1.0  0.92654  0.14049  0.74438  1.0000
  C   C2140     1.0  0.80515  0.17068  0.79741  1.0000
  H   H3744     1.0  0.91617  0.16431  0.69324  1.0000
  C   C2141     1.0  0.86778  0.14344  0.70135  1.0000
  H   H3745     1.0  0.95417  0.15753  0.72596  1.0000
  C   C2142     1.0  0.54774  0.15413  0.91260  1.0000
  C   C2143     1.0  0.51613  0.15059  0.92591  1.0000
  H   H3746     1.0  0.68756  0.21261  0.94232  1.0000
  H   H3747     1.0  0.89918  0.15434  0.75209  1.0000
  H   H3748     1.0  0.93964  0.17195  0.71286  1.0000
  H   H3749     1.0  0.60433  0.04419  0.94227  1.0000
  C   C2144     1.0  0.66618  0.09025  0.78059  1.0000
  H   H3750     1.0  0.80103  0.17861  0.86715  1.0000
  H   H3751     1.0  0.95509  0.22971  0.77351  1.0000
  C   C2145     1.0  0.51043  0.10875  0.90632  1.0000
  S   S481      1.0  0.83427  0.12606  0.67493  1.0000
  Fe  Fe242     1.0  0.73709  0.18915  0.88077  1.0000
  S   S482      1.0  0.97317  0.16006  0.75475  1.0000
  H   H3752     1.0  0.57960  0.17993  0.83814  1.0000
  H   H3753     1.0  0.66149  0.13964  0.90435  1.0000
  Fe  Fe243     1.0  0.87751  0.19002  0.74883  1.0000
  C   C2146     1.0  0.95053  0.15994  0.71319  1.0000
  H   H3754     1.0  0.91706  0.15675  0.72171  1.0000
  C   C2147     1.0  0.76691  0.13786  0.93192  1.0000
  H   H3755     1.0  0.94989  0.18706  0.73461  1.0000
  C   C2148     1.0  0.80509  0.19773  0.77514  1.0000
  S   S483      1.0  0.52148  0.07873  0.84769  1.0000
  C   C2149     1.0  0.94903  0.20409  0.78071  1.0000
  Fe  Fe244     1.0  0.87026  0.21330  0.71441  1.0000
  S   S484      1.0  0.77604  0.19207  0.95457  1.0000
  C   C2150     1.0  0.94208  0.18197  0.74714  1.0000
  C   C2151     1.0  0.73490  0.18680  0.93863  1.0000
  C   C2152     1.0  0.78394  0.12981  0.92027  1.0000
  H   H3756     1.0  0.85615  0.20271  0.80132  1.0000
  C   C2153     1.0  0.74513  0.18922  0.94874  1.0000
  H   H3757     1.0  0.78941  0.14045  0.91014  1.0000
  S   S485      1.0  0.54543  0.07333  0.93268  1.0000
  H   H3758     1.0  0.72103  0.18677  0.94408  1.0000
  C   C2154     1.0  0.72845  0.14125  0.94964  1.0000
  H   H3759     1.0  0.77638  0.20503  0.81298  1.0000
  S   S486      1.0  0.50286  0.12040  0.83392  1.0000
  H   H3760     1.0  0.92035  0.13422  0.72288  1.0000
  H   H3761     1.0  0.97868  0.15337  0.70053  1.0000
  C   C2155     1.0  0.94031  0.16306  0.77602  1.0000
  H   H3762     1.0  0.79404  0.12231  0.92808  1.0000
  H   H3763     1.0  0.60613  0.13427  0.77773  1.0000
  C   C2156     1.0  0.66504  0.14824  0.87597  1.0000
  H   H3764     1.0  0.55964  0.02289  0.87698  1.0000
  H   H3765     1.0  0.87403  0.19848  0.66479  1.0000
  H   H3766     1.0  0.92587  0.15315  0.66597  1.0000
  C   C2157     1.0  0.66987  0.07078  0.75321  1.0000
  C   C2158     1.0  0.87247  0.16976  0.65184  1.0000
  H   H3767     1.0  0.67723  0.17308  0.88160  1.0000
  S   S487      1.0  0.78330  0.16800  0.83003  1.0000
  H   H3768     1.0  0.61822  0.98731  0.67141  1.0000
  H   H3769     1.0  0.75504  0.11532  0.93912  1.0000
  H   H3770     1.0  0.69507  0.14864  0.94234  1.0000
  H   H3771     1.0  0.82182  0.17267  0.77147  1.0000
  S   S488      1.0  0.85094  0.19867  0.71321  1.0000
  S   S489      1.0  0.76237  0.19656  0.86448  1.0000
  H   H3772     1.0  0.75379  0.20924  0.78269  1.0000
  C   C2159     1.0  0.67414  0.08919  0.74913  1.0000
  H   H3773     1.0  0.54626  0.10835  0.88339  1.0000
  Fe  Fe245     1.0  0.84072  0.19882  0.74174  1.0000
  H   H3774     1.0  0.84617  0.18946  0.82128  1.0000
  H   H3775     1.0  0.74940  0.15333  0.96051  1.0000
  Fe  Fe246     1.0  0.75920  0.18363  0.84510  1.0000
  C   C2160     1.0  0.92182  0.16868  0.77957  1.0000
  H   H3776     1.0  0.54136  0.99530  0.78827  1.0000
  H   H3777     1.0  0.77423  0.12736  0.97034  1.0000
  Fe  Fe247     1.0  0.71947  0.19866  0.85040  1.0000
  H   H3778     1.0  0.94483  0.16318  0.65921  1.0000
  C   C2161     1.0  0.80982  0.19732  0.84365  1.0000
  C   C2162     1.0  0.64714  0.16118  0.87934  1.0000
  H   H3779     1.0  0.66647  0.16732  0.90398  1.0000
  C   C2163     1.0  0.64505  0.10559  0.76177  1.0000
  H   H3780     1.0  0.64837  0.17290  0.88286  1.0000
  H   H3781     1.0  0.89593  0.09021  0.71053  1.0000
  H   H3782     1.0  0.97626  0.17792  0.71321  1.0000
  H   H3783     1.0  0.92886  0.04363  0.67872  1.0000
  H   H3784     1.0  0.91693  0.19577  0.74034  1.0000
  C   C2164     1.0  0.81184  0.17973  0.78050  1.0000
  H   H3785     1.0  0.90057  0.06331  0.70510  1.0000
  H   H3786     1.0  0.61467  0.13164  0.75555  1.0000
  H   H3787     1.0  0.63743  0.15476  0.88993  1.0000
  C   C2165     1.0  0.55058  0.11217  0.86898  1.0000
  H   H3788     1.0  0.94958  0.10970  0.70687  1.0000
  H   H3789     1.0  0.96169  0.12764  0.72913  1.0000
  H   H3790     1.0  0.93575  0.13538  0.69410  1.0000
  C   C2166     1.0  0.49880  0.04441  0.81681  1.0000
  C   C2167     1.0  0.91336  0.18027  0.76664  1.0000
  C   C2168     1.0  0.87864  0.18495  0.67214  1.0000
  H   H3791     1.0  0.91404  0.16353  0.79216  1.0000
  C   C2169     1.0  0.68309  0.19490  0.89692  1.0000
  H   H3792     1.0  0.82279  0.01265  0.67203  1.0000
  H   H3793     1.0  0.65553  0.07185  0.75483  1.0000
  H   H3794     1.0  0.95513  0.14373  0.68491  1.0000
  S   S490      1.0  0.89015  0.18616  0.77124  1.0000
  H   H3795     1.0  0.56757  0.16432  0.92799  1.0000
  H   H3796     1.0  0.66752  0.12323  0.76886  1.0000
  Fe  Fe248     1.0  0.52405  0.09944  0.82293  1.0000
  H   H3797     1.0  0.75038  0.05046  0.64728  1.0000
  H   H3798     1.0  0.55061  0.14681  0.92553  1.0000
  Fe  Fe249     1.0  0.87075  0.17442  0.72223  1.0000
  H   H3799     1.0  0.69197  0.09386  0.78155  1.0000
  C   C2170     1.0  0.53179  0.08366  0.91779  1.0000
  H   H3800     1.0  0.95274  0.20176  0.79340  1.0000
  S   S491      1.0  0.52025  0.99789  0.75996  1.0000
  C   C2171     1.0  0.67776  0.14516  0.73793  1.0000
  S   S492      1.0  0.71969  0.21407  0.86926  1.0000
  C   C2172     1.0  0.68539  0.08297  0.78343  1.0000
  H   H3801     1.0  0.97037  0.12800  0.70665  1.0000
  H   H3802     1.0  0.66281  0.19309  0.83859  1.0000
  N   N119      1.0  0.66444  0.10031  0.76237  1.0000
  H   H3803     1.0  0.54758  0.08945  0.86271  1.0000
  S   S493      1.0  0.86227  0.07806  0.66933  1.0000
  H   H3804     1.0  0.67450  0.15505  0.86558  1.0000
  H   H3805     1.0  0.67769  0.08021  0.81172  1.0000
  C   C2173     1.0  0.78572  0.19777  0.80386  1.0000
  H   H3806     1.0  0.67568  0.12335  0.72933  1.0000
  H   H3807     1.0  0.69121  0.20131  0.90111  1.0000
  H   H3808     1.0  0.63904  0.09391  0.76649  1.0000
  H   H3809     1.0  0.68700  0.11201  0.75672  1.0000
  Fe  Fe250     1.0  0.65922  0.09854  0.97575  1.0000
  H   H3810     1.0  0.81653  0.20196  0.80907  1.0000
  H   H3811     1.0  0.72539  0.11126  0.96663  1.0000
  C   C2174     1.0  0.62970  0.06034  0.94603  1.0000
  H   H3812     1.0  0.72150  0.99705  0.70841  1.0000
  C   C2175     1.0  0.84499  0.19594  0.80767  1.0000
  H   H3813     1.0  0.88871  0.18519  0.67893  1.0000
  C   C2176     1.0  0.80361  0.23341  0.81660  1.0000
  H   H3814     1.0  0.60353  0.12227  0.95016  1.0000
  H   H3815     1.0  0.79385  0.22520  0.81902  1.0000
  H   H3816     1.0  0.65487  0.04513  0.95268  1.0000
  H   H3817     1.0  0.75345  0.09080  0.96454  1.0000
  C   C2177     1.0  0.65539  0.04349  0.92676  1.0000
  H   H3818     1.0  0.53620  0.01529  0.94788  1.0000
  H   H3819     1.0  0.63571  0.07199  0.94212  1.0000
  H   H3820     1.0  0.69999  0.16947  0.94122  1.0000
  H   H3821     1.0  0.72357  0.21000  0.80578  1.0000
  H   H3822     1.0  0.93210  0.22937  0.78151  1.0000
  C   C2178     1.0  0.66244  0.21417  0.96171  1.0000
  H   H3823     1.0  0.74112  0.21663  0.76632  1.0000
  C   C2179     1.0  0.60274  0.07752  0.96081  1.0000
  H   H3824     1.0  0.90170  0.07794  0.73102  1.0000
  H   H3825     1.0  0.93270  0.02170  0.75172  1.0000
  H   H3826     1.0  0.96026  0.19736  0.77176  1.0000
  C   C2180     1.0  0.58064  0.16395  0.96875  1.0000
  H   H3827     1.0  0.89118  0.11039  0.72898  1.0000
  H   H3828     1.0  0.61914  0.18921  0.95426  1.0000
  H   H3829     1.0  0.96494  0.16702  0.68567  1.0000
  Fe  Fe251     1.0  0.84642  0.10481  0.65936  1.0000
  H   H3830     1.0  0.76909  0.22783  0.92060  1.0000
  H   H3831     1.0  0.82833  0.21644  0.79285  1.0000
  H   H3832     1.0  0.65885  0.17469  0.94040  1.0000
  C   C2181     1.0  0.64567  0.99217  0.69687  1.0000
  C   C2182     1.0  0.72677  0.04244  0.64943  1.0000
  H   H3833     1.0  0.58538  0.11261  0.95229  1.0000
  C   C2183     1.0  0.74650  0.14084  0.96931  1.0000
  H   H3834     1.0  0.91737  0.04035  0.75956  1.0000
  H   H3835     1.0  0.91144  0.21913  0.76395  1.0000
  H   H3836     1.0  0.50445  0.07193  0.94863  1.0000
  C   C2184     1.0  0.74785  0.23261  0.90715  1.0000
  C   C2185     1.0  0.73516  0.11453  0.97188  1.0000
  H   H3837     1.0  0.63368  0.20044  0.93682  1.0000
  H   H3838     1.0  0.86727  0.18067  0.68216  1.0000
  C   C2186     1.0  0.91682  0.04481  0.68941  1.0000
  H   H3839     1.0  0.57664  0.03201  0.97490  1.0000
  H   H3840     1.0  0.92690  0.22393  0.69979  1.0000
  C   C2187     1.0  0.76224  0.22817  0.89127  1.0000
  H   H3841     1.0  0.64188  0.00522  0.70028  1.0000
  H   H3842     1.0  0.78848  0.07418  0.65535  1.0000
  H   H3843     1.0  0.71795  0.05546  0.65065  1.0000
  H   H3844     1.0  0.78080  0.22989  0.94185  1.0000
  H   H3845     1.0  0.89452  0.13886  0.64838  1.0000
  H   H3846     1.0  0.57244  0.99770  0.77896  1.0000
  S   S494      1.0  0.66069  0.12641  0.97269  1.0000
  H   H3847     1.0  0.50549  0.14488  0.92500  1.0000
  C   C2188     1.0  0.83542  0.23261  0.81399  1.0000
  H   H3848     1.0  0.73092  0.99192  0.67835  1.0000
  C   C2189     1.0  0.90273  0.23236  0.76234  1.0000
  S   S495      1.0  0.99400  0.20066  0.72679  1.0000
  H   H3849     1.0  0.62789  0.22404  0.97078  1.0000
  H   H3850     1.0  0.91804  0.22593  0.73034  1.0000
  Fe  Fe252     1.0  0.49876  0.09919  0.85798  1.0000
  C   C2190     1.0  0.92988  0.23091  0.72243  1.0000
  H   H3851     1.0  0.95654  0.22640  0.74535  1.0000
  H   H3852     1.0  0.59554  0.01778  0.96399  1.0000
  H   H3853     1.0  0.62975  0.22592  0.94826  1.0000
  C   C2191     1.0  0.94446  0.22379  0.77292  1.0000
  C   C2192     1.0  0.94284  0.22750  0.75364  1.0000
  N   N120      1.0  0.63698  0.19928  0.96262  1.0000
  S   S496      1.0  0.73390  0.22172  0.97441  1.0000
  H   H3854     1.0  0.86248  0.18235  0.64979  1.0000
  C   C2193     1.0  0.56548  0.16184  0.96506  1.0000
  H   H3855     1.0  0.84009  0.16484  0.65083  1.0000
  H   H3856     1.0  0.88079  0.22250  0.78119  1.0000
  H   H3857     1.0  0.61598  0.03265  0.96982  1.0000
  H   H3858     1.0  0.50270  0.12198  0.90640  1.0000
  H   H3859     1.0  0.98989  0.05941  0.68887  1.0000
  C   C2194     1.0  0.56111  0.14538  0.97002  1.0000
  H   H3860     1.0  0.86521  0.14114  0.64556  1.0000
  C   C2195     1.0  0.49775  0.04618  0.78227  1.0000
  C   C2196     1.0  0.62567  0.21762  0.96146  1.0000
  H   H3861     1.0  0.68664  0.22193  0.96024  1.0000
  C   C2197     1.0  0.50734  0.03715  0.96475  1.0000
  H   H3862     1.0  0.78303  0.98914  0.67692  1.0000
  C   C2198     1.0  0.68264  0.21164  0.95662  1.0000
  H   H3863     1.0  0.89506  0.22894  0.79063  1.0000
  H   H3864     1.0  0.82044  0.23194  0.69777  1.0000
  H   H3865     1.0  0.55264  0.98504  0.80598  1.0000
  C   C2199     1.0  0.56913  0.98495  0.78031  1.0000
  H   H3866     1.0  0.65834  0.21399  0.97579  1.0000
  C   C2200     1.0  0.62965  0.98368  0.70318  1.0000
  H   H3867     1.0  0.56841  0.98393  0.76728  1.0000
  Fe  Fe253     1.0  0.88025  0.08252  0.64270  1.0000
  C   C2201     1.0  0.98030  0.45922  0.09261  1.0000
  Fe  Fe254     1.0  0.75933  0.33441  0.01130  1.0000
  S   S497      1.0  0.77948  0.33991  0.98634  1.0000
  S   S498      1.0  0.75646  0.30707  0.02616  1.0000
  Fe  Fe255     1.0  0.74717  0.37309  0.01342  1.0000
  S   S499      1.0  0.76626  0.38143  0.98878  1.0000
  S   S500      1.0  0.72900  0.39304  0.02850  1.0000
  H   H3868     1.0  0.70664  0.45287  0.98156  1.0000
  C   C2202     1.0  0.87622  0.44741  0.13378  1.0000
  Fe  Fe256     1.0  0.78569  0.35786  0.99901  1.0000
  S   S501      1.0  0.81317  0.35935  0.99867  1.0000
  S   S502      1.0  0.73723  0.35616  0.00248  1.0000
  S   S503      1.0  0.76720  0.35065  0.02464  1.0000
  H   H3869     1.0  0.76057  0.41037  0.11087  1.0000
  H   H3870     1.0  0.85613  0.41884  0.98917  1.0000
  C   C2203     1.0  0.87024  0.24862  0.14111  1.0000
  C   C2204     1.0  0.73126  0.47464  0.09665  1.0000
  H   H3871     1.0  0.79299  0.39155  0.12891  1.0000
  C   C2205     1.0  0.82282  0.42354  0.02567  1.0000
  C   C2206     1.0  0.77257  0.41604  0.10615  1.0000
  S   S504      1.0  0.80621  0.46683  0.13659  1.0000
  H   H3872     1.0  0.89622  0.30071  0.07270  1.0000
  C   C2207     1.0  0.84183  0.42147  0.99572  1.0000
  H   H3873     1.0  0.75936  0.24789  0.07734  1.0000
  C   C2208     1.0  0.88519  0.30816  0.08126  1.0000
  H   H3874     1.0  0.70282  0.42478  0.03142  1.0000
  S   S505      1.0  0.98046  0.39271  0.09148  1.0000
  C   C2209     1.0  0.78960  0.42581  0.03046  1.0000
  C   C2210     1.0  0.92157  0.40098  0.14528  1.0000
  Fe  Fe257     1.0  0.83322  0.37324  0.11537  1.0000
  S   S506      1.0  0.84084  0.38576  0.08704  1.0000
  S   S507      1.0  0.82884  0.38551  0.13806  1.0000
  Fe  Fe258     1.0  0.83435  0.33779  0.10839  1.0000
  S   S508      1.0  0.84234  0.34722  0.07938  1.0000
  S   S509      1.0  0.82988  0.31076  0.12281  1.0000
  Fe  Fe259     1.0  0.86034  0.36012  0.08558  1.0000
  S   S510      1.0  0.88823  0.35931  0.07042  1.0000
  Fe  Fe260     1.0  0.82211  0.37178  0.08359  1.0000
  S   S511      1.0  0.80153  0.38508  0.06775  1.0000
  S   S512      1.0  0.85426  0.34854  0.11423  1.0000
  S   S513      1.0  0.81257  0.36147  0.11220  1.0000
  H   H3875     1.0  0.78884  0.42383  0.11929  1.0000
  N   N121      1.0  0.88632  0.27431  0.12608  1.0000
  H   H3876     1.0  0.67793  0.44649  0.97782  1.0000
  Fe  Fe261     1.0  0.95698  0.39423  0.08090  1.0000
  H   H3877     1.0  0.94218  0.25867  0.04771  1.0000
  S   S514      1.0  0.92845  0.40038  0.09526  1.0000
  H   H3878     1.0  0.92711  0.25951  0.15358  1.0000
  H   H3879     1.0  0.88990  0.31824  0.08446  1.0000
  H   H3880     1.0  0.88570  0.25377  0.11449  1.0000
  S   S515      1.0  0.96648  0.41062  0.05466  1.0000
  S   S516      1.0  0.96815  0.36878  0.07233  1.0000
  H   H3881     1.0  0.86116  0.30415  0.16477  1.0000
  Fe  Fe262     1.0  0.75226  0.48193  0.98928  1.0000
  H   H3882     1.0  0.88128  0.31089  0.12638  1.0000
  H   H3883     1.0  0.82609  0.25429  0.11534  1.0000
  C   C2211     1.0  0.86360  0.42178  0.15209  1.0000
  C   C2212     1.0  0.98580  0.44535  0.08378  1.0000
  H   H3884     1.0  0.86449  0.23678  0.03979  1.0000
  C   C2213     1.0  0.85921  0.39861  0.02621  1.0000
  H   H3885     1.0  0.73342  0.41533  0.06592  1.0000
  H   H3886     1.0  0.73585  0.47911  0.10595  1.0000
  H   H3887     1.0  0.85925  0.25582  0.14991  1.0000
  H   H3888     1.0  0.92868  0.39972  0.15556  1.0000
  N   N122      1.0  0.87578  0.42852  0.13519  1.0000
  H   H3889     1.0  0.94094  0.34913  0.03794  1.0000
  H   H3890     1.0  0.80743  0.41861  0.09206  1.0000
  H   H3891     1.0  0.75621  0.44110  0.98900  1.0000
  H   H3892     1.0  0.87456  0.31505  0.07395  1.0000
  H   H3893     1.0  0.92291  0.24956  0.05836  1.0000
  H   H3894     1.0  0.86785  0.42249  0.16359  1.0000
  H   H3895     1.0  0.83711  0.40627  0.17509  1.0000
  H   H3896     1.0  0.77697  0.43583  0.03138  1.0000
  H   H3897     1.0  0.94557  0.27411  0.08221  1.0000
  C   C2214     1.0  0.83127  0.29584  0.11027  1.0000
  C   C2215     1.0  0.83625  0.30017  0.09206  1.0000
  C   C2216     1.0  0.83785  0.28793  0.08229  1.0000
  C   C2217     1.0  0.83419  0.27138  0.09062  1.0000
  C   C2218     1.0  0.82912  0.26700  0.10884  1.0000
  C   C2219     1.0  0.82769  0.27922  0.11866  1.0000
  H   H3898     1.0  0.83918  0.31281  0.08546  1.0000
  Fe  Fe263     1.0  0.99021  0.25641  0.07969  1.0000
  H   H3899     1.0  0.82378  0.27579  0.13276  1.0000
  C   C2220     1.0  0.89741  0.37377  0.07571  1.0000
  C   C2221     1.0  0.88986  0.37994  0.09109  1.0000
  C   C2222     1.0  0.89904  0.38892  0.09670  1.0000
  C   C2223     1.0  0.91564  0.39185  0.08686  1.0000
  C   C2224     1.0  0.92241  0.38694  0.07078  1.0000
  C   C2225     1.0  0.91322  0.37802  0.06517  1.0000
  H   H3900     1.0  0.87747  0.37695  0.09918  1.0000
  H   H3901     1.0  0.89369  0.39268  0.10909  1.0000
  H   H3902     1.0  0.93496  0.38961  0.06282  1.0000
  H   H3903     1.0  0.91873  0.37378  0.05297  1.0000
  C   C2226     1.0  0.87430  0.45290  0.15111  1.0000
  C   C2227     1.0  0.90416  0.41470  0.14768  1.0000
  H   H3904     1.0  0.90761  0.42723  0.14686  1.0000
  H   H3905     1.0  0.78624  0.42392  0.98765  1.0000
  H   H3906     1.0  0.90213  0.27628  0.09976  1.0000
  H   H3907     1.0  0.88319  0.44349  0.15931  1.0000
  H   H3908     1.0  0.89412  0.40389  0.13191  1.0000
  H   H3909     1.0  0.88856  0.45068  0.12458  1.0000
  S   S517      1.0  0.83558  0.25679  0.07778  1.0000
  C   C2228     1.0  0.72939  0.45063  0.00183  1.0000
  H   H3910     1.0  0.89969  0.29448  0.10879  1.0000
  H   H3911     1.0  0.70255  0.45597  0.01661  1.0000
  H   H3912     1.0  0.87478  0.39324  0.15470  1.0000
  H   H3913     1.0  0.90079  0.47013  0.03445  1.0000
  H   H3914     1.0  0.80303  0.42154  0.07093  1.0000
  H   H3915     1.0  0.86780  0.32413  0.15179  1.0000
  C   C2229     1.0  0.81237  0.44451  0.13575  1.0000
  C   C2230     1.0  0.80844  0.43225  0.15131  1.0000
  C   C2231     1.0  0.81336  0.41431  0.15158  1.0000
  C   C2232     1.0  0.82195  0.40835  0.13625  1.0000
  C   C2233     1.0  0.82556  0.42055  0.12044  1.0000
  C   C2234     1.0  0.82078  0.43871  0.12022  1.0000
  H   H3916     1.0  0.80178  0.43666  0.16330  1.0000
  H   H3917     1.0  0.81049  0.40496  0.16380  1.0000
  H   H3918     1.0  0.83234  0.41601  0.10856  1.0000
  H   H3919     1.0  0.82368  0.44822  0.10817  1.0000
  H   H3920     1.0  0.87793  0.44963  0.09982  1.0000
  H   H3921     1.0  0.80222  0.44756  0.02361  1.0000
  H   H3922     1.0  0.96003  0.46402  0.03373  1.0000
  H   H3923     1.0  0.85002  0.43039  0.15277  1.0000
  C   C2235     1.0  0.95890  0.31221  0.11513  1.0000
  S   S518      1.0  0.97250  0.24839  0.10586  1.0000
  C   C2236     1.0  0.71133  0.32076  0.97974  1.0000
  H   H3924     1.0  0.82254  0.40943  0.02878  1.0000
  H   H3925     1.0  0.77683  0.25419  0.08234  1.0000
  H   H3926     1.0  0.80615  0.43639  0.00633  1.0000
  C   C2237     1.0  0.80518  0.43444  0.02053  1.0000
  C   C2238     1.0  0.86172  0.40257  0.15536  1.0000
  C   C2239     1.0  0.87784  0.29576  0.09794  1.0000
  C   C2240     1.0  0.75297  0.29475  0.01334  1.0000
  C   C2241     1.0  0.75681  0.30006  0.99514  1.0000
  Fe  Fe264     1.0  0.99255  0.36838  0.08045  1.0000
  C   C2242     1.0  0.74627  0.27569  0.99290  1.0000
  C   C2243     1.0  0.74291  0.27001  0.01110  1.0000
  C   C2244     1.0  0.74625  0.27957  0.02132  1.0000
  H   H3927     1.0  0.76211  0.31165  0.98885  1.0000
  C   C2245     1.0  0.77396  0.24604  0.07504  1.0000
  H   H3928     1.0  0.73736  0.25852  0.01731  1.0000
  H   H3929     1.0  0.74334  0.27535  0.03541  1.0000
  C   C2246     1.0  0.81089  0.36780  0.01685  1.0000
  C   C2247     1.0  0.82503  0.36410  0.02507  1.0000
  C   C2248     1.0  0.82238  0.36943  0.04072  1.0000
  C   C2249     1.0  0.80560  0.37839  0.04812  1.0000
  C   C2250     1.0  0.79167  0.38231  0.03967  1.0000
  C   C2251     1.0  0.79433  0.37720  0.02402  1.0000
  H   H3930     1.0  0.83787  0.35678  0.01957  1.0000
  H   H3931     1.0  0.83332  0.36664  0.04698  1.0000
  H   H3932     1.0  0.77874  0.38939  0.04518  1.0000
  H   H3933     1.0  0.78342  0.38047  0.01760  1.0000
  H   H3934     1.0  0.87207  0.46764  0.05482  1.0000
  C   C2252     1.0  0.90212  0.26364  0.13389  1.0000
  C   C2253     1.0  0.75361  0.29046  0.98499  1.0000
  Fe  Fe265     1.0  0.77383  0.48142  0.01423  1.0000
  H   H3935     1.0  0.84807  0.38371  0.17497  1.0000
  H   H3936     1.0  0.86884  0.48116  0.14073  1.0000
  H   H3937     1.0  0.93944  0.35087  0.07643  1.0000
  C   C2254     1.0  0.95284  0.35016  0.04158  1.0000
  H   H3938     1.0  0.86334  0.39287  0.01449  1.0000
  C   C2255     1.0  0.89694  0.47655  0.04565  1.0000
  C   C2256     1.0  0.80349  0.42854  0.08057  1.0000
  C   C2257     1.0  0.71454  0.42830  0.02226  1.0000
  C   C2258     1.0  0.72966  0.41517  0.01854  1.0000
  H   H3939     1.0  0.87588  0.43874  0.07481  1.0000
  C   C2259     1.0  0.81810  0.43885  0.07211  1.0000
  H   H3940     1.0  0.81888  0.44662  0.08097  1.0000
  H   H3941     1.0  0.83108  0.42962  0.06922  1.0000
  H   H3942     1.0  0.81546  0.44794  0.05968  1.0000
  H   H3943     1.0  0.74269  0.43912  0.10788  1.0000
  H   H3944     1.0  0.85573  0.39279  0.97838  1.0000
  H   H3945     1.0  0.71656  0.39261  0.99282  1.0000
  H   H3946     1.0  0.91900  0.38797  0.14629  1.0000
  H   H3947     1.0  0.97637  0.48334  0.03691  1.0000
  C   C2260     1.0  0.93502  0.24883  0.04771  1.0000
  H   H3948     1.0  0.81980  0.40871  0.99977  1.0000
  H   H3949     1.0  0.86497  0.26864  0.11865  1.0000
  H   H3950     1.0  0.96871  0.33747  0.06057  1.0000
  H   H3951     1.0  0.88094  0.24145  0.14822  1.0000
  H   H3952     1.0  0.75746  0.45048  0.10998  1.0000
  N   N123      1.0  0.78123  0.32595  0.07604  1.0000
  C   C2261     1.0  0.77971  0.32031  0.09557  1.0000
  C   C2262     1.0  0.77158  0.31586  0.07010  1.0000
  C   C2263     1.0  0.80065  0.32142  0.06743  1.0000
  C   C2264     1.0  0.77461  0.34549  0.07032  1.0000
  C   C2265     1.0  0.75515  0.35306  0.07853  1.0000
  C   C2266     1.0  0.78846  0.32999  0.10361  1.0000
  C   C2267     1.0  0.80499  0.32482  0.04715  1.0000
  C   C2268     1.0  0.75496  0.31005  0.08299  1.0000
  C   C2269     1.0  0.74521  0.30269  0.07407  1.0000
  C   C2270     1.0  0.75061  0.37307  0.07281  1.0000
  C   C2271     1.0  0.78486  0.32379  0.12350  1.0000
  C   C2272     1.0  0.82457  0.31768  0.03991  1.0000
  H   H3953     1.0  0.78553  0.30595  0.09920  1.0000
  H   H3954     1.0  0.76566  0.32207  0.10269  1.0000
  H   H3955     1.0  0.76766  0.32345  0.05760  1.0000
  H   H3956     1.0  0.78057  0.30336  0.06707  1.0000
  H   H3957     1.0  0.80632  0.30730  0.07250  1.0000
  H   H3958     1.0  0.80832  0.32907  0.07067  1.0000
  H   H3959     1.0  0.78331  0.35280  0.07250  1.0000
  H   H3960     1.0  0.77562  0.34930  0.05603  1.0000
  H   H3961     1.0  0.75254  0.34964  0.09299  1.0000
  H   H3962     1.0  0.74610  0.34811  0.07401  1.0000
  H   H3963     1.0  0.80302  0.32744  0.09868  1.0000
  H   H3964     1.0  0.78308  0.34437  0.10068  1.0000
  H   H3965     1.0  0.80205  0.33908  0.04148  1.0000
  H   H3966     1.0  0.79723  0.31862  0.04233  1.0000
  H   H3967     1.0  0.75904  0.29948  0.09407  1.0000
  H   H3968     1.0  0.74544  0.32099  0.08841  1.0000
  H   H3969     1.0  0.75418  0.29153  0.06846  1.0000
  H   H3970     1.0  0.73384  0.29794  0.08371  1.0000
  H   H3971     1.0  0.74001  0.31306  0.06343  1.0000
  H   H3972     1.0  0.73669  0.37826  0.07907  1.0000
  H   H3973     1.0  0.75947  0.37891  0.07667  1.0000
  H   H3974     1.0  0.75194  0.37717  0.05841  1.0000
  H   H3975     1.0  0.79128  0.33079  0.12901  1.0000
  C   C2273     1.0  0.81557  0.28490  0.01151  1.0000
  H   H3976     1.0  0.79043  0.30947  0.12729  1.0000
  H   H3977     1.0  0.83307  0.32317  0.04466  1.0000
  H   H3978     1.0  0.82784  0.30313  0.04384  1.0000
  H   H3979     1.0  0.82743  0.32155  0.02541  1.0000
  C   C2274     1.0  0.80836  0.24659  0.02068  1.0000
  H   H3980     1.0  0.96024  0.46039  0.05640  1.0000
  H   H3981     1.0  0.71107  0.30738  0.00681  1.0000
  H   H3982     1.0  0.82787  0.28657  0.01391  1.0000
  H   H3983     1.0  0.85477  0.44258  0.08982  1.0000
  C   C2275     1.0  0.94080  0.33792  0.07361  1.0000
  S   S519      1.0  0.77433  0.46188  0.99953  1.0000
  C   C2276     1.0  0.75381  0.44564  0.10028  1.0000
  Fe  Fe266     1.0  0.97965  0.38509  0.04696  1.0000
  H   H3984     1.0  0.91543  0.28505  0.13120  1.0000
  C   C2277     1.0  0.74889  0.42157  0.08044  1.0000
  C   C2278     1.0  0.87871  0.30187  0.13934  1.0000
  H   H3985     1.0  0.82010  0.24536  0.00960  1.0000
  H   H3986     1.0  0.94738  0.29536  0.09821  1.0000
  H   H3987     1.0  0.78360  0.45195  0.07476  1.0000
  H   H3988     1.0  0.72013  0.46804  0.10384  1.0000
  H   H3989     1.0  0.84449  0.48061  0.99934  1.0000
  H   H3990     1.0  0.97216  0.45750  0.10571  1.0000
  H   H3991     1.0  0.69907  0.32999  0.00392  1.0000
  H   H3992     1.0  0.77697  0.41789  0.07240  1.0000
  H   H3993     1.0  0.70981  0.42459  0.98792  1.0000
  H   H3994     1.0  0.96434  0.34847  0.03043  1.0000
  H   H3995     1.0  0.69912  0.31688  0.97996  1.0000
  C   C2279     1.0  0.83783  0.44703  0.00806  1.0000
  H   H3996     1.0  0.79329  0.30189  0.00081  1.0000
  H   H3997     1.0  0.76963  0.39376  0.13907  1.0000
  C   C2280     1.0  0.79206  0.48167  0.04554  1.0000
  H   H3998     1.0  0.92510  0.27228  0.11486  1.0000
  C   C2281     1.0  0.71110  0.32080  0.99850  1.0000
  H   H3999     1.0  0.95076  0.36342  0.04402  1.0000
  H   H4000     1.0  0.81944  0.27731  0.00116  1.0000
  C   C2282     1.0  0.86840  0.43428  0.08824  1.0000
  H   H4001     1.0  0.93023  0.48241  0.03736  1.0000
  N   N124      1.0  0.76941  0.43272  0.09245  1.0000
  S   S520      1.0  0.97977  0.38016  0.02141  1.0000
  H   H4002     1.0  0.93028  0.40492  0.13232  1.0000
  C   C2283     1.0  0.93256  0.26034  0.13937  1.0000
  H   H4003     1.0  0.89695  0.24369  0.08778  1.0000
  C   C2284     1.0  0.92418  0.32562  0.10235  1.0000
  C   C2285     1.0  0.93503  0.30223  0.07630  1.0000
  C   C2286     1.0  0.91900  0.34112  0.11163  1.0000
  C   C2287     1.0  0.98533  0.47530  0.08452  1.0000
  C   C2288     1.0  0.90002  0.34297  0.12241  1.0000
  C   C2289     1.0  0.83450  0.40524  0.99718  1.0000
  H   H4004     1.0  0.92306  0.31342  0.11259  1.0000
  H   H4005     1.0  0.91358  0.32740  0.09529  1.0000
  H   H4006     1.0  0.92847  0.33924  0.06926  1.0000
  H   H4007     1.0  0.92187  0.30176  0.08504  1.0000
  H   H4008     1.0  0.93317  0.31247  0.06433  1.0000
  H   H4009     1.0  0.92013  0.35360  0.10196  1.0000
  H   H4010     1.0  0.92770  0.33908  0.12073  1.0000
  C   C2290     1.0  0.91873  0.27165  0.12890  1.0000
  H   H4011     1.0  0.95495  0.28542  0.06055  1.0000
  H   H4012     1.0  0.76596  0.43988  0.06578  1.0000
  C   C2291     1.0  0.89422  0.41708  0.13324  1.0000
  H   H4013     1.0  0.89871  0.33117  0.13312  1.0000
  H   H4014     1.0  0.89637  0.35466  0.12823  1.0000
  H   H4015     1.0  0.89075  0.34479  0.11395  1.0000
  C   C2292     1.0  0.87457  0.39178  0.03556  1.0000
  H   H4016     1.0  0.82263  0.42615  0.03841  1.0000
  H   H4017     1.0  0.85352  0.42415  0.03238  1.0000
  H   H4018     1.0  0.83483  0.45193  0.02026  1.0000
  H   H4019     1.0  0.84766  0.39368  0.03522  1.0000
  H   H4020     1.0  0.87793  0.37722  0.03820  1.0000
  H   H4021     1.0  0.88654  0.39658  0.02736  1.0000
  H   H4022     1.0  0.87083  0.39589  0.04822  1.0000
  H   H4023     1.0  0.78876  0.41635  0.02341  1.0000
  N   N125      1.0  0.94212  0.32368  0.08996  1.0000
  H   H4024     1.0  0.79107  0.41896  0.04389  1.0000
  C   C2293     1.0  0.84967  0.47356  0.98852  1.0000
  H   H4025     1.0  0.73701  0.43005  0.08695  1.0000
  C   C2294     1.0  0.95662  0.33605  0.05772  1.0000
  H   H4026     1.0  0.95345  0.33925  0.09971  1.0000
  C   C2295     1.0  0.89246  0.28504  0.10810  1.0000
  C   C2296     1.0  0.86810  0.42813  0.12046  1.0000
  C   C2297     1.0  0.85513  0.41888  0.02067  1.0000
  C   C2298     1.0  0.87772  0.43563  0.10162  1.0000
  H   H4027     1.0  0.87059  0.27752  0.15169  1.0000
  H   H4028     1.0  0.78670  0.44702  0.09622  1.0000
  H   H4029     1.0  0.86028  0.28998  0.13441  1.0000
  H   H4030     1.0  0.85686  0.39663  0.18383  1.0000
  H   H4031     1.0  0.86043  0.45364  0.15881  1.0000
  C   C2299     1.0  0.95473  0.46979  0.04546  1.0000
  H   H4032     1.0  0.96831  0.30000  0.11203  1.0000
  H   H4033     1.0  0.83534  0.43217  0.98611  1.0000
  C   C2300     1.0  0.78538  0.44091  0.08617  1.0000
  C   C2301     1.0  0.74468  0.43759  0.99844  1.0000
  H   H4034     1.0  0.86703  0.30387  0.10595  1.0000
  N   N126      1.0  0.81120  0.25563  0.03322  1.0000
  C   C2302     1.0  0.80487  0.27534  0.02874  1.0000
  C   C2303     1.0  0.80208  0.24869  0.05174  1.0000
  C   C2304     1.0  0.83081  0.25169  0.03270  1.0000
  H   H4035     1.0  0.77983  0.25852  0.02183  1.0000
  Fe  Fe267     1.0  0.74108  0.23635  0.98997  1.0000
  C   C2305     1.0  0.94259  0.28475  0.07082  1.0000
  C   C2306     1.0  0.78938  0.24325  0.00230  1.0000
  H   H4036     1.0  0.86172  0.47803  0.98008  1.0000
  H   H4037     1.0  0.78367  0.40201  0.14711  1.0000
  H   H4038     1.0  0.86490  0.45100  0.00291  1.0000
  S   S521      1.0  0.72832  0.47253  0.99000  1.0000
  H   H4039     1.0  0.74139  0.45880  0.07757  1.0000
  H   H4040     1.0  0.80539  0.28114  0.03939  1.0000
  H   H4041     1.0  0.79070  0.27916  0.02804  1.0000
  C   C2307     1.0  0.74647  0.46222  0.08719  1.0000
  H   H4042     1.0  0.80545  0.25449  0.06094  1.0000
  H   H4043     1.0  0.83341  0.25878  0.04128  1.0000
  H   H4044     1.0  0.83821  0.25656  0.01929  1.0000
  H   H4045     1.0  0.98216  0.43290  0.09016  1.0000
  C   C2308     1.0  0.87834  0.47095  0.14781  1.0000
  N   N127      1.0  0.83935  0.42738  0.01240  1.0000
  H   H4046     1.0  0.97849  0.32426  0.11842  1.0000
  H   H4047     1.0  0.86745  0.42212  0.01152  1.0000
  H   H4048     1.0  0.93284  0.28165  0.06551  1.0000
  H   H4049     1.0  0.90717  0.25077  0.12987  1.0000
  H   H4050     1.0  0.77828  0.25006  0.99561  1.0000
  H   H4051     1.0  0.77512  0.26537  0.05109  1.0000
  H   H4052     1.0  0.72305  0.32470  0.99904  1.0000
  H   H4053     1.0  0.78322  0.40578  0.10045  1.0000
  H   H4054     1.0  0.93688  0.24688  0.13681  1.0000
  C   C2309     1.0  0.78104  0.40021  0.13516  1.0000
  H   H4055     1.0  0.95950  0.32324  0.05408  1.0000
  H   H4056     1.0  0.85524  0.40110  0.14572  1.0000
  H   H4057     1.0  0.89811  0.26021  0.14841  1.0000
  H   H4058     1.0  0.89054  0.29794  0.14505  1.0000
  H   H4059     1.0  0.94650  0.30847  0.12338  1.0000
  H   H4060     1.0  0.85261  0.24147  0.12962  1.0000
  C   C2310     1.0  0.79218  0.25534  0.01211  1.0000
  H   H4061     1.0  0.80697  0.23427  0.05569  1.0000
  H   H4062     1.0  0.65806  0.46828  0.99462  1.0000
  H   H4063     1.0  0.87232  0.28683  0.09390  1.0000
  H   H4064     1.0  0.89207  0.47108  0.14008  1.0000
  C   C2311     1.0  0.71171  0.40067  0.98096  1.0000
  C   C2312     1.0  0.87676  0.48003  0.05127  1.0000
  C   C2313     1.0  0.96643  0.31946  0.12618  1.0000
  H   H4065     1.0  0.96917  0.32414  0.08854  1.0000
  S   S522      1.0  0.92934  0.24439  0.09511  1.0000
  H   H4066     1.0  0.84206  0.29125  0.06823  1.0000
  H   H4067     1.0  0.98632  0.41503  0.01131  1.0000
  C   C2314     1.0  0.95610  0.32564  0.09782  1.0000
  H   H4068     1.0  0.81345  0.30993  0.99290  1.0000
  C   C2315     1.0  0.94729  0.30572  0.08596  1.0000
  H   H4069     1.0  0.75691  0.46955  0.07990  1.0000
  H   H4070     1.0  0.80057  0.31110  0.01465  1.0000
  S   S523      1.0  0.97518  0.24805  0.06536  1.0000
  H   H4071     1.0  0.86518  0.45669  0.12793  1.0000
  H   H4072     1.0  0.96123  0.30313  0.07838  1.0000
  H   H4073     1.0  0.75676  0.41224  0.05621  1.0000
  C   C2316     1.0  0.87336  0.28549  0.13812  1.0000
  C   C2317     1.0  0.71437  0.44594  0.01385  1.0000
  H   H4074     1.0  0.77806  0.24311  0.04895  1.0000
  H   H4075     1.0  0.85150  0.31660  0.14628  1.0000
  H   H4076     1.0  0.83830  0.39421  0.00788  1.0000
  H   H4077     1.0  0.89622  0.41028  0.16088  1.0000
  H   H4078     1.0  0.86789  0.41448  0.12065  1.0000
  C   C2318     1.0  0.85024  0.39702  0.17344  1.0000
  H   H4079     1.0  0.79423  0.26773  0.00256  1.0000
  N   N128      1.0  0.92557  0.45864  0.05634  1.0000
  C   C2319     1.0  0.93083  0.44832  0.04227  1.0000
  C   C2320     1.0  0.93415  0.47419  0.04965  1.0000
  C   C2321     1.0  0.93150  0.44683  0.07251  1.0000
  C   C2322     1.0  0.90575  0.46517  0.06100  1.0000
  C   C2323     1.0  0.74534  0.42078  0.06326  1.0000
  C   C2324     1.0  0.92116  0.43322  0.04582  1.0000
  C   C2325     1.0  0.93058  0.45595  0.08716  1.0000
  H   H4080     1.0  0.76578  0.42649  0.12991  1.0000
  C   C2326     1.0  0.76599  0.42838  0.07708  1.0000
  H   H4081     1.0  0.90288  0.42251  0.12089  1.0000
  C   C2327     1.0  0.92803  0.42322  0.03111  1.0000
  C   C2328     1.0  0.93695  0.44262  0.10270  1.0000
  H   H4082     1.0  0.94525  0.44236  0.04010  1.0000
  H   H4083     1.0  0.92909  0.45712  0.02942  1.0000
  C   C2329     1.0  0.84129  0.39860  0.98026  1.0000
  H   H4084     1.0  0.94435  0.26625  0.13541  1.0000
  H   H4085     1.0  0.94530  0.43924  0.06915  1.0000
  H   H4086     1.0  0.92336  0.43679  0.07857  1.0000
  H   H4087     1.0  0.89913  0.45403  0.06762  1.0000
  H   H4088     1.0  0.90214  0.47331  0.07084  1.0000
  S   S524      1.0  0.84383  0.48029  0.09548  1.0000
  H   H4089     1.0  0.77041  0.32661  0.12926  1.0000
  H   H4090     1.0  0.92326  0.42370  0.05814  1.0000
  H   H4091     1.0  0.90671  0.43834  0.04681  1.0000
  H   H4092     1.0  0.91680  0.46268  0.09201  1.0000
  H   H4093     1.0  0.93911  0.46567  0.08253  1.0000
  H   H4094     1.0  0.87702  0.47428  0.16046  1.0000
  C   C2330     1.0  0.77710  0.41801  0.12267  1.0000
  H   H4095     1.0  0.75035  0.40809  0.08879  1.0000
  C   C2331     1.0  0.74485  0.41991  0.00682  1.0000
  H   H4096     1.0  0.86769  0.42046  0.08977  1.0000
  H   H4097     1.0  0.82652  0.45397  0.00160  1.0000
  C   C2332     1.0  0.85425  0.45372  0.99570  1.0000
  H   H4098     1.0  0.89156  0.42811  0.09848  1.0000
  H   H4099     1.0  0.94242  0.41721  0.02984  1.0000
  H   H4100     1.0  0.92091  0.41249  0.03404  1.0000
  H   H4101     1.0  0.92580  0.43212  0.01847  1.0000
  H   H4102     1.0  0.95077  0.43543  0.09858  1.0000
  H   H4103     1.0  0.93649  0.44952  0.11283  1.0000
  H   H4104     1.0  0.92838  0.43300  0.10848  1.0000
  H   H4105     1.0  0.85408  0.43556  0.12223  1.0000
  C   C2333     1.0  0.86388  0.31226  0.15129  1.0000
  C   C2334     1.0  0.78166  0.25147  0.05549  1.0000
  H   H4106     1.0  0.75680  0.41002  0.00438  1.0000
  H   H4107     1.0  0.96995  0.30899  0.13752  1.0000
  Fe  Fe268     1.0  0.99084  0.40736  0.06435  1.0000
  H   H4108     1.0  0.95650  0.33054  0.13110  1.0000
  H   H4109     1.0  0.74295  0.43413  0.05471  1.0000
  H   H4110     1.0  0.69714  0.40202  0.98378  1.0000
  Fe  Fe269     1.0  0.75810  0.36294  0.97855  1.0000
  C   C2335     1.0  0.87690  0.26157  0.12407  1.0000
  H   H4111     1.0  0.83955  0.47699  0.98054  1.0000
  H   H4112     1.0  0.67787  0.45771  0.00283  1.0000
  Fe  Fe270     1.0  0.95908  0.23794  0.09153  1.0000
  S   S525      1.0  0.77565  0.47331  0.04239  1.0000
  C   C2336     1.0  0.80504  0.30308  0.00461  1.0000
  S   S526      1.0  0.74073  0.26524  0.97964  1.0000
  H   H4113     1.0  0.85954  0.44734  0.98438  1.0000
  C   C2337     1.0  0.67266  0.46684  0.99156  1.0000
  H   H4114     1.0  0.67554  0.47991  0.98973  1.0000
  Fe  Fe271     1.0  0.79210  0.47632  0.97750  1.0000
  H   H4115     1.0  0.93114  0.25220  0.03496  1.0000
  H   H4116     1.0  0.80145  0.23959  0.99229  1.0000
  H   H4117     1.0  0.92917  0.48302  0.05895  1.0000
  H   H4118     1.0  0.99313  0.25804  0.01780  1.0000
  H   H4119     1.0  0.59699  0.23991  0.97913  1.0000
  C   C2338     1.0  0.86311  0.23497  0.13715  1.0000
  C   C2339     1.0  0.80754  0.48302  0.03264  1.0000
  H   H4120     1.0  0.80977  0.47826  0.02101  1.0000
  H   H4121     1.0  0.83437  0.38831  0.98092  1.0000
  H   H4122     1.0  0.79840  0.39797  0.97624  1.0000
  C   C2340     1.0  0.71627  0.41864  0.97643  1.0000
  S   S527      1.0  0.87132  0.28265  0.76267  1.0000
  S   S528      1.0  0.88338  0.30357  0.71229  1.0000
  Fe  Fe272     1.0  0.84626  0.30045  0.77342  1.0000
  S   S529      1.0  0.82059  0.29239  0.78770  1.0000
  Fe  Fe273     1.0  0.88482  0.29495  0.77501  1.0000
  S   S530      1.0  0.90776  0.28086  0.78762  1.0000
  S   S531      1.0  0.94059  0.34204  0.78978  1.0000
  Fe  Fe274     1.0  0.75949  0.35155  0.84263  1.0000
  S   S532      1.0  0.77046  0.35927  0.81400  1.0000
  Fe  Fe275     1.0  0.77013  0.34110  0.87730  1.0000
  S   S533      1.0  0.79138  0.33405  0.89234  1.0000
  S   S534      1.0  0.72714  0.30474  0.88338  1.0000
  S   S535      1.0  0.76924  0.32545  0.85923  1.0000
  H   H4123     1.0  0.71232  0.39193  0.91809  1.0000
  C   C2341     1.0  0.91796  0.40685  0.80031  1.0000
  S   S536      1.0  0.75623  0.24442  0.84113  1.0000
  H   H4124     1.0  0.75422  0.41050  0.93491  1.0000
  H   H4125     1.0  0.82780  0.36338  0.93043  1.0000
  H   H4126     1.0  0.80313  0.37595  0.96316  1.0000
  Fe  Fe276     1.0  0.96979  0.33560  0.78853  1.0000
  H   H4127     1.0  0.80618  0.23856  0.78809  1.0000
  H   H4128     1.0  0.96944  0.39038  0.76949  1.0000
  S   S537      1.0  0.94244  0.44123  0.73110  1.0000
  H   H4129     1.0  0.84557  0.44326  0.94094  1.0000
  H   H4130     1.0  0.82911  0.23995  0.72036  1.0000
  H   H4131     1.0  0.78884  0.24727  0.92499  1.0000
  C   C2342     1.0  0.69456  0.33948  0.94747  1.0000
  C   C2343     1.0  0.81893  0.44956  0.91289  1.0000
  H   H4132     1.0  0.89874  0.36038  0.74858  1.0000
  H   H4133     1.0  0.81063  0.31206  0.70956  1.0000
  H   H4134     1.0  0.95196  0.42808  0.77886  1.0000
  C   C2344     1.0  0.81368  0.37831  0.95118  1.0000
  H   H4135     1.0  0.97639  0.46531  0.75599  1.0000
  S   S538      1.0  0.98963  0.33671  0.76300  1.0000
  H   H4136     1.0  0.73226  0.45901  0.85421  1.0000
  H   H4137     1.0  0.92287  0.42707  0.70214  1.0000
  C   C2345     1.0  0.96036  0.39058  0.74734  1.0000
  H   H4138     1.0  0.93991  0.41056  0.69259  1.0000
  H   H4139     1.0  0.79119  0.38796  0.92824  1.0000
  H   H4140     1.0  0.97321  0.46667  0.86041  1.0000
  H   H4141     1.0  0.69568  0.44141  0.92963  1.0000
  S   S539      1.0  0.79206  0.45836  0.81958  1.0000
  H   H4142     1.0  0.70037  0.33237  0.92193  1.0000
  H   H4143     1.0  0.84894  0.26303  0.80348  1.0000
  H   H4144     1.0  0.69773  0.40326  0.93453  1.0000
  H   H4145     1.0  0.96132  0.41197  0.75728  1.0000
  Fe  Fe277     1.0  0.75869  0.46360  0.87919  1.0000
  H   H4146     1.0  0.91308  0.41531  0.80994  1.0000
  H   H4147     1.0  0.90862  0.41209  0.79129  1.0000
  H   H4148     1.0  0.91222  0.44300  0.79207  1.0000
  H   H4149     1.0  0.80429  0.47965  0.78466  1.0000
  H   H4150     1.0  0.95191  0.41881  0.81325  1.0000
  C   C2346     1.0  0.84073  0.44138  0.79185  1.0000
  H   H4151     1.0  0.77754  0.25340  0.90164  1.0000
  C   C2347     1.0  0.93790  0.42687  0.78197  1.0000
  C   C2348     1.0  0.89548  0.38875  0.81873  1.0000
  H   H4152     1.0  0.94108  0.23919  0.69465  1.0000
  H   H4153     1.0  0.80551  0.36096  0.94016  1.0000
  H   H4154     1.0  0.77436  0.24903  0.80165  1.0000
  H   H4155     1.0  0.95671  0.38050  0.83411  1.0000
  C   C2349     1.0  0.93954  0.25905  0.74810  1.0000
  H   H4156     1.0  0.83793  0.24227  0.76957  1.0000
  C   C2350     1.0  0.59492  0.23732  0.96728  1.0000
  H   H4157     1.0  0.93012  0.40452  0.76740  1.0000
  H   H4158     1.0  0.83767  0.34562  0.95732  1.0000
  C   C2351     1.0  0.83377  0.44766  0.93565  1.0000
  C   C2352     1.0  0.93159  0.45866  0.78464  1.0000
  H   H4159     1.0  0.73750  0.24380  0.90260  1.0000
  C   C2353     1.0  0.71663  0.35829  0.93835  1.0000
  H   H4160     1.0  0.95022  0.39847  0.73976  1.0000
  H   H4161     1.0  0.76239  0.44299  0.78532  1.0000
  H   H4162     1.0  0.92194  0.38422  0.82224  1.0000
  C   C2354     1.0  0.94807  0.40592  0.81736  1.0000
  C   C2355     1.0  0.80340  0.45901  0.92184  1.0000
  N   N129      1.0  0.91903  0.36741  0.72575  1.0000
  S   S540      1.0  0.81820  0.46182  0.96419  1.0000
  S   S541      1.0  0.89730  0.42841  0.75024  1.0000
  H   H4163     1.0  0.85873  0.24801  0.82102  1.0000
  H   H4164     1.0  0.78623  0.29690  0.81161  1.0000
  C   C2356     1.0  0.73473  0.28842  0.87108  1.0000
  C   C2357     1.0  0.74905  0.28931  0.85673  1.0000
  C   C2358     1.0  0.75551  0.27574  0.84762  1.0000
  C   C2359     1.0  0.74760  0.26127  0.85271  1.0000
  C   C2360     1.0  0.73311  0.26045  0.86691  1.0000
  C   C2361     1.0  0.72666  0.27404  0.87605  1.0000
  H   H4165     1.0  0.75514  0.30045  0.85257  1.0000
  H   H4166     1.0  0.76663  0.27651  0.83656  1.0000
  H   H4167     1.0  0.72686  0.24938  0.87082  1.0000
  H   H4168     1.0  0.71541  0.27341  0.88698  1.0000
  C   C2362     1.0  0.78263  0.34649  0.90836  1.0000
  C   C2363     1.0  0.78730  0.34043  0.92462  1.0000
  C   C2364     1.0  0.77805  0.34912  0.93823  1.0000
  C   C2365     1.0  0.76457  0.36411  0.93537  1.0000
  C   C2366     1.0  0.76064  0.37065  0.91884  1.0000
  C   C2367     1.0  0.76955  0.36178  0.90543  1.0000
  H   H4169     1.0  0.79731  0.32852  0.92697  1.0000
  H   H4170     1.0  0.74904  0.39674  0.87917  1.0000
  H   H4171     1.0  0.75021  0.38222  0.91652  1.0000
  H   H4172     1.0  0.76593  0.36661  0.89294  1.0000
  C   C2368     1.0  0.88268  0.28416  0.70723  1.0000
  C   C2369     1.0  0.88214  0.26846  0.71986  1.0000
  C   C2370     1.0  0.88042  0.25354  0.71554  1.0000
  C   C2371     1.0  0.87919  0.25434  0.69856  1.0000
  C   C2372     1.0  0.88023  0.26988  0.68586  1.0000
  C   C2373     1.0  0.88205  0.28470  0.69015  1.0000
  H   H4173     1.0  0.88306  0.26779  0.73293  1.0000
  H   H4174     1.0  0.88012  0.24145  0.72528  1.0000
  H   H4175     1.0  0.92307  0.46840  0.79238  1.0000
  C   C2374     1.0  0.79831  0.28973  0.74758  1.0000
  C   C2375     1.0  0.78345  0.34070  0.80613  1.0000
  C   C2376     1.0  0.79908  0.34219  0.79359  1.0000
  C   C2377     1.0  0.81044  0.32732  0.78814  1.0000
  C   C2378     1.0  0.80587  0.31096  0.79448  1.0000
  H   H4176     1.0  0.80270  0.35479  0.78841  1.0000
  H   H4177     1.0  0.82279  0.32864  0.77908  1.0000
  C   C2379     1.0  0.91719  0.29744  0.78872  1.0000
  C   C2380     1.0  0.93488  0.29389  0.79000  1.0000
  C   C2381     1.0  0.94236  0.30752  0.79018  1.0000
  C   C2382     1.0  0.93196  0.32459  0.78950  1.0000
  C   C2383     1.0  0.91425  0.32799  0.78848  1.0000
  C   C2384     1.0  0.90698  0.31454  0.78783  1.0000
  H   H4178     1.0  0.94286  0.28072  0.79041  1.0000
  H   H4179     1.0  0.95611  0.30484  0.79082  1.0000
  H   H4180     1.0  0.90605  0.34103  0.78827  1.0000
  H   H4181     1.0  0.89329  0.31744  0.78702  1.0000
  C   C2385     1.0  0.97493  0.46051  0.84934  1.0000
  Fe  Fe278     1.0  0.87430  0.30580  0.74036  1.0000
  Fe  Fe279     1.0  0.74063  0.32758  0.87291  1.0000
  S   S542      1.0  0.85775  0.35699  0.77274  1.0000
  S   S543      1.0  0.97514  0.47725  0.79640  1.0000
  C   C2386     1.0  0.96030  0.39352  0.82912  1.0000
  H   H4182     1.0  0.75794  0.43593  0.84680  1.0000
  H   H4183     1.0  0.80493  0.40353  0.85298  1.0000
  H   H4184     1.0  0.77104  0.28643  0.75460  1.0000
  H   H4185     1.0  0.77460  0.30288  0.76333  1.0000
  H   H4186     1.0  0.96372  0.39992  0.79324  1.0000
  H   H4187     1.0  0.95054  0.38452  0.80514  1.0000
  C   C2387     1.0  0.94878  0.45828  0.73517  1.0000
  H   H4188     1.0  0.88118  0.34353  0.70777  1.0000
  C   C2388     1.0  0.72631  0.32635  0.94119  1.0000
  H   H4189     1.0  0.83851  0.23798  0.79973  1.0000
  C   C2389     1.0  0.76382  0.41504  0.92289  1.0000
  H   H4190     1.0  0.86650  0.39494  0.90513  1.0000
  H   H4191     1.0  0.89724  0.35394  0.69094  1.0000
  C   C2390     1.0  0.73857  0.40788  0.88201  1.0000
  H   H4192     1.0  0.71618  0.40512  0.81560  1.0000
  Fe  Fe280     1.0  0.78594  0.46485  0.84579  1.0000
  C   C2391     1.0  0.79278  0.40039  0.85188  1.0000
  H   H4193     1.0  0.92197  0.35948  0.76214  1.0000
  C   C2392     1.0  0.89993  0.37841  0.77198  1.0000
  S   S544      1.0  0.71469  0.38947  0.88081  1.0000
  H   H4194     1.0  0.67452  0.46864  0.96453  1.0000
  C   C2393     1.0  0.81773  0.36226  0.94286  1.0000
  C   C2394     1.0  0.92636  0.44096  0.79245  1.0000
  S   S545      1.0  0.98732  0.23991  0.74870  1.0000
  H   H4195     1.0  0.90407  0.25932  0.75159  1.0000
  H   H4196     1.0  0.97323  0.27257  0.75977  1.0000
  H   H4197     1.0  0.86341  0.39560  0.71407  1.0000
  H   H4198     1.0  0.93985  0.25823  0.76186  1.0000
  C   C2395     1.0  0.74716  0.43884  0.83977  1.0000
  C   C2396     1.0  0.78414  0.25738  0.79843  1.0000
  C   C2397     1.0  0.73424  0.26360  0.92396  1.0000
  H   H4199     1.0  0.97099  0.44166  0.74583  1.0000
  C   C2398     1.0  0.67254  0.34262  0.92920  1.0000
  H   H4200     1.0  0.75862  0.31168  0.92059  1.0000
  H   H4201     1.0  0.93983  0.38457  0.78042  1.0000
  C   C2399     1.0  0.89870  0.35248  0.71759  1.0000
  H   H4202     1.0  0.84559  0.38174  0.93026  1.0000
  N   N130      1.0  0.93658  0.40793  0.79008  1.0000
  C   C2400     1.0  0.94043  0.39862  0.77535  1.0000
  H   H4203     1.0  0.78410  0.40613  0.79888  1.0000
  H   H4204     1.0  0.92024  0.25806  0.72418  1.0000
  Fe  Fe281     1.0  0.87958  0.44242  0.73148  1.0000
  H   H4205     1.0  0.77425  0.30747  0.74052  1.0000
  C   C2401     1.0  0.90836  0.36779  0.71301  1.0000
  H   H4206     1.0  0.79712  0.28938  0.72145  1.0000
  H   H4207     1.0  0.73803  0.39973  0.84275  1.0000
  C   C2402     1.0  0.95806  0.32858  0.73931  1.0000
  H   H4208     1.0  0.80736  0.42647  0.97364  1.0000
  C   C2403     1.0  0.82543  0.44631  0.82578  1.0000
  S   S546      1.0  0.98575  0.31142  0.80288  1.0000
  H   H4209     1.0  0.91002  0.40445  0.72514  1.0000
  H   H4210     1.0  0.92737  0.43712  0.80628  1.0000
  C   C2404     1.0  0.94897  0.34783  0.73372  1.0000
  H   H4211     1.0  0.93431  0.40744  0.82526  1.0000
  H   H4212     1.0  0.79102  0.47003  0.94456  1.0000
  C   C2405     1.0  0.93035  0.27826  0.74089  1.0000
  C   C2406     1.0  0.71141  0.43643  0.89017  1.0000
  H   H4213     1.0  0.89022  0.36982  0.77694  1.0000
  H   H4214     1.0  0.97115  0.32769  0.74181  1.0000
  Fe  Fe282     1.0  0.86309  0.33165  0.76424  1.0000
  H   H4215     1.0  0.76484  0.44523  0.81520  1.0000
  H   H4216     1.0  0.72301  0.31333  0.94765  1.0000
  H   H4217     1.0  0.96871  0.26271  0.82089  1.0000
  H   H4218     1.0  0.69960  0.27823  0.93900  1.0000
  H   H4219     1.0  0.71738  0.45638  0.92711  1.0000
  H   H4220     1.0  0.97433  0.39170  0.82182  1.0000
  H   H4221     1.0  0.78058  0.41101  0.96558  1.0000
  C   C2407     1.0  0.76460  0.26256  0.90506  1.0000
  S   S547      1.0  0.78292  0.44399  0.87030  1.0000
  H   H4222     1.0  0.83859  0.47777  0.86902  1.0000
  H   H4223     1.0  0.78589  0.42480  0.83393  1.0000
  C   C2408     1.0  0.73651  0.46702  0.94481  1.0000
  C   C2409     1.0  0.78803  0.41068  0.83443  1.0000
  C   C2410     1.0  0.93112  0.34935  0.72899  1.0000
  H   H4224     1.0  0.77700  0.28675  0.87573  1.0000
  H   H4225     1.0  0.74992  0.33728  0.93342  1.0000
  H   H4226     1.0  0.94372  0.25080  0.71955  1.0000
  H   H4227     1.0  0.69218  0.32615  0.95419  1.0000
  H   H4228     1.0  0.71120  0.39498  0.83857  1.0000
  H   H4229     1.0  0.70080  0.44741  0.89317  1.0000
  H   H4230     1.0  0.91066  0.40222  0.70367  1.0000
  H   H4231     1.0  0.69372  0.47098  0.90808  1.0000
  H   H4232     1.0  0.93336  0.30486  0.73694  1.0000
  H   H4233     1.0  0.73817  0.42991  0.84713  1.0000
  C   C2411     1.0  0.83102  0.24800  0.82330  1.0000
  H   H4234     1.0  0.84662  0.43908  0.77888  1.0000
  H   H4235     1.0  0.76376  0.42254  0.77992  1.0000
  H   H4236     1.0  0.85780  0.39035  0.77719  1.0000
  C   C2412     1.0  0.75488  0.43690  0.82057  1.0000
  H   H4237     1.0  0.72491  0.42024  0.83301  1.0000
  S   S548      1.0  0.73073  0.35259  0.85473  1.0000
  H   H4238     1.0  0.79478  0.27582  0.88717  1.0000
  S   S549      1.0  0.86974  0.42709  0.71856  1.0000
  C   C2413     1.0  0.70225  0.37478  0.94239  1.0000
  H   H4239     1.0  0.89790  0.38007  0.71173  1.0000
  S   S550      1.0  0.81977  0.44437  0.89321  1.0000
  C   C2414     1.0  0.85890  0.39147  0.76343  1.0000
  S   S551      1.0  0.88961  0.31700  0.75201  1.0000
  H   H4240     1.0  0.83270  0.32661  0.71268  1.0000
  H   H4241     1.0  0.85223  0.44110  0.82893  1.0000
  C   C2415     1.0  0.78986  0.30951  0.80661  1.0000
  H   H4242     1.0  0.90816  0.33956  0.71814  1.0000
  C   C2416     1.0  0.72091  0.40758  0.88332  1.0000
  H   H4243     1.0  0.79161  0.46319  0.91672  1.0000
  H   H4244     1.0  0.95870  0.37680  0.75210  1.0000
  H   H4245     1.0  0.84482  0.47211  0.88973  1.0000
  H   H4246     1.0  0.96024  0.32142  0.72889  1.0000
  C   C2417     1.0  0.96602  0.46822  0.74902  1.0000
  C   C2418     1.0  0.84389  0.44216  0.82018  1.0000
  N   N131      1.0  0.80802  0.39600  0.93967  1.0000
  C   C2419     1.0  0.82095  0.39843  0.92226  1.0000
  C   C2420     1.0  0.79008  0.39723  0.93646  1.0000
  C   C2421     1.0  0.80737  0.41014  0.94862  1.0000
  H   H4247     1.0  0.93854  0.38134  0.72560  1.0000
  H   H4248     1.0  0.82405  0.25200  0.74512  1.0000
  C   C2422     1.0  0.84074  0.39513  0.92286  1.0000
  S   S552      1.0  0.89780  0.46776  0.75382  1.0000
  H   H4249     1.0  0.73075  0.26893  0.91096  1.0000
  H   H4250     1.0  0.80145  0.27994  0.75943  1.0000
  H   H4251     1.0  0.75614  0.29085  0.90380  1.0000
  C   C2423     1.0  0.85245  0.39714  0.90443  1.0000
  H   H4252     1.0  0.86004  0.24388  0.75691  1.0000
  H   H4253     1.0  0.81753  0.41203  0.91467  1.0000
  H   H4254     1.0  0.89378  0.37547  0.82642  1.0000
  H   H4255     1.0  0.91667  0.28159  0.74867  1.0000
  H   H4256     1.0  0.78080  0.39283  0.94888  1.0000
  H   H4257     1.0  0.80438  0.42335  0.94001  1.0000
  H   H4258     1.0  0.82058  0.40896  0.95101  1.0000
  C   C2424     1.0  0.92971  0.38138  0.71734  1.0000
  C   C2425     1.0  0.88821  0.35446  0.70393  1.0000
  C   C2426     1.0  0.70821  0.28787  0.93297  1.0000
  H   H4259     1.0  0.74701  0.32395  0.95523  1.0000
  H   H4260     1.0  0.84279  0.40472  0.92902  1.0000
  S   S553      1.0  0.77240  0.47623  0.89127  1.0000
  H   H4261     1.0  0.91703  0.36783  0.69971  1.0000
  C   C2427     1.0  0.79426  0.41010  0.96659  1.0000
  C   C2428     1.0  0.86381  0.40844  0.73365  1.0000
  C   C2429     1.0  0.77110  0.43003  0.78378  1.0000
  H   H4262     1.0  0.82906  0.27580  0.75803  1.0000
  H   H4263     1.0  0.92046  0.37820  0.80339  1.0000
  H   H4264     1.0  0.78365  0.26605  0.78534  1.0000
  C   C2430     1.0  0.76842  0.28046  0.90408  1.0000
  H   H4265     1.0  0.75803  0.26466  0.89410  1.0000
  C   C2431     1.0  0.83278  0.26131  0.73751  1.0000
  H   H4266     1.0  0.84852  0.41058  0.89654  1.0000
  C   C2432     1.0  0.71247  0.33905  0.96751  1.0000
  H   H4267     1.0  0.85139  0.38741  0.89779  1.0000
  S   S554      1.0  0.97936  0.35419  0.79742  1.0000
  H   H4268     1.0  0.99108  0.23776  0.80973  1.0000
  C   C2433     1.0  0.70114  0.45869  0.96971  1.0000
  Fe  Fe283     1.0  0.88025  0.47869  0.73454  1.0000
  H   H4269     1.0  0.85866  0.36767  0.73535  1.0000
  H   H4270     1.0  0.70260  0.47252  0.96611  1.0000
  C   C2434     1.0  0.80281  0.24601  0.79847  1.0000
  H   H4271     1.0  0.77565  0.39271  0.82974  1.0000
  C   C2435     1.0  0.93101  0.41353  0.70500  1.0000
  H   H4272     1.0  0.82694  0.30277  0.69240  1.0000
  C   C2436     1.0  0.70853  0.39163  0.93227  1.0000
  S   S555      1.0  0.75140  0.37423  0.95236  1.0000
  H   H4273     1.0  0.81982  0.39014  0.91402  1.0000
  Fe  Fe284     1.0  0.73525  0.36629  0.87291  1.0000
  H   H4274     1.0  0.88261  0.29673  0.68028  1.0000
  C   C2437     1.0  0.84726  0.25118  0.76354  1.0000
  H   H4275     1.0  0.81396  0.44712  0.78851  1.0000
  H   H4276     1.0  0.76178  0.40553  0.84475  1.0000
  H   H4277     1.0  0.73945  0.43989  0.94453  1.0000
  C   C2438     1.0  0.77143  0.40631  0.83203  1.0000
  C   C2439     1.0  0.78671  0.24944  0.95101  1.0000
  H   H4278     1.0  0.75438  0.29732  0.94203  1.0000
  H   H4279     1.0  0.83163  0.29671  0.72993  1.0000
  H   H4280     1.0  0.93387  0.43131  0.76916  1.0000
  H   H4281     1.0  0.69416  0.35564  0.92060  1.0000
  C   C2440     1.0  0.82495  0.30676  0.70484  1.0000
  H   H4282     1.0  0.91232  0.25070  0.77055  1.0000
  C   C2441     1.0  0.82620  0.26846  0.70857  1.0000
  C   C2442     1.0  0.83954  0.26703  0.75058  1.0000
  H   H4283     1.0  0.84486  0.25334  0.73046  1.0000
  C   C2443     1.0  0.78080  0.41567  0.92735  1.0000
  H   H4284     1.0  0.82918  0.33274  0.69073  1.0000
  H   H4285     1.0  0.70360  0.29845  0.94035  1.0000
  H   H4286     1.0  0.81834  0.27786  0.69926  1.0000
  H   H4287     1.0  0.94736  0.35439  0.74438  1.0000
  H   H4288     1.0  0.72559  0.25412  0.93124  1.0000
  H   H4289     1.0  0.80479  0.30078  0.74523  1.0000
  C   C2444     1.0  0.95882  0.39856  0.76266  1.0000
  H   H4290     1.0  0.92387  0.34004  0.73938  1.0000
  H   H4291     1.0  0.79814  0.26896  0.73652  1.0000
  H   H4292     1.0  0.66942  0.32974  0.93668  1.0000
  H   H4293     1.0  0.70684  0.29377  0.91928  1.0000
  H   H4294     1.0  0.78738  0.26351  0.94683  1.0000
  C   C2445     1.0  0.72209  0.39744  0.82695  1.0000
  H   H4295     1.0  0.80686  0.25129  0.71851  1.0000
  H   H4296     1.0  0.84975  0.25581  0.77397  1.0000
  H   H4297     1.0  0.68988  0.37532  0.93863  1.0000
  H   H4298     1.0  0.85024  0.27416  0.74356  1.0000
  H   H4299     1.0  0.73493  0.47195  0.93109  1.0000
  H   H4300     1.0  0.86266  0.41795  0.75610  1.0000
  H   H4301     1.0  0.78450  0.29853  0.88705  1.0000
  C   C2446     1.0  0.86174  0.40709  0.75149  1.0000
  H   H4302     1.0  0.75821  0.46106  0.95808  1.0000
  C   C2447     1.0  0.85153  0.44045  0.80298  1.0000
  H   H4303     1.0  0.84673  0.28674  0.71338  1.0000
  H   H4304     1.0  0.70301  0.47335  0.93719  1.0000
  C   C2448     1.0  0.96295  0.45482  0.74328  1.0000
  S   S556      1.0  0.74226  0.34141  0.89237  1.0000
  H   H4305     1.0  0.79461  0.44103  0.77144  1.0000
  H   H4306     1.0  0.75194  0.24780  0.94984  1.0000
  C   C2449     1.0  0.95017  0.39885  0.80105  1.0000
  H   H4307     1.0  0.90609  0.37760  0.78277  1.0000
  H   H4308     1.0  0.76662  0.32314  0.82234  1.0000
  H   H4309     1.0  0.94129  0.28985  0.75539  1.0000
  S   S557      1.0  0.84809  0.32289  0.75003  1.0000
  H   H4310     1.0  0.78945  0.42104  0.91497  1.0000
  H   H4311     1.0  0.72502  0.46084  0.83472  1.0000
  H   H4312     1.0  0.83882  0.40951  0.96888  1.0000
  C   C2450     1.0  0.82104  0.25052  0.71202  1.0000
  H   H4313     1.0  0.84035  0.26681  0.70137  1.0000
  C   C2451     1.0  0.70612  0.45888  0.93827  1.0000
  N   N132      1.0  0.71163  0.44926  0.95529  1.0000
  C   C2452     1.0  0.91432  0.37252  0.75680  1.0000
  H   H4314     1.0  0.75760  0.42837  0.91630  1.0000
  S   S558      1.0  0.85950  0.31020  0.78823  1.0000
  C   C2453     1.0  0.85851  0.37701  0.75756  1.0000
  C   C2454     1.0  0.85957  0.37863  0.73983  1.0000
  H   H4315     1.0  0.83830  0.24327  0.68814  1.0000
  C   C2455     1.0  0.73684  0.45762  0.84044  1.0000
  H   H4316     1.0  0.82814  0.47599  0.73011  1.0000
  H   H4317     1.0  0.76682  0.40611  0.91386  1.0000
  H   H4318     1.0  0.93913  0.41310  0.71412  1.0000
  H   H4319     1.0  0.89287  0.39218  0.76786  1.0000
  C   C2456     1.0  0.83456  0.32169  0.70076  1.0000
  C   C2457     1.0  0.90620  0.37099  0.74243  1.0000
  H   H4320     1.0  0.77197  0.30896  0.93589  1.0000
  H   H4321     1.0  0.88969  0.39822  0.82741  1.0000
  C   C2458     1.0  0.82410  0.24481  0.69493  1.0000
  C   C2459     1.0  0.91261  0.24746  0.75809  1.0000
  C   C2460     1.0  0.77831  0.29704  0.75168  1.0000
  C   C2461     1.0  0.93126  0.24706  0.72807  1.0000
  H   H4322     1.0  0.84617  0.43654  0.91298  1.0000
  H   H4323     1.0  0.94992  0.32211  0.75152  1.0000
  H   H4324     1.0  0.84898  0.31713  0.69562  1.0000
  H   H4325     1.0  0.67321  0.46355  0.91592  1.0000
  C   C2462     1.0  0.76032  0.25405  0.93767  1.0000
  H   H4326     1.0  0.92297  0.38209  0.75193  1.0000
  N   N133      1.0  0.93126  0.24492  0.74709  1.0000
  H   H4327     1.0  0.87947  0.27052  0.67268  1.0000
  H   H4328     1.0  0.77709  0.42502  0.93603  1.0000
  H   H4329     1.0  0.88924  0.35219  0.73036  1.0000
  S   S559      1.0  0.86158  0.46067  0.74835  1.0000
  H   H4330     1.0  0.79968  0.40720  0.82392  1.0000
  H   H4331     1.0  0.92974  0.28041  0.72704  1.0000
  H   H4332     1.0  0.80019  0.24135  0.95189  1.0000
  N   N134      1.0  0.82365  0.27564  0.72451  1.0000
  H   H4333     1.0  0.97026  0.47088  0.83845  1.0000
  C   C2463     1.0  0.83233  0.29116  0.71875  1.0000
  H   H4334     1.0  0.95365  0.25703  0.74088  1.0000
  Fe  Fe285     1.0  0.91284  0.44900  0.73638  1.0000
  H   H4335     1.0  0.78226  0.44022  0.75651  1.0000
  N   N135      1.0  0.75366  0.25433  0.92204  1.0000
  H   H4336     1.0  0.95905  0.39913  0.84044  1.0000
  C   C2464     1.0  0.69066  0.45394  0.93419  1.0000
  H   H4337     1.0  0.98712  0.29256  0.76700  1.0000
  C   C2465     1.0  0.72753  0.27896  0.93359  1.0000
  H   H4338     1.0  0.73553  0.28904  0.92774  1.0000
  H   H4339     1.0  0.82008  0.48261  0.80163  1.0000
  C   C2466     1.0  0.75597  0.46517  0.94456  1.0000
  H   H4340     1.0  0.75878  0.26751  0.93926  1.0000
  H   H4341     1.0  0.78102  0.34388  0.95098  1.0000
  H   H4342     1.0  0.67962  0.45207  0.94565  1.0000
  H   H4343     1.0  0.77402  0.28016  0.91510  1.0000
  H   H4344     1.0  0.95809  0.35392  0.72210  1.0000
  H   H4345     1.0  0.96905  0.26255  0.79878  1.0000
  H   H4346     1.0  0.82542  0.37792  0.95606  1.0000
  H   H4347     1.0  0.72808  0.27398  0.94757  1.0000
  C   C2467     1.0  0.77881  0.32433  0.81271  1.0000
  S   S560      1.0  0.76331  0.36713  0.85936  1.0000
  H   H4348     1.0  0.92972  0.46356  0.77103  1.0000
  H   H4349     1.0  0.78723  0.43807  0.96617  1.0000
  C   C2468     1.0  0.79380  0.42561  0.97388  1.0000
  H   H4350     1.0  0.96661  0.45063  0.85337  1.0000
  C   C2469     1.0  0.92872  0.23549  0.70325  1.0000
  H   H4351     1.0  0.78034  0.26577  0.80810  1.0000
  H   H4352     1.0  0.97903  0.27788  0.80263  1.0000
  H   H4353     1.0  0.71777  0.42402  0.94861  1.0000
  H   H4354     1.0  0.87955  0.24546  0.77913  1.0000
  C   C2470     1.0  0.69159  0.34279  0.92870  1.0000
  H   H4355     1.0  0.77893  0.46535  0.78800  1.0000
  C   C2471     1.0  0.84645  0.25730  0.81776  1.0000
  S   S561      1.0  0.87596  0.23641  0.69275  1.0000
  C   C2472     1.0  0.81465  0.44889  0.81412  1.0000
  C   C2473     1.0  0.75836  0.30982  0.93464  1.0000
  C   C2474     1.0  0.80305  0.46284  0.93764  1.0000
  H   H4356     1.0  0.72287  0.31053  0.97550  1.0000
  H   H4357     1.0  0.74541  0.46709  0.83320  1.0000
  S   S562      1.0  0.87434  0.43875  0.79515  1.0000
  H   H4358     1.0  0.69619  0.42939  0.96130  1.0000
  C   C2475     1.0  0.74562  0.32530  0.94178  1.0000
  H   H4359     1.0  0.79588  0.42033  0.76649  1.0000
  H   H4360     1.0  0.75668  0.29457  0.97097  1.0000
  H   H4361     1.0  0.81198  0.25500  0.79495  1.0000
  H   H4362     1.0  0.81912  0.25792  0.81999  1.0000
  C   C2476     1.0  0.93823  0.47521  0.73215  1.0000
  H   H4363     1.0  0.84326  0.26812  0.82467  1.0000
  H   H4364     1.0  0.81530  0.34333  0.96787  1.0000
  H   H4365     1.0  0.73087  0.41644  0.97454  1.0000
  H   H4366     1.0  0.72444  0.34264  0.96861  1.0000
  H   H4367     1.0  0.71966  0.35906  0.92402  1.0000
  C   C2477     1.0  0.71001  0.43037  0.95973  1.0000
  C   C2478     1.0  0.72868  0.23562  0.79269  1.0000
  S   S563      1.0  0.73293  0.45551  0.89294  1.0000
  C   C2479     1.0  0.82226  0.44563  0.79741  1.0000
  N   N136      1.0  0.83394  0.32974  0.83510  1.0000
  C   C2480     1.0  0.83475  0.34537  0.81984  1.0000
  C   C2481     1.0  0.85190  0.31711  0.83447  1.0000
  C   C2482     1.0  0.82110  0.32021  0.83331  1.0000
  C   C2483     1.0  0.82721  0.33517  0.85240  1.0000
  C   C2484     1.0  0.83792  0.34636  0.85605  1.0000
  C   C2485     1.0  0.81778  0.36027  0.81989  1.0000
  C   C2486     1.0  0.81913  0.30286  0.84713  1.0000
  C   C2487     1.0  0.86871  0.32491  0.82681  1.0000
  C   C2488     1.0  0.88537  0.31104  0.83028  1.0000
  C   C2489     1.0  0.82843  0.35345  0.87249  1.0000
  C   C2490     1.0  0.82041  0.37522  0.80388  1.0000
  C   C2491     1.0  0.80895  0.29248  0.84204  1.0000
  H   H4368     1.0  0.83814  0.34096  0.80733  1.0000
  H   H4369     1.0  0.84549  0.35184  0.81890  1.0000
  H   H4370     1.0  0.85287  0.30894  0.84776  1.0000
  H   H4371     1.0  0.85349  0.30756  0.82636  1.0000
  H   H4372     1.0  0.82503  0.31713  0.82009  1.0000
  H   H4373     1.0  0.80752  0.32865  0.83415  1.0000
  H   H4374     1.0  0.81305  0.34227  0.85387  1.0000
  H   H4375     1.0  0.82712  0.32343  0.86341  1.0000
  H   H4376     1.0  0.84004  0.35777  0.84511  1.0000
  H   H4377     1.0  0.85095  0.33810  0.85830  1.0000
  H   H4378     1.0  0.80626  0.35552  0.81972  1.0000
  H   H4379     1.0  0.81446  0.36593  0.83156  1.0000
  H   H4380     1.0  0.81173  0.30581  0.86003  1.0000
  H   H4381     1.0  0.83214  0.29409  0.84869  1.0000
  H   H4382     1.0  0.87036  0.32969  0.81241  1.0000
  H   H4383     1.0  0.86805  0.33607  0.83237  1.0000
  H   H4384     1.0  0.88449  0.30587  0.84453  1.0000
  H   H4385     1.0  0.88728  0.30001  0.82394  1.0000
  H   H4386     1.0  0.89717  0.31697  0.82483  1.0000
  H   H4387     1.0  0.83623  0.36169  0.87457  1.0000
  H   H4388     1.0  0.81507  0.36164  0.87121  1.0000
  H   H4389     1.0  0.82703  0.34246  0.88413  1.0000
  H   H4390     1.0  0.83190  0.38053  0.80331  1.0000
  H   H4391     1.0  0.82257  0.37063  0.79173  1.0000
  H   H4392     1.0  0.80843  0.38592  0.80455  1.0000
  H   H4393     1.0  0.79525  0.30004  0.84153  1.0000
  H   H4394     1.0  0.81566  0.28943  0.82905  1.0000
  H   H4395     1.0  0.80823  0.27993  0.85181  1.0000
  C   C2492     1.0  0.80401  0.28074  0.73189  1.0000
  H   H4396     1.0  0.78187  0.40402  0.86293  1.0000
  C   C2493     1.0  0.83410  0.44383  0.91988  1.0000
  H   H4397     1.0  0.75617  0.42273  0.88388  1.0000
  H   H4398     1.0  0.93516  0.34385  0.71705  1.0000
  H   H4399     1.0  0.89588  0.38310  0.73964  1.0000
  C   C2494     1.0  0.73357  0.40749  0.83067  1.0000
  C   C2495     1.0  0.74260  0.42262  0.88468  1.0000
  C   C2496     1.0  0.86214  0.39442  0.72786  1.0000
  C   C2497     1.0  0.74929  0.41056  0.81497  1.0000
  H   H4400     1.0  0.74306  0.41901  0.80405  1.0000
  H   H4401     1.0  0.74424  0.44344  0.81315  1.0000
  H   H4402     1.0  0.73010  0.38456  0.82421  1.0000
  H   H4403     1.0  0.87818  0.36705  0.70298  1.0000
  H   H4404     1.0  0.73499  0.44406  0.96575  1.0000
  H   H4405     1.0  0.79530  0.38605  0.85282  1.0000
  H   H4406     1.0  0.95406  0.28894  0.73350  1.0000
  N   N137      1.0  0.76296  0.41856  0.81749  1.0000
  C   C2498     1.0  0.70742  0.42192  0.88736  1.0000
  H   H4407     1.0  0.69377  0.42175  0.88844  1.0000
  H   H4408     1.0  0.75586  0.39772  0.81116  1.0000
  C   C2499     1.0  0.91886  0.40056  0.71313  1.0000
  H   H4409     1.0  0.88813  0.39262  0.80808  1.0000
  H   H4410     1.0  0.72012  0.39250  0.93654  1.0000
  H   H4411     1.0  0.67086  0.34477  0.91566  1.0000
  H   H4412     1.0  0.97369  0.39058  0.73858  1.0000
  C   C2500     1.0  0.94043  0.29124  0.74174  1.0000
  C   C2501     1.0  0.72895  0.43693  0.88882  1.0000
  C   C2502     1.0  0.75516  0.23548  0.92167  1.0000
  Fe  Fe286     1.0  0.79701  0.45822  0.88009  1.0000
  C   C2503     1.0  0.77725  0.41957  0.80090  1.0000
  H   H4413     1.0  0.78754  0.42573  0.80194  1.0000
  H   H4414     1.0  0.72892  0.35973  0.94088  1.0000
  C   C2504     1.0  0.73097  0.44910  0.95297  1.0000
  H   H4415     1.0  0.72642  0.32795  0.92725  1.0000
  C   C2505     1.0  0.68304  0.46810  0.91977  1.0000
  H   H4416     1.0  0.93880  0.37844  0.70494  1.0000
  C   C2506     1.0  0.91518  0.38842  0.81115  1.0000
  S   S564      1.0  0.89678  0.46137  0.71601  1.0000
  C   C2507     1.0  0.78696  0.43307  0.76868  1.0000
  H   H4417     1.0  0.82681  0.33392  0.94919  1.0000
  H   H4418     1.0  0.81963  0.44811  0.83892  1.0000
  C   C2508     1.0  0.81826  0.45721  0.94451  1.0000
  H   H4419     1.0  0.94564  0.45749  0.78477  1.0000
  Fe  Fe287     1.0  0.88079  0.44802  0.76601  1.0000
  H   H4420     1.0  0.66307  0.35327  0.93524  1.0000
  H   H4421     1.0  0.76455  0.45537  0.93693  1.0000
  C   C2509     1.0  0.78201  0.28565  0.88744  1.0000
  N   N138      1.0  0.71249  0.34079  0.94861  1.0000
  H   H4422     1.0  0.81586  0.25456  0.68618  1.0000
  C   C2510     1.0  0.77984  0.24430  0.93791  1.0000
  H   H4423     1.0  0.82533  0.48227  0.75861  1.0000
  H   H4424     1.0  0.67633  0.48039  0.92446  1.0000
  H   H4425     1.0  0.68384  0.34860  0.95462  1.0000
  H   H4426     1.0  0.76247  0.47675  0.77528  1.0000
  H   H4427     1.0  0.69911  0.37491  0.95646  1.0000
  H   H4428     1.0  0.77787  0.24724  0.96416  1.0000
  C   C2511     1.0  0.82480  0.34527  0.95509  1.0000
  C   C2512     1.0  0.97669  0.26437  0.80728  1.0000
  C   C2513     1.0  0.98741  0.26944  0.75869  1.0000
  C   C2514     1.0  0.77150  0.47851  0.78241  1.0000
  H   H4429     1.0  0.76851  0.23935  0.88388  1.0000
  S   S565      1.0  0.80269  0.47707  0.85448  1.0000
  H   H4430     1.0  0.91731  0.24655  0.70080  1.0000
  H   H4431     1.0  0.75978  0.47796  0.93836  1.0000
  H   H4432     1.0  0.79813  0.24145  0.82671  1.0000
  H   H4433     1.0  0.99241  0.42707  0.86045  1.0000
  H   H4434     1.0  0.72858  0.47714  0.95226  1.0000
  H   H4435     1.0  0.82857  0.24317  0.83769  1.0000
  H   H4436     1.0  0.70106  0.34858  0.97335  1.0000
  C   C2515     1.0  0.68098  0.45958  0.97504  1.0000
  H   H4437     1.0  0.92736  0.47797  0.72575  1.0000
  H   H4438     1.0  0.59901  0.24759  0.95572  1.0000
  H   H4439     1.0  0.71809  0.39379  0.97008  1.0000
  H   H4440     1.0  0.84903  0.48036  0.80709  1.0000
  H   H4441     1.0  0.83731  0.48058  0.78218  1.0000
  H   H4442     1.0  0.72945  0.24454  0.77955  1.0000
  H   H4443     1.0  0.79235  0.48191  0.75982  1.0000
  H   H4444     1.0  0.58055  0.23812  0.96902  1.0000
  C   C2516     1.0  0.84006  0.48325  0.87944  1.0000
  H   H4445     1.0  0.89590  0.23409  0.75170  1.0000
  H   H4446     1.0  0.71749  0.24193  0.80204  1.0000
  H   H4447     1.0  0.74112  0.23376  0.79701  1.0000
  C   C2517     1.0  0.99428  0.25092  0.80605  1.0000
  C   C2518     1.0  0.99442  0.45205  0.84325  1.0000
  C   C2519     1.0  0.93854  0.62112  0.20921  1.0000
  H   H4448     1.0  0.66262  0.66695  0.00926  1.0000
  C   C2520     1.0  0.95983  0.68588  0.06653  1.0000
  H   H4449     1.0  0.98545  0.67296  0.03988  1.0000
  N   N139      1.0  0.76133  0.60397  0.11387  1.0000
  C   C2521     1.0  0.92938  0.55277  0.13013  1.0000
  C   C2522     1.0  0.98536  0.69851  0.10144  1.0000
  H   H4450     1.0  0.93196  0.64648  0.18148  1.0000
  H   H4451     1.0  0.64970  0.68572  0.98376  1.0000
  Fe  Fe288     1.0  0.97453  0.51940  0.07761  1.0000
  H   H4452     1.0  0.93370  0.68289  0.18192  1.0000
  C   C2523     1.0  0.56898  0.65871  0.98675  1.0000
  H   H4453     1.0  0.95699  0.69385  0.23101  1.0000
  H   H4454     1.0  0.93415  0.69929  0.15123  1.0000
  H   H4455     1.0  0.76232  0.72630  0.03990  1.0000
  S   S566      1.0  0.96053  0.63293  0.15832  1.0000
  H   H4456     1.0  0.94856  0.71643  0.24816  1.0000
  H   H4457     1.0  0.74868  0.61803  0.13467  1.0000
  H   H4458     1.0  0.83357  0.59775  0.06940  1.0000
  H   H4459     1.0  0.91388  0.60049  0.14619  1.0000
  N   N140      1.0  0.97934  0.67814  0.06586  1.0000
  C   C2524     1.0  0.55815  0.70395  0.01121  1.0000
  H   H4460     1.0  0.71197  0.72296  0.03825  1.0000
  C   C2525     1.0  0.94461  0.68882  0.23696  1.0000
  Fe  Fe289     1.0  0.75782  0.64514  0.99478  1.0000
  S   S567      1.0  0.73305  0.63704  0.01205  1.0000
  H   H4461     1.0  0.92973  0.70014  0.05197  1.0000
  Fe  Fe290     1.0  0.77726  0.63407  0.02467  1.0000
  S   S568      1.0  0.75414  0.62496  0.04402  1.0000
  S   S569      1.0  0.80300  0.63017  0.03276  1.0000
  Fe  Fe291     1.0  0.75191  0.61313  0.02322  1.0000
  S   S570      1.0  0.74813  0.58534  0.03078  1.0000
  Fe  Fe292     1.0  0.73786  0.64969  0.03084  1.0000
  S   S571      1.0  0.71633  0.66667  0.04688  1.0000
  S   S572      1.0  0.77637  0.62035  0.00471  1.0000
  S   S573      1.0  0.76118  0.65981  0.01278  1.0000
  H   H4462     1.0  0.88270  0.72175  0.25800  1.0000
  Fe  Fe293     1.0  0.84925  0.61682  0.13166  1.0000
  S   S574      1.0  0.85071  0.62939  0.10333  1.0000
  S   S575      1.0  0.85823  0.58723  0.13855  1.0000
  Fe  Fe294     1.0  0.83793  0.65237  0.14234  1.0000
  S   S576      1.0  0.83848  0.66769  0.11466  1.0000
  H   H4463     1.0  0.96124  0.53319  0.11410  1.0000
  Fe  Fe295     1.0  0.82519  0.64769  0.11225  1.0000
  S   S577      1.0  0.80068  0.65467  0.10084  1.0000
  Fe  Fe296     1.0  0.86385  0.64789  0.10829  1.0000
  S   S578      1.0  0.88975  0.65223  0.09019  1.0000
  S   S579      1.0  0.82270  0.63374  0.14054  1.0000
  S   S580      1.0  0.86422  0.63405  0.13610  1.0000
  S   S581      1.0  0.93788  0.67340  0.12653  1.0000
  C   C2526     1.0  0.90300  0.65721  0.10111  1.0000
  C   C2527     1.0  0.89578  0.66990  0.11117  1.0000
  C   C2528     1.0  0.90665  0.67477  0.11888  1.0000
  C   C2529     1.0  0.92459  0.66640  0.11726  1.0000
  C   C2530     1.0  0.93171  0.65317  0.10779  1.0000
  C   C2531     1.0  0.92099  0.64887  0.09937  1.0000
  H   H4464     1.0  0.88190  0.67637  0.11254  1.0000
  H   H4465     1.0  0.90109  0.68499  0.12621  1.0000
  H   H4466     1.0  0.94548  0.64653  0.10667  1.0000
  H   H4467     1.0  0.92656  0.63899  0.09163  1.0000
  S   S582      1.0  0.98808  0.71514  0.23463  1.0000
  H   H4468     1.0  0.80515  0.58811  0.01480  1.0000
  C   C2532     1.0  0.98934  0.65854  0.19597  1.0000
  H   H4469     1.0  0.74207  0.72971  0.05512  1.0000
  C   C2533     1.0  0.72436  0.63127  0.08845  1.0000
  C   C2534     1.0  0.94263  0.53703  0.13860  1.0000
  C   C2535     1.0  0.80211  0.63723  0.05160  1.0000
  C   C2536     1.0  0.78600  0.64484  0.06146  1.0000
  C   C2537     1.0  0.78576  0.65025  0.07647  1.0000
  C   C2538     1.0  0.80154  0.64781  0.08188  1.0000
  C   C2539     1.0  0.81759  0.64010  0.07207  1.0000
  C   C2540     1.0  0.81787  0.63495  0.05693  1.0000
  H   H4470     1.0  0.77378  0.64661  0.05747  1.0000
  H   H4471     1.0  0.77331  0.65617  0.08402  1.0000
  H   H4472     1.0  0.82983  0.63830  0.07601  1.0000
  H   H4473     1.0  0.83036  0.62914  0.04933  1.0000
  C   C2541     1.0  0.95714  0.60003  0.10576  1.0000
  S   S583      1.0  0.88296  0.71748  0.22176  1.0000
  H   H4474     1.0  0.97761  0.55806  0.10252  1.0000
  H   H4475     1.0  0.77439  0.64125  0.13231  1.0000
  H   H4476     1.0  0.99394  0.65568  0.08171  1.0000
  H   H4477     1.0  0.89724  0.56385  0.16581  1.0000
  C   C2542     1.0  0.85561  0.59212  0.08211  1.0000
  H   H4478     1.0  0.91449  0.63711  0.22052  1.0000
  C   C2543     1.0  0.96176  0.48634  0.04169  1.0000
  H   H4479     1.0  0.92140  0.54775  0.12427  1.0000
  C   C2544     1.0  0.68723  0.71579  0.01410  1.0000
  C   C2545     1.0  0.70219  0.70485  0.00600  1.0000
  C   C2546     1.0  0.71104  0.68958  0.01593  1.0000
  C   C2547     1.0  0.70512  0.68535  0.03408  1.0000
  C   C2548     1.0  0.69042  0.69647  0.04224  1.0000
  C   C2549     1.0  0.68148  0.71164  0.03226  1.0000
  H   H4480     1.0  0.72247  0.68112  0.00954  1.0000
  H   H4481     1.0  0.68591  0.69335  0.05630  1.0000
  H   H4482     1.0  0.67039  0.72029  0.03871  1.0000
  H   H4483     1.0  0.90072  0.48948  0.04108  1.0000
  C   C2550     1.0  0.93263  0.66815  0.26381  1.0000
  H   H4484     1.0  0.91650  0.70063  0.23552  1.0000
  Fe  Fe297     1.0  0.83109  0.50584  0.08012  1.0000
  S   S584      1.0  0.63379  0.73064  0.04016  1.0000
  C   C2551     1.0  0.92064  0.63363  0.20763  1.0000
  C   C2552     1.0  0.98207  0.62759  0.07718  1.0000
  H   H4485     1.0  0.84189  0.73059  0.28655  1.0000
  H   H4486     1.0  0.81511  0.60593  0.98541  1.0000
  H   H4487     1.0  0.80512  0.68345  0.01436  1.0000
  H   H4488     1.0  0.89914  0.63419  0.14907  1.0000
  C   C2553     1.0  0.79455  0.59365  0.07103  1.0000
  C   C2554     1.0  0.74408  0.60928  0.10788  1.0000
  N   N141      1.0  0.94219  0.68307  0.25659  1.0000
  H   H4489     1.0  0.86331  0.66147  0.24273  1.0000
  C   C2555     1.0  0.76559  0.55282  0.98889  1.0000
  C   C2556     1.0  0.76013  0.54508  0.00651  1.0000
  C   C2557     1.0  0.75480  0.55522  0.01920  1.0000
  C   C2558     1.0  0.75500  0.57313  0.01440  1.0000
  C   C2559     1.0  0.76082  0.58084  0.99681  1.0000
  H   H4490     1.0  0.77776  0.48623  0.07102  1.0000
  H   H4491     1.0  0.75986  0.53131  0.01040  1.0000
  H   H4492     1.0  0.75044  0.54916  0.03279  1.0000
  H   H4493     1.0  0.76099  0.59466  0.99297  1.0000
  H   H4494     1.0  0.52900  0.68815  0.07364  1.0000
  C   C2560     1.0  0.81631  0.57777  0.99130  1.0000
  H   H4495     1.0  0.93757  0.56031  0.11874  1.0000
  C   C2561     1.0  0.91286  0.58992  0.11517  1.0000
  H   H4496     1.0  0.89096  0.65942  0.26993  1.0000
  H   H4497     1.0  0.77336  0.55037  0.13903  1.0000
  H   H4498     1.0  0.82210  0.71848  0.17043  1.0000
  C   C2562     1.0  0.89191  0.59973  0.06441  1.0000
  H   H4499     1.0  0.91631  0.59336  0.07404  1.0000
  H   H4500     1.0  0.74937  0.55542  0.14320  1.0000
  C   C2563     1.0  0.76175  0.55387  0.13294  1.0000
  H   H4501     1.0  0.96575  0.72527  0.16539  1.0000
  H   H4502     1.0  0.76886  0.61078  0.07439  1.0000
  H   H4503     1.0  0.89042  0.62654  0.17206  1.0000
  H   H4504     1.0  0.90294  0.59728  0.03073  1.0000
  H   H4505     1.0  0.88302  0.66428  0.18036  1.0000
  C   C2564     1.0  0.81277  0.59614  0.97966  1.0000
  H   H4506     1.0  0.55237  0.73223  0.00556  1.0000
  C   C2565     1.0  0.77061  0.72636  0.06914  1.0000
  H   H4507     1.0  0.83051  0.57417  0.99180  1.0000
  H   H4508     1.0  0.98719  0.71157  0.09322  1.0000
  C   C2566     1.0  0.97575  0.69016  0.09333  1.0000
  C   C2567     1.0  0.98585  0.68865  0.07444  1.0000
  S   S585      1.0  0.99042  0.72580  0.27762  1.0000
  H   H4509     1.0  0.96289  0.51439  0.13199  1.0000
  S   S586      1.0  0.80705  0.51084  0.10150  1.0000
  S   S587      1.0  0.97841  0.49265  0.09564  1.0000
  H   H4510     1.0  0.95642  0.67661  0.04494  1.0000
  H   H4511     1.0  0.87197  0.48638  0.06260  1.0000
  H   H4512     1.0  0.89639  0.52463  0.18066  1.0000
  H   H4513     1.0  0.91793  0.58235  0.10475  1.0000
  H   H4514     1.0  0.87966  0.64736  0.16020  1.0000
  S   S588      1.0  0.88540  0.48848  0.10353  1.0000
  C   C2568     1.0  0.97634  0.58696  0.12630  1.0000
  S   S589      1.0  0.98282  0.63692  0.11781  1.0000
  H   H4515     1.0  0.60979  0.71450  0.99151  1.0000
  C   C2569     1.0  0.91820  0.52132  0.05825  1.0000
  H   H4516     1.0  0.99023  0.56015  0.12618  1.0000
  H   H4517     1.0  0.98601  0.69430  0.04002  1.0000
  S   S590      1.0  0.97711  0.52062  0.04939  1.0000
  S   S591      1.0  0.49847  0.72745  0.98852  1.0000
  C   C2570     1.0  0.90149  0.52042  0.05717  1.0000
  C   C2571     1.0  0.90452  0.57824  0.13222  1.0000
  C   C2572     1.0  0.92956  0.72922  0.26751  1.0000
  H   H4518     1.0  0.79959  0.71817  0.17408  1.0000
  S   S592      1.0  0.98520  0.58850  0.14300  1.0000
  C   C2573     1.0  0.89328  0.57026  0.08326  1.0000
  H   H4519     1.0  0.92388  0.60587  0.16983  1.0000
  H   H4520     1.0  0.79061  0.71384  0.20236  1.0000
  H   H4521     1.0  0.91158  0.62563  0.04379  1.0000
  H   H4522     1.0  0.97632  0.51520  0.01642  1.0000
  H   H4523     1.0  0.68305  0.68277  0.98559  1.0000
  H   H4524     1.0  0.95212  0.54175  0.14279  1.0000
  H   H4525     1.0  0.83018  0.52580  0.01481  1.0000
  H   H4526     1.0  0.81604  0.71977  0.12641  1.0000
  H   H4527     1.0  0.87873  0.50932  0.06992  1.0000
  H   H4528     1.0  0.80427  0.58438  0.12455  1.0000
  H   H4529     1.0  0.72828  0.62286  0.07879  1.0000
  H   H4530     1.0  0.83050  0.70982  0.14142  1.0000
  H   H4531     1.0  0.91265  0.71294  0.15826  1.0000
  H   H4532     1.0  0.72117  0.64517  0.08140  1.0000
  H   H4533     1.0  0.88659  0.55057  0.14762  1.0000
  H   H4534     1.0  0.83507  0.57779  0.08624  1.0000
  H   H4535     1.0  0.88750  0.60269  0.10774  1.0000
  H   H4536     1.0  0.93656  0.60939  0.21985  1.0000
  C   C2574     1.0  0.81737  0.57750  0.12606  1.0000
  N   N142      1.0  0.88829  0.58193  0.06661  1.0000
  H   H4537     1.0  0.71225  0.62816  0.09810  1.0000
  S   S593      1.0  0.98134  0.66526  0.14016  1.0000
  H   H4538     1.0  0.73475  0.63750  0.10675  1.0000
  H   H4539     1.0  0.57306  0.65585  0.99934  1.0000
  H   H4540     1.0  0.95230  0.68512  0.08031  1.0000
  H   H4541     1.0  0.80281  0.60307  0.06937  1.0000
  H   H4542     1.0  0.89544  0.61499  0.11824  1.0000
  H   H4543     1.0  0.75101  0.63245  0.08769  1.0000
  H   H4544     1.0  0.87722  0.54279  0.17985  1.0000
  H   H4545     1.0  0.77826  0.60128  0.14226  1.0000
  C   C2575     1.0  0.81655  0.71595  0.14045  1.0000
  C   C2576     1.0  0.85115  0.55940  0.13084  1.0000
  H   H4546     1.0  0.93155  0.71353  0.16561  1.0000
  H   H4547     1.0  0.90381  0.65466  0.28609  1.0000
  H   H4548     1.0  0.90557  0.61350  0.09612  1.0000
  H   H4549     1.0  0.86610  0.57125  0.06772  1.0000
  C   C2577     1.0  0.76224  0.58617  0.12626  1.0000
  C   C2578     1.0  0.76089  0.61708  0.12405  1.0000
  H   H4550     1.0  0.78121  0.61671  0.09453  1.0000
  H   H4551     1.0  0.51923  0.68226  0.97607  1.0000
  H   H4552     1.0  0.70689  0.70815  0.99202  1.0000
  H   H4553     1.0  0.82671  0.67746  0.19606  1.0000
  C   C2579     1.0  0.74094  0.71506  0.02902  1.0000
  H   H4554     1.0  0.90561  0.53256  0.14815  1.0000
  H   H4555     1.0  0.91247  0.62634  0.20472  1.0000
  N   N143      1.0  0.91751  0.56467  0.14197  1.0000
  H   H4556     1.0  0.76288  0.62891  0.15227  1.0000
  H   H4557     1.0  0.87511  0.69936  0.14979  1.0000
  H   H4558     1.0  0.92384  0.59447  0.11681  1.0000
  H   H4559     1.0  0.97446  0.67706  0.10176  1.0000
  H   H4560     1.0  0.91921  0.70383  0.26252  1.0000
  H   H4561     1.0  0.94734  0.62766  0.21229  1.0000
  H   H4562     1.0  0.92360  0.72650  0.28175  1.0000
  H   H4563     1.0  0.95868  0.49121  0.05384  1.0000
  C   C2580     1.0  0.89797  0.50102  0.08597  1.0000
  H   H4564     1.0  0.96839  0.62954  0.08524  1.0000
  H   H4565     1.0  0.93398  0.69302  0.20665  1.0000
  Fe  Fe298     1.0  0.96204  0.65405  0.13395  1.0000
  Fe  Fe299     1.0  0.51573  0.72057  0.00759  1.0000
  H   H4566     1.0  0.91327  0.56887  0.05233  1.0000
  H   H4567     1.0  0.88447  0.58888  0.03089  1.0000
  H   H4568     1.0  0.59123  0.67734  0.03082  1.0000
  C   C2581     1.0  0.91166  0.60013  0.06179  1.0000
  H   H4569     1.0  0.72633  0.48637  0.08695  1.0000
  H   H4570     1.0  0.86546  0.59282  0.05492  1.0000
  C   C2582     1.0  0.92979  0.70346  0.22959  1.0000
  H   H4571     1.0  0.92801  0.61887  0.05692  1.0000
  H   H4572     1.0  0.91227  0.69655  0.18894  1.0000
  H   H4573     1.0  0.89102  0.64355  0.19293  1.0000
  C   C2583     1.0  0.80247  0.49441  0.06327  1.0000
  C   C2584     1.0  0.89938  0.60621  0.10897  1.0000
  H   H4574     1.0  0.90679  0.65871  0.15451  1.0000
  H   H4575     1.0  0.56300  0.72728  0.05397  1.0000
  C   C2585     1.0  0.95016  0.67687  0.05882  1.0000
  H   H4576     1.0  0.92374  0.68668  0.07360  1.0000
  S   S594      1.0  0.60329  0.70573  0.03360  1.0000
  Fe  Fe300     1.0  0.86328  0.72269  0.20498  1.0000
  C   C2586     1.0  0.89265  0.63835  0.16162  1.0000
  C   C2587     1.0  0.82794  0.58578  0.13062  1.0000
  N   N144      1.0  0.90640  0.66308  0.18895  1.0000
  C   C2588     1.0  0.78969  0.48710  0.06100  1.0000
  C   C2589     1.0  0.90977  0.57540  0.01878  1.0000
  H   H4577     1.0  0.93570  0.52858  0.15012  1.0000
  Fe  Fe301     1.0  0.82115  0.48647  0.11752  1.0000
  H   H4578     1.0  0.93944  0.57752  0.13626  1.0000
  H   H4579     1.0  0.64015  0.67862  0.01622  1.0000
  C   C2590     1.0  0.89546  0.65464  0.18277  1.0000
  S   S595      1.0  0.86467  0.69327  0.26937  1.0000
  C   C2591     1.0  0.87198  0.70404  0.28110  1.0000
  H   H4580     1.0  0.88644  0.60934  0.05346  1.0000
  H   H4581     1.0  0.93976  0.65691  0.25749  1.0000
  C   C2592     1.0  0.83672  0.59157  0.08244  1.0000
  H   H4582     1.0  0.82718  0.59895  0.09203  1.0000
  C   C2593     1.0  0.90466  0.65660  0.27189  1.0000
  H   H4583     1.0  0.86851  0.68237  0.23105  1.0000
  H   H4584     1.0  0.78944  0.61362  0.12208  1.0000
  C   C2594     1.0  0.93238  0.69783  0.26581  1.0000
  S   S596      1.0  0.94744  0.53722  0.08123  1.0000
  C   C2595     1.0  0.87401  0.66802  0.23405  1.0000
  C   C2596     1.0  0.58572  0.70558  0.02501  1.0000
  Fe  Fe302     1.0  0.96175  0.55909  0.07299  1.0000
  H   H4585     1.0  0.86974  0.66350  0.21107  1.0000
  H   H4586     1.0  0.84274  0.69652  0.20168  1.0000
  C   C2597     1.0  0.92506  0.70487  0.16231  1.0000
  H   H4587     1.0  0.89305  0.54740  0.11529  1.0000
  H   H4588     1.0  0.92203  0.71556  0.20475  1.0000
  S   S597      1.0  0.93005  0.53537  0.04181  1.0000
  C   C2598     1.0  0.88690  0.53317  0.17255  1.0000
  C   C2599     1.0  0.84196  0.67731  0.16981  1.0000
  H   H4589     1.0  0.89481  0.56142  0.05227  1.0000
  H   H4590     1.0  0.79021  0.66874  0.02331  1.0000
  H   H4591     1.0  0.94242  0.59904  0.15307  1.0000
  H   H4592     1.0  0.88477  0.60525  0.07614  1.0000
  C   C2600     1.0  0.96432  0.60128  0.11898  1.0000
  C   C2601     1.0  0.98945  0.68035  0.04709  1.0000
  C   C2602     1.0  0.89908  0.57353  0.05152  1.0000
  H   H4593     1.0  0.78342  0.70611  0.02870  1.0000
  C   C2603     1.0  0.77700  0.61378  0.13232  1.0000
  C   C2604     1.0  0.56920  0.68855  0.01824  1.0000
  S   S598      1.0  0.95230  0.58358  0.08335  1.0000
  H   H4594     1.0  0.55421  0.71813  0.07590  1.0000
  H   H4595     1.0  0.94560  0.71019  0.20326  1.0000
  H   H4596     1.0  0.91221  0.64432  0.26750  1.0000
  H   H4597     1.0  0.97741  0.70031  0.11457  1.0000
  C   C2605     1.0  0.80906  0.72699  0.16835  1.0000
  C   C2606     1.0  0.89547  0.54056  0.10460  1.0000
  H   H4598     1.0  0.86410  0.55225  0.13297  1.0000
  C   C2607     1.0  0.98223  0.65921  0.07572  1.0000
  H   H4599     1.0  0.83203  0.49190  0.02475  1.0000
  C   C2608     1.0  0.56078  0.72029  0.01117  1.0000
  H   H4600     1.0  0.89070  0.54547  0.07902  1.0000
  Fe  Fe303     1.0  0.98831  0.54421  0.04433  1.0000
  H   H4601     1.0  0.92389  0.57203  0.01968  1.0000
  H   H4602     1.0  0.90865  0.58386  0.00568  1.0000
  N   N145      1.0  0.80754  0.55989  0.02297  1.0000
  C   C2609     1.0  0.79302  0.56201  0.03909  1.0000
  C   C2610     1.0  0.80428  0.57704  0.00982  1.0000
  C   C2611     1.0  0.80509  0.54532  0.01628  1.0000
  C   C2612     1.0  0.82557  0.55599  0.02707  1.0000
  C   C2613     1.0  0.82920  0.57023  0.03403  1.0000
  C   C2614     1.0  0.79556  0.54800  0.05612  1.0000
  H   H4603     1.0  0.99361  0.50333  0.99046  1.0000
  H   H4604     1.0  0.98545  0.70228  0.06643  1.0000
  H   H4605     1.0  0.89621  0.52782  0.04580  1.0000
  C   C2615     1.0  0.84630  0.56364  0.04079  1.0000
  C   C2616     1.0  0.77853  0.54950  0.07030  1.0000
  H   H4606     1.0  0.98504  0.60134  0.99497  1.0000
  H   H4607     1.0  0.78018  0.56193  0.03652  1.0000
  H   H4608     1.0  0.79074  0.57511  0.04203  1.0000
  H   H4609     1.0  0.52900  0.68782  0.05167  1.0000
  C   C2617     1.0  0.65394  0.68015  0.00990  1.0000
  H   H4610     1.0  0.79477  0.55057  0.00831  1.0000
  H   H4611     1.0  0.79949  0.53522  0.02710  1.0000
  H   H4612     1.0  0.82777  0.54321  0.03655  1.0000
  H   H4613     1.0  0.83633  0.55415  0.01542  1.0000
  H   H4614     1.0  0.81835  0.57419  0.04487  1.0000
  H   H4615     1.0  0.83066  0.58210  0.02342  1.0000
  H   H4616     1.0  0.79929  0.53448  0.05394  1.0000
  H   H4617     1.0  0.80615  0.54980  0.06129  1.0000
  C   C2618     1.0  0.90715  0.55460  0.15819  1.0000
  Fe  Fe304     1.0  0.98330  0.61667  0.14282  1.0000
  C   C2619     1.0  0.98343  0.52354  0.00497  1.0000
  H   H4618     1.0  0.96933  0.68032  0.20389  1.0000
  Fe  Fe305     1.0  0.77016  0.51200  0.98319  1.0000
  H   H4619     1.0  0.98807  0.53289  0.00937  1.0000
  H   H4620     1.0  0.88962  0.52876  0.10983  1.0000
  H   H4621     1.0  0.84869  0.57427  0.04529  1.0000
  H   H4622     1.0  0.84520  0.55219  0.05199  1.0000
  H   H4623     1.0  0.85778  0.55978  0.03028  1.0000
  H   H4624     1.0  0.76776  0.54673  0.06615  1.0000
  H   H4625     1.0  0.78081  0.53984  0.08254  1.0000
  H   H4626     1.0  0.77427  0.56286  0.07300  1.0000
  H   H4627     1.0  0.92398  0.67949  0.05465  1.0000
  H   H4628     1.0  0.93849  0.51100  0.07320  1.0000
  H   H4629     1.0  0.83013  0.54330  0.99580  1.0000
  H   H4630     1.0  0.85849  0.58513  0.09509  1.0000
  H   H4631     1.0  0.92951  0.71630  0.23205  1.0000
  H   H4632     1.0  0.70913  0.59208  0.98894  1.0000
  H   H4633     1.0  0.77697  0.72108  0.08055  1.0000
  Fe  Fe306     1.0  0.98118  0.64316  0.16376  1.0000
  H   H4634     1.0  0.91726  0.63833  0.16698  1.0000
  H   H4635     1.0  0.76237  0.54287  0.12708  1.0000
  S   S599      1.0  0.54208  0.70229  0.00145  1.0000
  C   C2620     1.0  0.82184  0.53482  0.00574  1.0000
  H   H4636     1.0  0.59204  0.67890  0.98504  1.0000
  H   H4637     1.0  0.93638  0.56331  0.15693  1.0000
  H   H4638     1.0  0.91334  0.67363  0.24758  1.0000
  S   S600      1.0  0.83507  0.50092  0.12735  1.0000
  H   H4639     1.0  0.90506  0.62660  0.06656  1.0000
  N   N146      1.0  0.74763  0.70600  0.04559  1.0000
  C   C2621     1.0  0.76267  0.69075  0.04147  1.0000
  C   C2622     1.0  0.73251  0.69950  0.05938  1.0000
  H   H4640     1.0  0.98423  0.59581  0.05407  1.0000
  C   C2623     1.0  0.73729  0.68298  0.07377  1.0000
  C   C2624     1.0  0.72103  0.68033  0.08846  1.0000
  C   C2625     1.0  0.79422  0.67981  0.02548  1.0000
  H   H4641     1.0  0.75761  0.68117  0.03779  1.0000
  H   H4642     1.0  0.76804  0.68316  0.05314  1.0000
  H   H4643     1.0  0.58148  0.71854  0.08469  1.0000
  H   H4644     1.0  0.72379  0.69583  0.05324  1.0000
  H   H4645     1.0  0.77426  0.70085  0.06465  1.0000
  H   H4646     1.0  0.73881  0.70518  0.02312  1.0000
  H   H4647     1.0  0.74205  0.67110  0.06811  1.0000
  H   H4648     1.0  0.74781  0.68371  0.07960  1.0000
  H   H4649     1.0  0.71048  0.67842  0.08329  1.0000
  H   H4650     1.0  0.72471  0.66854  0.09863  1.0000
  H   H4651     1.0  0.71579  0.69183  0.09465  1.0000
  H   H4652     1.0  0.93694  0.58377  0.17355  1.0000
  C   C2626     1.0  0.99383  0.71338  0.15944  1.0000
  C   C2627     1.0  0.80987  0.73217  0.14840  1.0000
  C   C2628     1.0  0.94222  0.71281  0.26219  1.0000
  H   H4653     1.0  0.90996  0.53614  0.09988  1.0000
  H   H4654     1.0  0.72764  0.57547  0.99572  1.0000
  Fe  Fe307     1.0  0.95090  0.53931  0.05262  1.0000
  S   S601      1.0  0.84536  0.52237  0.08649  1.0000
  C   C2629     1.0  0.86895  0.58405  0.06717  1.0000
  H   H4655     1.0  0.77463  0.58192  0.13118  1.0000
  S   S602      1.0  0.83289  0.50689  0.05204  1.0000
  H   H4656     1.0  0.85596  0.60611  0.07996  1.0000
  H   H4657     1.0  0.88789  0.68432  0.19999  1.0000
  H   H4658     1.0  0.96017  0.61320  0.12380  1.0000
  H   H4659     1.0  0.51124  0.73087  0.06681  1.0000
  C   C2630     1.0  0.79657  0.71477  0.22594  1.0000
  H   H4660     1.0  0.86291  0.68833  0.30644  1.0000
  H   H4661     1.0  0.90795  0.56700  0.08170  1.0000
  S   S603      1.0  0.81032  0.55137  0.11611  1.0000
  S   S604      1.0  0.97429  0.65037  0.19007  1.0000
  H   H4662     1.0  0.88804  0.57728  0.09419  1.0000
  H   H4663     1.0  0.95774  0.70008  0.06001  1.0000
  C   C2631     1.0  0.92514  0.51134  0.07278  1.0000
  H   H4664     1.0  0.75039  0.57337  0.11306  1.0000
  C   C2632     1.0  0.91339  0.67197  0.26152  1.0000
  H   H4665     1.0  0.94517  0.61665  0.19684  1.0000
  C   C2633     1.0  0.96030  0.67633  0.26093  1.0000
  C   C2634     1.0  0.95346  0.52552  0.12567  1.0000
  H   H4666     1.0  0.96691  0.64785  0.26228  1.0000
  H   H4667     1.0  0.52560  0.71691  0.08043  1.0000
  C   C2635     1.0  0.91903  0.58904  0.15602  1.0000
  C   C2636     1.0  0.92094  0.69020  0.17824  1.0000
  H   H4668     1.0  0.95571  0.49679  0.03163  1.0000
  C   C2637     1.0  0.73939  0.62852  0.09758  1.0000
  S   S605      1.0  0.79358  0.49421  0.99308  1.0000
  C   C2638     1.0  0.84636  0.69304  0.18915  1.0000
  H   H4669     1.0  0.90421  0.67237  0.21206  1.0000
  S   S606      1.0  0.96225  0.56323  0.04460  1.0000
  H   H4670     1.0  0.94758  0.61105  0.10038  1.0000
  C   C2639     1.0  0.87335  0.70924  0.30864  1.0000
  C   C2640     1.0  0.77748  0.60372  0.09899  1.0000
  C   C2641     1.0  0.83734  0.68215  0.18597  1.0000
  C   C2642     1.0  0.67325  0.69526  0.98273  1.0000
  C   C2643     1.0  0.97439  0.71220  0.16402  1.0000
  H   H4671     1.0  0.78920  0.59450  0.10354  1.0000
  C   C2644     1.0  0.88065  0.72384  0.29953  1.0000
  C   C2645     1.0  0.93308  0.70566  0.20985  1.0000
  H   H4672     1.0  0.74365  0.60063  0.09976  1.0000
  S   S607      1.0  0.82958  0.66433  0.16621  1.0000
  C   C2646     1.0  0.91499  0.50132  0.08669  1.0000
  H   H4673     1.0  0.89489  0.58672  0.14086  1.0000
  S   S608      1.0  0.84133  0.71490  0.22747  1.0000
  S   S609      1.0  0.75021  0.50068  0.00571  1.0000
  H   H4674     1.0  0.79934  0.67549  0.03765  1.0000
  C   C2647     1.0  0.84486  0.57675  0.13307  1.0000
  H   H4675     1.0  0.97394  0.53124  0.99655  1.0000
  H   H4676     1.0  0.85950  0.67965  0.14439  1.0000
  H   H4677     1.0  0.96231  0.69873  0.09343  1.0000
  H   H4678     1.0  0.79809  0.72436  0.23248  1.0000
  C   C2648     1.0  0.91192  0.67780  0.17405  1.0000
  C   C2649     1.0  0.77622  0.59909  0.08229  1.0000
  C   C2650     1.0  0.76211  0.57072  0.11873  1.0000
  C   C2651     1.0  0.85581  0.68333  0.15688  1.0000
  C   C2652     1.0  0.58280  0.68935  0.02529  1.0000
  H   H4679     1.0  0.97173  0.66084  0.24041  1.0000
  C   C2653     1.0  0.88709  0.55264  0.08962  1.0000
  C   C2654     1.0  0.89543  0.67082  0.20446  1.0000
  H   H4680     1.0  0.50983  0.69989  0.06440  1.0000
  H   H4681     1.0  0.75114  0.58689  0.13799  1.0000
  H   H4682     1.0  0.92045  0.59360  0.05128  1.0000
  C   C2655     1.0  0.89819  0.58513  0.03294  1.0000
  H   H4683     1.0  0.87248  0.55502  0.09442  1.0000
  C   C2656     1.0  0.86460  0.69453  0.15996  1.0000
  H   H4684     1.0  0.79320  0.59364  0.05792  1.0000
  H   H4685     1.0  0.80130  0.58032  0.07713  1.0000
  C   C2657     1.0  0.85987  0.69947  0.17609  1.0000
  H   H4686     1.0  0.74453  0.62626  0.98006  1.0000
  H   H4687     1.0  0.84579  0.53813  0.12350  1.0000
  H   H4688     1.0  0.95002  0.66329  0.06659  1.0000
  Fe  Fe308     1.0  0.82279  0.52490  0.10954  1.0000
  C   C2658     1.0  0.90445  0.64769  0.16583  1.0000
  H   H4689     1.0  0.59013  0.72767  0.06207  1.0000
  H   H4690     1.0  0.78664  0.62558  0.14753  1.0000
  H   H4691     1.0  0.95910  0.67335  0.27535  1.0000
  H   H4692     1.0  0.88611  0.64682  0.22092  1.0000
  C   C2659     1.0  0.91416  0.61898  0.05698  1.0000
  C   C2660     1.0  0.77502  0.62831  0.14165  1.0000
  C   C2661     1.0  0.93075  0.68646  0.05981  1.0000
  H   H4693     1.0  0.82292  0.59910  0.13242  1.0000
  H   H4694     1.0  0.55646  0.66891  0.98710  1.0000
  H   H4695     1.0  0.90505  0.68379  0.26619  1.0000
  C   C2662     1.0  0.92303  0.65043  0.19337  1.0000
  H   H4696     1.0  0.76930  0.58834  0.08506  1.0000
  C   C2663     1.0  0.96202  0.58456  0.09965  1.0000
  S   S610      1.0  0.87109  0.71364  0.17948  1.0000
  H   H4697     1.0  0.90546  0.56316  0.02011  1.0000
  Fe  Fe309     1.0  0.86026  0.71229  0.24419  1.0000
  H   H4698     1.0  0.77436  0.56803  0.10860  1.0000
  H   H4699     1.0  0.94653  0.67728  0.23129  1.0000
  H   H4700     1.0  0.58408  0.71434  0.97964  1.0000
  C   C2664     1.0  0.81755  0.49646  0.05004  1.0000
  H   H4701     1.0  0.56712  0.67593  0.01842  1.0000
  H   H4702     1.0  0.92935  0.69269  0.28024  1.0000
  C   C2665     1.0  0.88110  0.66117  0.21726  1.0000
  C   C2666     1.0  0.84074  0.55136  0.12558  1.0000
  H   H4703     1.0  0.93248  0.66316  0.27803  1.0000
  H   H4704     1.0  0.78587  0.70817  0.23452  1.0000
  C   C2667     1.0  0.87992  0.71821  0.27210  1.0000
  C   C2668     1.0  0.77859  0.69555  0.02661  1.0000
  H   H4705     1.0  0.96820  0.68664  0.25536  1.0000
  H   H4706     1.0  0.97140  0.70272  0.17660  1.0000
  C   C2669     1.0  0.82377  0.56049  0.12317  1.0000
  H   H4707     1.0  0.95273  0.70864  0.26982  1.0000
  H   H4708     1.0  0.94467  0.52002  0.12133  1.0000
  H   H4709     1.0  0.92154  0.67244  0.16308  1.0000
  H   H4710     1.0  0.93075  0.65698  0.19793  1.0000
  H   H4711     1.0  0.97083  0.65746  0.08699  1.0000
  H   H4712     1.0  0.90027  0.68608  0.16863  1.0000
  C   C2670     1.0  0.97396  0.57013  0.10701  1.0000
  H   H4713     1.0  0.73283  0.60747  0.11936  1.0000
  C   C2671     1.0  0.89670  0.54270  0.15520  1.0000
  S   S611      1.0  0.98863  0.54128  0.07235  1.0000
  C   C2672     1.0  0.76611  0.57068  0.98408  1.0000
  H   H4714     1.0  0.76034  0.63043  0.11540  1.0000
  H   H4715     1.0  0.88474  0.66532  0.24112  1.0000
  H   H4716     1.0  0.98950  0.69181  0.21363  1.0000
  C   C2673     1.0  0.92893  0.57314  0.14748  1.0000
  C   C2674     1.0  0.88401  0.72817  0.28127  1.0000
  C   C2675     1.0  0.93136  0.59472  0.16356  1.0000
  H   H4717     1.0  0.89623  0.57190  0.12820  1.0000
  H   H4718     1.0  0.82880  0.51533  0.99002  1.0000
  C   C2676     1.0  0.76304  0.71220  0.06663  1.0000
  C   C2677     1.0  0.89142  0.51023  0.07101  1.0000
  H   H4719     1.0  0.72380  0.71027  0.06580  1.0000
  H   H4720     1.0  0.54712  0.70790  0.05195  1.0000
  C   C2678     1.0  0.72332  0.72919  0.03094  1.0000
  H   H4721     1.0  0.80802  0.51543  0.00582  1.0000
  C   C2679     1.0  0.53247  0.71234  0.05434  1.0000
  H   H4722     1.0  0.75342  0.70841  0.07892  1.0000
  C   C2680     1.0  0.60576  0.72461  0.98015  1.0000
  H   H4723     1.0  0.64487  0.70447  0.99316  1.0000
  C   C2681     1.0  0.98104  0.57131  0.12042  1.0000
  H   H4724     1.0  0.98351  0.61796  0.06934  1.0000
  H   H4725     1.0  0.52869  0.71895  0.04162  1.0000
  H   H4726     1.0  0.78082  0.73038  0.05742  1.0000
  C   C2682     1.0  0.75358  0.71924  0.05114  1.0000
  H   H4727     1.0  0.90773  0.58584  0.16679  1.0000
  H   H4728     1.0  0.70039  0.57038  0.97890  1.0000
  C   C2683     1.0  0.52546  0.72510  0.06701  1.0000
  H   H4729     1.0  0.71875  0.55354  0.98583  1.0000
  H   H4730     1.0  0.92037  0.49383  0.09799  1.0000
  H   H4731     1.0  0.77473  0.69988  0.01378  1.0000
  C   C2684     1.0  0.71412  0.57777  0.99354  1.0000
  C   C2685     1.0  0.81674  0.52384  0.99633  1.0000
  C   C2686     1.0  0.82022  0.49053  0.03484  1.0000
  H   H4732     1.0  0.79035  0.58037  0.00820  1.0000
  C   C2687     1.0  0.97185  0.65971  0.25422  1.0000
  H   H4733     1.0  0.80953  0.53248  0.98615  1.0000
  H   H4734     1.0  0.87949  0.52483  0.17001  1.0000
  C   C2688     1.0  0.57472  0.72111  0.01794  1.0000
  H   H4735     1.0  0.91597  0.54631  0.16714  1.0000
  H   H4736     1.0  0.67558  0.70390  0.98989  1.0000
  C   C2689     1.0  0.98304  0.67354  0.20302  1.0000
  C   C2690     1.0  0.52454  0.69607  0.06154  1.0000
  H   H4737     1.0  0.97654  0.64875  0.05583  1.0000
  H   H4738     1.0  0.70537  0.57319  0.00623  1.0000
  Fe  Fe310     1.0  0.85647  0.49711  0.10346  1.0000
  H   H4739     1.0  0.99199  0.65433  0.26919  1.0000
  H   H4740     1.0  0.87085  0.48896  0.04033  1.0000
  C   C2691     1.0  0.65442  0.69188  0.99161  1.0000
  C   C2692     1.0  0.98530  0.64500  0.06514  1.0000
  H   H4741     1.0  0.65838  0.68617  0.01813  1.0000
  C   C2693     1.0  0.71424  0.56773  0.98024  1.0000
  H   H4742     1.0  0.80907  0.70463  0.22422  1.0000
  H   H4743     1.0  0.80829  0.70609  0.14722  1.0000
  H   H4744     1.0  0.99166  0.62213  0.08584  1.0000
  H   H4745     1.0  0.80032  0.49897  0.07503  1.0000
  H   H4746     1.0  0.56643  0.64652  0.98528  1.0000
  H   H4747     1.0  0.97123  0.70803  0.15361  1.0000
  C   C2694     1.0  0.99110  0.65660  0.25539  1.0000
  H   H4748     1.0  0.75103  0.72162  0.01903  1.0000
  C   C2695     1.0  0.55405  0.73088  0.06618  1.0000
  H   H4749     1.0  0.81910  0.72531  0.19658  1.0000
  C   C2696     1.0  0.86905  0.69929  0.29940  1.0000
  H   H4750     1.0  0.81353  0.56881  0.98485  1.0000
  C   C2697     1.0  0.79182  0.72403  0.20828  1.0000
  H   H4751     1.0  0.71995  0.73018  0.00504  1.0000
  Fe  Fe311     1.0  0.61327  0.73046  0.02658  1.0000
  C   C2698     1.0  0.58204  0.73094  0.07464  1.0000
  C   C2699     1.0  0.99446  0.68002  0.20860  1.0000
  H   H4752     1.0  0.79891  0.59995  0.97787  1.0000
  H   H4753     1.0  0.77864  0.73304  0.21084  1.0000
  H   H4754     1.0  0.82020  0.73365  0.30058  1.0000
  H   H4755     1.0  0.94096  0.71292  0.41488  1.0000
  C   C2700     1.0  0.98911  0.70220  0.44806  1.0000
  C   C2701     1.0  0.98580  0.72359  0.58831  1.0000
  H   H4756     1.0  0.85393  0.70923  0.42042  1.0000
  H   H4757     1.0  0.92885  0.67269  0.46125  1.0000
  S   S612      1.0  0.89714  0.68863  0.39203  1.0000
  H   H4758     1.0  0.95421  0.69547  0.46214  1.0000
  H   H4759     1.0  0.99077  0.64883  0.44997  1.0000
  H   H4760     1.0  0.77250  0.68824  0.45363  1.0000
  H   H4761     1.0  0.94055  0.67958  0.49108  1.0000
  H   H4762     1.0  0.84309  0.68456  0.38323  1.0000
  H   H4763     1.0  0.80477  0.67657  0.44654  1.0000
  H   H4764     1.0  0.97081  0.69863  0.48071  1.0000
  C   C2702     1.0  0.88951  0.70340  0.42073  1.0000
  H   H4765     1.0  0.95925  0.69048  0.60846  1.0000
  H   H4766     1.0  0.96600  0.67962  0.49609  1.0000
  H   H4767     1.0  0.98053  0.72426  0.55534  1.0000
  S   S613      1.0  0.86361  0.71477  0.36112  1.0000
  H   H4768     1.0  0.80677  0.71546  0.43527  1.0000
  H   H4769     1.0  0.98052  0.68935  0.51475  1.0000
  C   C2703     1.0  0.83721  0.66592  0.45394  1.0000
  H   H4770     1.0  0.85675  0.68143  0.43933  1.0000
  C   C2704     1.0  0.95780  0.72034  0.54940  1.0000
  C   C2705     1.0  0.95917  0.71678  0.61079  1.0000
  H   H4771     1.0  0.81334  0.71564  0.50420  1.0000
  C   C2706     1.0  0.87736  0.71923  0.58551  1.0000
  C   C2707     1.0  0.94368  0.67377  0.47950  1.0000
  H   H4772     1.0  0.99291  0.70737  0.62370  1.0000
  C   C2708     1.0  0.97584  0.68422  0.48428  1.0000
  H   H4773     1.0  0.86096  0.67409  0.41446  1.0000
  H   H4774     1.0  0.92202  0.69285  0.46906  1.0000
  H   H4775     1.0  0.86537  0.67219  0.38392  1.0000
  H   H4776     1.0  0.94093  0.71075  0.33578  1.0000
  H   H4777     1.0  0.82735  0.67741  0.42142  1.0000
  H   H4778     1.0  0.93402  0.70066  0.43656  1.0000
  C   C2709     1.0  0.95881  0.68097  0.46518  1.0000
  C   C2710     1.0  0.99006  0.68210  0.45346  1.0000
  H   H4779     1.0  0.98017  0.69235  0.61071  1.0000
  N   N147      1.0  0.97682  0.67586  0.46965  1.0000
  Fe  Fe312     1.0  0.87976  0.70645  0.48374  1.0000
  H   H4780     1.0  0.85269  0.65938  0.47392  1.0000
  H   H4781     1.0  0.85788  0.69542  0.39984  1.0000
  N   N148      1.0  0.83183  0.69651  0.43288  1.0000
  S   S614      1.0  0.89381  0.70014  0.50564  1.0000
  H   H4782     1.0  0.94661  0.71848  0.58366  1.0000
  Fe  Fe313     1.0  0.87194  0.72101  0.51620  1.0000
  H   H4783     1.0  0.87283  0.71726  0.59952  1.0000
  H   H4784     1.0  0.93113  0.72523  0.44918  1.0000
  S   S615      1.0  0.87756  0.68460  0.47323  1.0000
  C   C2711     1.0  0.89908  0.72710  0.55919  1.0000
  C   C2712     1.0  0.93839  0.72616  0.43546  1.0000
  C   C2713     1.0  0.86732  0.71624  0.57549  1.0000
  N   N149      1.0  0.96590  0.72607  0.59230  1.0000
  C   C2714     1.0  0.85076  0.65334  0.46414  1.0000
  H   H4785     1.0  0.91612  0.67300  0.48312  1.0000
  H   H4786     1.0  0.96154  0.72663  0.53538  1.0000
  H   H4787     1.0  0.91842  0.71890  0.42706  1.0000
  H   H4788     1.0  0.86367  0.64984  0.45508  1.0000
  C   C2715     1.0  0.96059  0.68881  0.63464  1.0000
  H   H4789     1.0  0.83644  0.65944  0.44402  1.0000
  H   H4790     1.0  0.96041  0.70997  0.34298  1.0000
  C   C2716     1.0  0.88550  0.68621  0.45061  1.0000
  C   C2717     1.0  0.89094  0.67085  0.44423  1.0000
  C   C2718     1.0  0.89516  0.67175  0.42621  1.0000
  C   C2719     1.0  0.89394  0.68803  0.41440  1.0000
  H   H4791     1.0  0.95946  0.73008  0.31441  1.0000
  H   H4792     1.0  0.89148  0.65821  0.45328  1.0000
  H   H4793     1.0  0.89883  0.65981  0.42141  1.0000
  Fe  Fe314     1.0  0.88387  0.71358  0.37591  1.0000
  H   H4794     1.0  0.78304  0.69330  0.46782  1.0000
  C   C2720     1.0  0.83946  0.71274  0.42594  1.0000
  H   H4795     1.0  0.82427  0.66779  0.46337  1.0000
  S   S616      1.0  0.89432  0.72709  0.46692  1.0000
  H   H4796     1.0  0.84607  0.64109  0.47113  1.0000
  C   C2721     1.0  0.98817  0.62566  0.47016  1.0000
  H   H4797     1.0  0.95956  0.67704  0.45295  1.0000
  H   H4798     1.0  0.82334  0.72781  0.44610  1.0000
  C   C2722     1.0  0.85206  0.68376  0.40634  1.0000
  C   C2723     1.0  0.83315  0.68915  0.41739  1.0000
  H   H4799     1.0  0.94715  0.65930  0.48384  1.0000
  H   H4800     1.0  0.97459  0.65146  0.48868  1.0000
  C   C2724     1.0  0.85172  0.67537  0.39193  1.0000
  C   C2725     1.0  0.81261  0.70194  0.44186  1.0000
  H   H4801     1.0  0.82515  0.69900  0.40835  1.0000
  C   C2726     1.0  0.88518  0.70251  0.43884  1.0000
  C   C2727     1.0  0.88915  0.72391  0.54923  1.0000
  C   C2728     1.0  0.92670  0.67839  0.47274  1.0000
  H   H4802     1.0  0.88935  0.71596  0.41171  1.0000
  H   H4803     1.0  0.81164  0.70253  0.45557  1.0000
  H   H4804     1.0  0.98901  0.72555  0.31312  1.0000
  H   H4805     1.0  0.84016  0.73026  0.60292  1.0000
  H   H4806     1.0  0.96793  0.70443  0.58083  1.0000
  C   C2729     1.0  0.96593  0.72728  0.56020  1.0000
  H   H4807     1.0  0.96246  0.72214  0.62028  1.0000
  H   H4808     1.0  0.88103  0.71444  0.44364  1.0000
  C   C2730     1.0  0.84243  0.68383  0.44559  1.0000
  C   C2731     1.0  0.79967  0.69081  0.44212  1.0000
  S   S617      1.0  0.86553  0.72848  0.63261  1.0000
  H   H4809     1.0  0.89384  0.72565  0.53526  1.0000
  H   H4810     1.0  0.96835  0.64743  0.46106  1.0000
  C   C2732     1.0  0.99338  0.68064  0.49034  1.0000
  H   H4811     1.0  0.96666  0.69422  0.64205  1.0000
  C   C2733     1.0  0.98256  0.65622  0.47549  1.0000
  C   C2734     1.0  0.96104  0.71847  0.57988  1.0000
  C   C2735     1.0  0.96562  0.69649  0.61504  1.0000
  C   C2736     1.0  0.80756  0.72005  0.51670  1.0000
  H   H4812     1.0  0.84688  0.66302  0.39763  1.0000
  H   H4813     1.0  0.77574  0.71017  0.44983  1.0000
  H   H4814     1.0  0.94446  0.71931  0.61399  1.0000
  H   H4815     1.0  0.79741  0.69312  0.42876  1.0000
  C   C2737     1.0  0.78165  0.69601  0.45410  1.0000
  H   H4816     1.0  0.87073  0.70579  0.32276  1.0000
  H   H4817     1.0  0.97533  0.70996  0.45009  1.0000
  H   H4818     1.0  0.99020  0.70613  0.42027  1.0000
  H   H4819     1.0  0.85509  0.71191  0.58179  1.0000
  H   H4820     1.0  0.94311  0.72348  0.55347  1.0000
  H   H4821     1.0  0.96877  0.72920  0.47719  1.0000
  H   H4822     1.0  0.81674  0.71325  0.52567  1.0000
  H   H4823     1.0  0.84143  0.68966  0.45671  1.0000
  C   C2738     1.0  0.98197  0.64530  0.46294  1.0000
  Fe  Fe315     1.0  0.89364  0.72857  0.61805  1.0000
  S   S618      1.0  0.85880  0.71812  0.54474  1.0000
  C   C2739     1.0  0.93253  0.71400  0.42799  1.0000
  C   C2740     1.0  0.87289  0.71916  0.55728  1.0000
  C   C2741     1.0  0.83734  0.72395  0.43930  1.0000
  H   H4824     1.0  0.98857  0.67803  0.44212  1.0000
  H   H4825     1.0  0.93954  0.72329  0.38594  1.0000
  H   H4826     1.0  0.84524  0.71666  0.44931  1.0000
  S   S619      1.0  0.93576  0.71987  0.48400  1.0000
  Fe  Fe316     1.0  0.90644  0.72249  0.48975  1.0000
  H   H4827     1.0  0.95268  0.72096  0.43522  1.0000
  H   H4828     1.0  0.93924  0.72209  0.35250  1.0000
  H   H4829     1.0  0.79458  0.71627  0.52250  1.0000
  H   H4830     1.0  0.91120  0.73163  0.55273  1.0000
  H   H4831     1.0  0.94597  0.69187  0.63935  1.0000
  H   H4832     1.0  0.83347  0.72150  0.41492  1.0000
  H   H4833     1.0  0.97944  0.62135  0.48298  1.0000
  S   S620      1.0  0.85647  0.72527  0.49584  1.0000
  H   H4834     1.0  0.83802  0.69787  0.64117  1.0000
  C   C2742     1.0  0.89293  0.72527  0.57729  1.0000
  C   C2743     1.0  0.94761  0.71843  0.34020  1.0000
  H   H4835     1.0  0.98866  0.70602  0.49672  1.0000
  H   H4836     1.0  0.96268  0.70591  0.55093  1.0000
  S   S621      1.0  0.89950  0.72959  0.35315  1.0000
  H   H4837     1.0  0.99256  0.70991  0.58704  1.0000
  H   H4838     1.0  0.96534  0.67432  0.63730  1.0000
  C   C2744     1.0  0.99359  0.72919  0.60085  1.0000
  H   H4839     1.0  0.82803  0.72097  0.63635  1.0000
  H   H4840     1.0  0.98763  0.61813  0.46096  1.0000
  H   H4841     1.0  0.99038  0.73147  0.57505  1.0000
  S   S622      1.0  0.90397  0.73228  0.58896  1.0000
  C   C2745     1.0  0.99143  0.69188  0.50320  1.0000
  S   S623      1.0  0.90553  0.70489  0.63631  1.0000
  H   H4842     1.0  0.82210  0.73281  0.59280  1.0000
  Fe  Fe317     1.0  0.87772  0.73347  0.33951  1.0000
  C   C2746     1.0  0.74654  0.65340  0.93979  1.0000
  H   H4843     1.0  0.87568  0.66712  0.74068  1.0000
  C   C2747     1.0  0.68502  0.66143  0.94498  1.0000
  H   H4844     1.0  0.93807  0.49550  0.80293  1.0000
  H   H4845     1.0  0.82520  0.48881  0.91315  1.0000
  S   S624      1.0  0.87176  0.50720  0.72145  1.0000
  H   H4846     1.0  0.81074  0.56084  0.85867  1.0000
  H   H4847     1.0  0.64583  0.65640  0.93623  1.0000
  H   H4848     1.0  0.52687  0.68458  0.93651  1.0000
  H   H4849     1.0  0.53272  0.71026  0.94117  1.0000
  H   H4850     1.0  0.81136  0.54205  0.76463  1.0000
  H   H4851     1.0  0.72876  0.70995  0.94052  1.0000
  C   C2748     1.0  0.81103  0.70916  0.70182  1.0000
  H   H4852     1.0  0.89703  0.53974  0.69096  1.0000
  C   C2749     1.0  0.97659  0.55434  0.81844  1.0000
  N   N150      1.0  0.50748  0.72236  0.93365  1.0000
  C   C2750     1.0  0.79046  0.51145  0.90810  1.0000
  H   H4853     1.0  0.84891  0.68439  0.75731  1.0000
  H   H4854     1.0  0.76784  0.58964  0.91193  1.0000
  H   H4855     1.0  0.77159  0.52748  0.92631  1.0000
  C   C2751     1.0  0.95712  0.67711  0.69783  1.0000
  C   C2752     1.0  0.90928  0.64648  0.73299  1.0000
  H   H4856     1.0  0.50179  0.70334  0.92313  1.0000
  C   C2753     1.0  0.90799  0.67772  0.73215  1.0000
  H   H4857     1.0  0.70993  0.68656  0.97295  1.0000
  H   H4858     1.0  0.97638  0.61676  0.69689  1.0000
  S   S625      1.0  0.78088  0.52170  0.86075  1.0000
  H   H4859     1.0  0.99003  0.61739  0.67509  1.0000
  H   H4860     1.0  0.90590  0.68721  0.74043  1.0000
  H   H4861     1.0  0.96538  0.71243  0.66827  1.0000
  H   H4862     1.0  0.93474  0.53939  0.72483  1.0000
  N   N151      1.0  0.80763  0.51465  0.90936  1.0000
  C   C2754     1.0  0.89719  0.53035  0.76942  1.0000
  S   S626      1.0  0.99132  0.51178  0.77417  1.0000
  H   H4863     1.0  0.72246  0.68209  0.84269  1.0000
  H   H4864     1.0  0.92221  0.64772  0.72374  1.0000
  H   H4865     1.0  0.92013  0.52611  0.74900  1.0000
  H   H4866     1.0  0.91979  0.54145  0.68448  1.0000
  C   C2755     1.0  0.86208  0.67373  0.68658  1.0000
  H   H4867     1.0  0.74108  0.54164  0.95942  1.0000
  S   S627      1.0  0.69750  0.61979  0.90075  1.0000
  Fe  Fe318     1.0  0.73791  0.63509  0.86805  1.0000
  S   S628      1.0  0.71621  0.62968  0.85941  1.0000
  S   S629      1.0  0.75906  0.64625  0.84662  1.0000
  Fe  Fe319     1.0  0.69781  0.64401  0.87958  1.0000
  Fe  Fe320     1.0  0.71775  0.60587  0.88128  1.0000
  S   S630      1.0  0.71318  0.58042  0.87944  1.0000
  S   S631      1.0  0.71921  0.65162  0.88657  1.0000
  S   S632      1.0  0.74100  0.60992  0.88852  1.0000
  Fe  Fe321     1.0  0.84405  0.58991  0.76258  1.0000
  S   S633      1.0  0.86173  0.57996  0.78162  1.0000
  S   S634      1.0  0.83180  0.57064  0.75753  1.0000
  Fe  Fe322     1.0  0.84553  0.62821  0.75792  1.0000
  S   S635      1.0  0.86294  0.62104  0.77718  1.0000
  Fe  Fe323     1.0  0.87759  0.59917  0.76345  1.0000
  Fe  Fe324     1.0  0.84501  0.60282  0.79333  1.0000
  S   S636      1.0  0.83407  0.59770  0.82245  1.0000
  S   S637      1.0  0.86118  0.60733  0.74327  1.0000
  S   S638      1.0  0.82630  0.61174  0.77525  1.0000
  C   C2756     1.0  0.77968  0.63231  0.84011  1.0000
  C   C2757     1.0  0.78586  0.61649  0.85118  1.0000
  C   C2758     1.0  0.80266  0.60602  0.84575  1.0000
  C   C2759     1.0  0.81312  0.61107  0.82909  1.0000
  C   C2760     1.0  0.80678  0.62670  0.81793  1.0000
  C   C2761     1.0  0.79020  0.63736  0.82351  1.0000
  H   H4868     1.0  0.77790  0.61257  0.86405  1.0000
  H   H4869     1.0  0.80758  0.59406  0.85449  1.0000
  C   C2762     1.0  0.95507  0.48505  0.74643  1.0000
  H   H4870     1.0  0.78551  0.64959  0.81492  1.0000
  C   C2763     1.0  0.51887  0.68947  0.94832  1.0000
  H   H4871     1.0  0.85243  0.49935  0.78990  1.0000
  H   H4872     1.0  0.88843  0.58182  0.72661  1.0000
  H   H4873     1.0  0.78307  0.60597  0.76466  1.0000
  H   H4874     1.0  0.91190  0.63331  0.74192  1.0000
  N   N152      1.0  0.81137  0.72630  0.68851  1.0000
  C   C2764     1.0  0.81995  0.55603  0.81101  1.0000
  H   H4875     1.0  0.74244  0.60860  0.82561  1.0000
  H   H4876     1.0  0.95309  0.57099  0.70431  1.0000
  H   H4877     1.0  0.89984  0.60444  0.78448  1.0000
  C   C2765     1.0  0.76194  0.53759  0.86664  1.0000
  C   C2766     1.0  0.76391  0.55390  0.86741  1.0000
  C   C2767     1.0  0.74899  0.56707  0.87159  1.0000
  C   C2768     1.0  0.73205  0.56394  0.87493  1.0000
  C   C2769     1.0  0.73006  0.54754  0.87439  1.0000
  C   C2770     1.0  0.74502  0.53432  0.87026  1.0000
  H   H4878     1.0  0.77696  0.55656  0.86441  1.0000
  H   H4879     1.0  0.75059  0.57973  0.87184  1.0000
  H   H4880     1.0  0.71693  0.54512  0.87698  1.0000
  H   H4881     1.0  0.74344  0.52174  0.86968  1.0000
  H   H4882     1.0  0.95544  0.64180  0.76565  1.0000
  C   C2771     1.0  0.93858  0.59632  0.75481  1.0000
  H   H4883     1.0  0.81188  0.67309  0.71106  1.0000
  H   H4884     1.0  0.79076  0.51089  0.89463  1.0000
  H   H4885     1.0  0.93476  0.63982  0.78100  1.0000
  C   C2772     1.0  0.94374  0.60218  0.78028  1.0000
  H   H4886     1.0  0.79704  0.56552  0.87909  1.0000
  H   H4887     1.0  0.92431  0.54895  0.78202  1.0000
  H   H4888     1.0  0.96445  0.56107  0.68588  1.0000
  H   H4889     1.0  0.78528  0.57127  0.91784  1.0000
  H   H4890     1.0  0.93950  0.66125  0.77039  1.0000
  S   S639      1.0  0.67181  0.66133  0.87437  1.0000
  H   H4891     1.0  0.81481  0.63081  0.80514  1.0000
  S   S640      1.0  0.97973  0.50533  0.82539  1.0000
  C   C2773     1.0  0.86266  0.52482  0.73201  1.0000
  C   C2774     1.0  0.86055  0.52272  0.75002  1.0000
  C   C2775     1.0  0.85215  0.53720  0.75786  1.0000
  C   C2776     1.0  0.84614  0.55375  0.74765  1.0000
  C   C2777     1.0  0.84883  0.55585  0.72962  1.0000
  C   C2778     1.0  0.85711  0.54146  0.72184  1.0000
  H   H4892     1.0  0.86498  0.50990  0.75788  1.0000
  H   H4893     1.0  0.84974  0.53545  0.77189  1.0000
  H   H4894     1.0  0.84383  0.56845  0.72172  1.0000
  H   H4895     1.0  0.85873  0.54313  0.70791  1.0000
  H   H4896     1.0  0.56888  0.69149  0.94398  1.0000
  H   H4897     1.0  0.84979  0.68769  0.77791  1.0000
  H   H4898     1.0  0.62124  0.68528  0.93580  1.0000
  H   H4899     1.0  0.82632  0.69624  0.67267  1.0000
  C   C2779     1.0  0.90563  0.63303  0.70991  1.0000
  S   S641      1.0  0.99219  0.63479  0.77562  1.0000
  C   C2780     1.0  0.96261  0.72481  0.65911  1.0000
  H   H4900     1.0  0.94746  0.67131  0.69517  1.0000
  H   H4901     1.0  0.69624  0.66475  0.93407  1.0000
  H   H4902     1.0  0.99303  0.68689  0.78472  1.0000
  C   C2781     1.0  0.99235  0.49798  0.85497  1.0000
  S   S642      1.0  0.71880  0.62082  0.93516  1.0000
  H   H4903     1.0  0.90687  0.50685  0.69776  1.0000
  S   S643      1.0  0.93061  0.71730  0.66285  1.0000
  C   C2782     1.0  0.82947  0.48946  0.79108  1.0000
  H   H4904     1.0  0.66793  0.69573  0.91642  1.0000
  H   H4905     1.0  0.77066  0.59564  0.75679  1.0000
  H   H4906     1.0  0.91084  0.61952  0.71693  1.0000
  C   C2783     1.0  0.92549  0.60483  0.78755  1.0000
  H   H4907     1.0  0.53601  0.70468  0.91230  1.0000
  C   C2784     1.0  0.87531  0.67649  0.76293  1.0000
  S   S644      1.0  0.90689  0.59296  0.75205  1.0000
  Fe  Fe325     1.0  0.77720  0.49432  0.86492  1.0000
  C   C2785     1.0  0.95601  0.55890  0.69927  1.0000
  H   H4908     1.0  0.88535  0.63913  0.73211  1.0000
  Fe  Fe326     1.0  0.87779  0.70622  0.65231  1.0000
  H   H4909     1.0  0.98675  0.54308  0.81410  1.0000
  H   H4910     1.0  0.94376  0.59284  0.74222  1.0000
  C   C2786     1.0  0.89032  0.57202  0.82085  1.0000
  C   C2787     1.0  0.61394  0.67811  0.94817  1.0000
  H   H4911     1.0  0.88040  0.65025  0.75876  1.0000
  H   H4912     1.0  0.78823  0.67509  0.71632  1.0000
  C   C2788     1.0  0.58026  0.69652  0.93473  1.0000
  H   H4913     1.0  0.57961  0.66604  0.95926  1.0000
  H   H4914     1.0  0.97800  0.55486  0.83140  1.0000
  C   C2789     1.0  0.51858  0.70921  0.94575  1.0000
  C   C2790     1.0  0.52506  0.71148  0.90545  1.0000
  N   N153      1.0  0.93844  0.54698  0.80189  1.0000
  H   H4915     1.0  0.51379  0.70686  0.88623  1.0000
  H   H4916     1.0  0.96355  0.54783  0.70774  1.0000
  S   S645      1.0  0.98533  0.66813  0.73115  1.0000
  C   C2791     1.0  0.50703  0.71546  0.91850  1.0000
  C   C2792     1.0  0.66334  0.73164  0.94209  1.0000
  H   H4917     1.0  0.94842  0.56342  0.82476  1.0000
  H   H4918     1.0  0.92040  0.60813  0.80023  1.0000
  S   S646      1.0  0.63334  0.71873  0.91867  1.0000
  H   H4919     1.0  0.91775  0.70384  0.70368  1.0000
  C   C2793     1.0  0.74885  0.64666  0.95700  1.0000
  H   H4920     1.0  0.79935  0.72217  0.66972  1.0000
  H   H4921     1.0  0.85164  0.66584  0.77552  1.0000
  H   H4922     1.0  0.95208  0.51979  0.80272  1.0000
  H   H4923     1.0  0.89026  0.65775  0.71536  1.0000
  C   C2794     1.0  0.63465  0.69737  0.89764  1.0000
  C   C2795     1.0  0.90458  0.56214  0.80808  1.0000
  C   C2796     1.0  0.98386  0.60570  0.82469  1.0000
  C   C2797     1.0  0.91383  0.60293  0.77857  1.0000
  C   C2798     1.0  0.80686  0.51269  0.92852  1.0000
  H   H4924     1.0  0.89829  0.71380  0.71807  1.0000
  C   C2799     1.0  0.66177  0.71990  0.96084  1.0000
  C   C2800     1.0  0.85520  0.67870  0.76874  1.0000
  H   H4925     1.0  0.58368  0.71632  0.91041  1.0000
  H   H4926     1.0  0.95596  0.53998  0.82988  1.0000
  C   C2801     1.0  0.89632  0.64493  0.72280  1.0000
  S   S647      1.0  0.95764  0.50186  0.75440  1.0000
  H   H4927     1.0  0.90042  0.55022  0.80837  1.0000
  H   H4928     1.0  0.75647  0.55210  0.82994  1.0000
  S   S648      1.0  0.77131  0.54048  0.97272  1.0000
  C   C2802     1.0  0.82402  0.51370  0.93305  1.0000
  H   H4929     1.0  0.71152  0.51047  0.97081  1.0000
  C   C2803     1.0  0.92046  0.59828  0.76235  1.0000
  H   H4930     1.0  0.95346  0.52800  0.77440  1.0000
  H   H4931     1.0  0.76360  0.58955  0.78897  1.0000
  C   C2804     1.0  0.65153  0.71123  0.84874  1.0000
  C   C2805     1.0  0.85275  0.67959  0.71573  1.0000
  C   C2806     1.0  0.93664  0.55160  0.78317  1.0000
  S   S649      1.0  0.86882  0.68063  0.66376  1.0000
  H   H4932     1.0  0.77390  0.56970  0.78095  1.0000
  C   C2807     1.0  0.93987  0.52761  0.80974  1.0000
  C   C2808     1.0  0.72701  0.57320  0.96262  1.0000
  C   C2809     1.0  0.75440  0.60994  0.82891  1.0000
  H   H4933     1.0  0.80332  0.50104  0.73754  1.0000
  H   H4934     1.0  0.99308  0.64663  0.66227  1.0000
  H   H4935     1.0  0.88480  0.54810  0.73897  1.0000
  H   H4936     1.0  0.89850  0.52606  0.72035  1.0000
  C   C2810     1.0  0.69002  0.70607  0.85042  1.0000
  H   H4937     1.0  0.90098  0.54094  0.77273  1.0000
  C   C2811     1.0  0.91595  0.51538  0.68914  1.0000
  H   H4938     1.0  0.92189  0.52199  0.71631  1.0000
  H   H4939     1.0  0.90188  0.51816  0.74801  1.0000
  H   H4940     1.0  0.83545  0.50336  0.92869  1.0000
  H   H4941     1.0  0.91540  0.51673  0.67539  1.0000
  H   H4942     1.0  0.92970  0.50890  0.69074  1.0000
  H   H4943     1.0  0.88253  0.53297  0.77179  1.0000
  N   N154      1.0  0.80910  0.50480  0.76895  1.0000
  C   C2812     1.0  0.79831  0.52274  0.76244  1.0000
  C   C2813     1.0  0.79667  0.49287  0.77951  1.0000
  C   C2814     1.0  0.81911  0.50675  0.78119  1.0000
  H   H4944     1.0  0.79716  0.69712  0.68989  1.0000
  H   H4945     1.0  0.97589  0.67398  0.67399  1.0000
  C   C2815     1.0  0.80891  0.53740  0.75414  1.0000
  H   H4946     1.0  0.98660  0.58734  0.69045  1.0000
  H   H4947     1.0  0.69601  0.71584  0.94366  1.0000
  H   H4948     1.0  0.98773  0.57924  0.83957  1.0000
  C   C2816     1.0  0.78437  0.48950  0.76984  1.0000
  C   C2817     1.0  0.79883  0.55319  0.74283  1.0000
  H   H4949     1.0  0.96718  0.54172  0.79663  1.0000
  H   H4950     1.0  0.78767  0.52718  0.77337  1.0000
  H   H4951     1.0  0.79115  0.52241  0.75282  1.0000
  C   C2818     1.0  0.71062  0.69453  0.95942  1.0000
  H   H4952     1.0  0.78828  0.49793  0.79123  1.0000
  H   H4953     1.0  0.80992  0.51389  0.79123  1.0000
  H   H4954     1.0  0.70454  0.67063  0.85104  1.0000
  H   H4955     1.0  0.81933  0.49797  0.95952  1.0000
  H   H4956     1.0  0.61760  0.72895  0.97114  1.0000
  H   H4957     1.0  0.59568  0.65412  0.97203  1.0000
  H   H4958     1.0  0.49760  0.72510  0.91080  1.0000
  H   H4959     1.0  0.59312  0.72812  0.95939  1.0000
  H   H4960     1.0  0.80664  0.56356  0.73760  1.0000
  H   H4961     1.0  0.95635  0.67400  0.71212  1.0000
  H   H4962     1.0  0.97848  0.64645  0.70857  1.0000
  H   H4963     1.0  0.77628  0.50189  0.76363  1.0000
  H   H4964     1.0  0.82437  0.72850  0.71654  1.0000
  H   H4965     1.0  0.76340  0.48504  0.79322  1.0000
  C   C2819     1.0  0.81220  0.72416  0.67053  1.0000
  H   H4966     1.0  0.89687  0.71161  0.69725  1.0000
  C   C2820     1.0  0.93289  0.64851  0.75360  1.0000
  H   H4967     1.0  0.82192  0.53253  0.74593  1.0000
  H   H4968     1.0  0.56606  0.70545  0.91369  1.0000
  H   H4969     1.0  0.81799  0.50494  0.87619  1.0000
  H   H4970     1.0  0.97225  0.64504  0.68982  1.0000
  H   H4971     1.0  0.78576  0.55864  0.75064  1.0000
  C   C2821     1.0  0.82169  0.51122  0.95272  1.0000
  C   C2822     1.0  0.95795  0.55210  0.81991  1.0000
  H   H4972     1.0  0.99113  0.61436  0.81363  1.0000
  C   C2823     1.0  0.58711  0.68214  0.97281  1.0000
  N   N155      1.0  0.72628  0.56657  0.94738  1.0000
  C   C2824     1.0  0.70814  0.57421  0.94329  1.0000
  H   H4973     1.0  0.68688  0.69357  0.83111  1.0000
  C   C2825     1.0  0.73959  0.57363  0.93165  1.0000
  C   C2826     1.0  0.73111  0.54672  0.95110  1.0000
  H   H4974     1.0  0.64492  0.70773  0.82598  1.0000
  C   C2827     1.0  0.70610  0.57150  0.92597  1.0000
  C   C2828     1.0  0.75908  0.56899  0.93356  1.0000
  H   H4975     1.0  0.79686  0.54938  0.73159  1.0000
  C   C2829     1.0  0.94107  0.64780  0.76861  1.0000
  H   H4976     1.0  0.83569  0.50572  0.89906  1.0000
  C   C2830     1.0  0.68661  0.57467  0.92546  1.0000
  C   C2831     1.0  0.77139  0.57511  0.91619  1.0000
  H   H4977     1.0  0.70452  0.58867  0.94245  1.0000
  H   H4978     1.0  0.69772  0.56904  0.95397  1.0000
  C   C2832     1.0  0.98155  0.65001  0.69399  1.0000
  H   H4979     1.0  0.72471  0.58779  0.95915  1.0000
  H   H4980     1.0  0.73561  0.58818  0.92781  1.0000
  H   H4981     1.0  0.73984  0.56875  0.92013  1.0000
  H   H4982     1.0  0.73784  0.54205  0.93885  1.0000
  H   H4983     1.0  0.63110  0.64234  0.95009  1.0000
  H   H4984     1.0  0.84322  0.49076  0.72208  1.0000
  S   S650      1.0  0.75954  0.65688  0.96609  1.0000
  H   H4985     1.0  0.71214  0.58104  0.91487  1.0000
  H   H4986     1.0  0.71288  0.55812  0.92388  1.0000
  H   H4987     1.0  0.76368  0.55461  0.93795  1.0000
  H   H4988     1.0  0.76056  0.57567  0.94302  1.0000
  H   H4989     1.0  0.97226  0.60434  0.82081  1.0000
  H   H4990     1.0  0.72585  0.71120  0.96298  1.0000
  H   H4991     1.0  0.89602  0.63247  0.70275  1.0000
  C   C2833     1.0  0.79655  0.69954  0.70275  1.0000
  C   C2834     1.0  0.81708  0.50184  0.73638  1.0000
  H   H4992     1.0  0.68008  0.56498  0.93594  1.0000
  N   N156      1.0  0.59957  0.69096  0.95743  1.0000
  H   H4993     1.0  0.97897  0.56672  0.80900  1.0000
  C   C2835     1.0  0.84220  0.49301  0.79982  1.0000
  H   H4994     1.0  0.67956  0.58818  0.92704  1.0000
  H   H4995     1.0  0.68564  0.57324  0.91266  1.0000
  H   H4996     1.0  0.78315  0.70732  0.70737  1.0000
  H   H4997     1.0  0.95337  0.69160  0.69339  1.0000
  H   H4998     1.0  0.77049  0.56912  0.90590  1.0000
  C   C2836     1.0  0.83301  0.54981  0.82305  1.0000
  H   H4999     1.0  0.82777  0.54089  0.83530  1.0000
  H   H5000     1.0  0.84584  0.54258  0.81641  1.0000
  H   H5001     1.0  0.83544  0.56115  0.82633  1.0000
  H   H5002     1.0  0.90340  0.67957  0.70645  1.0000
  C   C2837     1.0  0.66373  0.72413  0.83840  1.0000
  H   H5003     1.0  0.60833  0.66941  0.94395  1.0000
  C   C2838     1.0  0.58950  0.70397  0.94437  1.0000
  H   H5004     1.0  0.89352  0.58460  0.82041  1.0000
  H   H5005     1.0  0.62179  0.66084  0.97225  1.0000
  H   H5006     1.0  0.89033  0.59800  0.68747  1.0000
  C   C2839     1.0  0.95023  0.59789  0.76391  1.0000
  H   H5007     1.0  0.96466  0.54585  0.76933  1.0000
  S   S651      1.0  0.83932  0.65706  0.74511  1.0000
  H   H5008     1.0  0.68353  0.69526  0.93892  1.0000
  C   C2840     1.0  0.85978  0.68480  0.69777  1.0000
  H   H5009     1.0  0.90189  0.51767  0.77815  1.0000
  C   C2841     1.0  0.91049  0.53349  0.69355  1.0000
  H   H5010     1.0  0.92600  0.56210  0.72356  1.0000
  H   H5011     1.0  0.79381  0.58624  0.75652  1.0000
  H   H5012     1.0  0.75760  0.55808  0.80676  1.0000
  H   H5013     1.0  0.90813  0.58582  0.71046  1.0000
  H   H5014     1.0  0.65923  0.69753  0.85152  1.0000
  C   C2842     1.0  0.91006  0.53199  0.71303  1.0000
  H   H5015     1.0  0.94171  0.52443  0.82334  1.0000
  C   C2843     1.0  0.76375  0.53033  0.81761  1.0000
  C   C2844     1.0  0.92391  0.52001  0.81078  1.0000
  H   H5016     1.0  0.92587  0.57118  0.81064  1.0000
  H   H5017     1.0  0.84846  0.63885  0.71685  1.0000
  C   C2845     1.0  0.66081  0.67569  0.88840  1.0000
  H   H5018     1.0  0.87058  0.59371  0.70377  1.0000
  H   H5019     1.0  0.93213  0.56582  0.68984  1.0000
  H   H5020     1.0  0.90022  0.55758  0.74298  1.0000
  C   C2846     1.0  0.99011  0.61323  0.68922  1.0000
  H   H5021     1.0  0.73581  0.65061  0.91945  1.0000
  H   H5022     1.0  0.79600  0.58980  0.79036  1.0000
  C   C2847     1.0  0.77072  0.58067  0.82119  1.0000
  H   H5023     1.0  0.90393  0.56600  0.69403  1.0000
  H   H5024     1.0  0.80241  0.56888  0.78548  1.0000
  H   H5025     1.0  0.68299  0.69712  0.86145  1.0000
  H   H5026     1.0  0.88183  0.60934  0.70513  1.0000
  C   C2848     1.0  0.78129  0.59314  0.76396  1.0000
  N   N157      1.0  0.90880  0.54861  0.71867  1.0000
  H   H5027     1.0  0.95916  0.54060  0.74312  1.0000
  H   H5028     1.0  0.76864  0.57481  0.83543  1.0000
  C   C2849     1.0  0.88382  0.59663  0.70155  1.0000
  C   C2850     1.0  0.77618  0.58204  0.78231  1.0000
  H   H5029     1.0  0.94267  0.54265  0.69343  1.0000
  H   H5030     1.0  0.78860  0.49830  0.91624  1.0000
  H   H5031     1.0  0.81810  0.54418  0.80821  1.0000
  H   H5032     1.0  0.81830  0.51549  0.72970  1.0000
  H   H5033     1.0  0.77005  0.52090  0.82808  1.0000
  C   C2851     1.0  0.89801  0.56417  0.70822  1.0000
  C   C2852     1.0  0.78357  0.55108  0.81413  1.0000
  C   C2853     1.0  0.76426  0.54912  0.81714  1.0000
  H   H5034     1.0  0.74530  0.53079  0.91317  1.0000
  H   H5035     1.0  0.77246  0.60700  0.80459  1.0000
  H   H5036     1.0  0.75404  0.50882  0.92436  1.0000
  N   N158      1.0  0.78656  0.56938  0.81149  1.0000
  C   C2854     1.0  0.77134  0.60015  0.81853  1.0000
  C   C2855     1.0  0.92700  0.55122  0.71732  1.0000
  H   H5037     1.0  0.81420  0.70502  0.64594  1.0000
  H   H5038     1.0  0.62109  0.70403  0.89726  1.0000
  H   H5039     1.0  0.91911  0.52451  0.79850  1.0000
  H   H5040     1.0  0.85005  0.49149  0.87367  1.0000
  H   H5041     1.0  0.52200  0.68718  0.90142  1.0000
  C   C2856     1.0  0.64364  0.70169  0.90762  1.0000
  C   C2857     1.0  0.75693  0.51956  0.91286  1.0000
  C   C2858     1.0  0.66096  0.69245  0.90866  1.0000
  C   C2859     1.0  0.90560  0.52931  0.75040  1.0000
  Fe  Fe327     1.0  0.72046  0.62600  0.90631  1.0000
  H   H5042     1.0  0.63635  0.68133  0.88002  1.0000
  Fe  Fe328     1.0  0.98328  0.61147  0.77412  1.0000
  C   C2860     1.0  0.59647  0.71745  0.97066  1.0000
  H   H5043     1.0  0.74037  0.56846  0.96560  1.0000
  C   C2861     1.0  0.89921  0.54677  0.73768  1.0000
  H   H5044     1.0  0.88912  0.56391  0.83438  1.0000
  C   C2862     1.0  0.92875  0.49996  0.81450  1.0000
  C   C2863     1.0  0.95549  0.55141  0.80193  1.0000
  H   H5045     1.0  0.74976  0.52917  0.82042  1.0000
  H   H5046     1.0  0.85042  0.68845  0.72423  1.0000
  C   C2864     1.0  0.95199  0.54242  0.77027  1.0000
  H   H5047     1.0  0.95677  0.56445  0.79311  1.0000
  H   H5048     1.0  0.75832  0.58108  0.81758  1.0000
  C   C2865     1.0  0.63806  0.71176  0.83853  1.0000
  H   H5049     1.0  0.82619  0.56391  0.79848  1.0000
  C   C2866     1.0  0.82727  0.70929  0.66396  1.0000
  H   H5050     1.0  0.57869  0.71357  0.95083  1.0000
  H   H5051     1.0  0.79894  0.56194  0.83354  1.0000
  H   H5052     1.0  0.93539  0.56592  0.77810  1.0000
  C   C2867     1.0  0.82219  0.49419  0.88696  1.0000
  H   H5053     1.0  0.66096  0.72833  0.96986  1.0000
  C   C2868     1.0  0.85174  0.65160  0.71163  1.0000
  C   C2869     1.0  0.79110  0.57771  0.79234  1.0000
  C   C2870     1.0  0.93885  0.55463  0.69879  1.0000
  C   C2871     1.0  0.80220  0.56746  0.81919  1.0000
  H   H5054     1.0  0.80515  0.58042  0.81775  1.0000
  H   H5055     1.0  0.77376  0.53803  0.90349  1.0000
  H   H5056     1.0  0.69120  0.71901  0.87836  1.0000
  H   H5057     1.0  0.93563  0.54526  0.75217  1.0000
  H   H5058     1.0  0.75443  0.62413  0.82571  1.0000
  H   H5059     1.0  0.88467  0.56171  0.70975  1.0000
  H   H5060     1.0  0.71586  0.67296  0.82846  1.0000
  H   H5061     1.0  0.91296  0.52386  0.82169  1.0000
  H   H5062     1.0  0.68315  0.67270  0.89939  1.0000
  C   C2872     1.0  0.71091  0.67962  0.83959  1.0000
  H   H5063     1.0  0.66196  0.69329  0.95088  1.0000
  H   H5064     1.0  0.79159  0.54507  0.80291  1.0000
  C   C2873     1.0  0.66959  0.67945  0.89901  1.0000
  H   H5065     1.0  0.92236  0.67549  0.72609  1.0000
  H   H5066     1.0  0.78841  0.54214  0.82575  1.0000
  H   H5067     1.0  0.78260  0.60136  0.82301  1.0000
  C   C2874     1.0  0.89527  0.58214  0.71279  1.0000
  C   C2875     1.0  0.92313  0.55801  0.81248  1.0000
  Fe  Fe329     1.0  0.97962  0.49246  0.76875  1.0000
  H   H5068     1.0  0.51437  0.71245  0.95885  1.0000
  H   H5069     1.0  0.75360  0.60486  0.84317  1.0000
  C   C2876     1.0  0.84874  0.66296  0.72270  1.0000
  C   C2877     1.0  0.64322  0.68437  0.88807  1.0000
  C   C2878     1.0  0.94840  0.54803  0.75191  1.0000
  C   C2879     1.0  0.94630  0.73051  0.65406  1.0000
  H   H5070     1.0  0.94793  0.56223  0.74661  1.0000
  H   H5071     1.0  0.77071  0.52680  0.80487  1.0000
  H   H5072     1.0  0.90465  0.57066  0.79482  1.0000
  C   C2880     1.0  0.85819  0.65706  0.69359  1.0000
  H   H5073     1.0  0.92185  0.55192  0.82668  1.0000
  C   C2881     1.0  0.82227  0.49687  0.75440  1.0000
  H   H5074     1.0  0.93270  0.50124  0.73632  1.0000
  H   H5075     1.0  0.82313  0.53091  0.87308  1.0000
  H   H5076     1.0  0.87730  0.57511  0.81721  1.0000
  H   H5077     1.0  0.85996  0.64842  0.68501  1.0000
  H   H5078     1.0  0.80902  0.71115  0.71520  1.0000
  C   C2882     1.0  0.90320  0.70519  0.70853  1.0000
  H   H5079     1.0  0.50553  0.68693  0.95075  1.0000
  H   H5080     1.0  0.93933  0.65710  0.74189  1.0000
  H   H5081     1.0  0.70158  0.70670  0.85496  1.0000
  Fe  Fe330     1.0  0.98963  0.49470  0.80103  1.0000
  C   C2883     1.0  0.52442  0.70021  0.89360  1.0000
  H   H5082     1.0  0.79927  0.53493  0.87736  1.0000
  C   C2884     1.0  0.73761  0.64539  0.93271  1.0000
  C   C2885     1.0  0.73083  0.63079  0.94296  1.0000
  H   H5083     1.0  0.64387  0.71495  0.86121  1.0000
  C   C2886     1.0  0.77337  0.52533  0.91308  1.0000
  C   C2887     1.0  0.69762  0.69680  0.83484  1.0000
  H   H5084     1.0  0.83528  0.50053  0.75169  1.0000
  C   C2888     1.0  0.74239  0.63185  0.96700  1.0000
  C   C2889     1.0  0.81052  0.53800  0.88021  1.0000
  C   C2890     1.0  0.88341  0.66311  0.75097  1.0000
  S   S652      1.0  0.98541  0.61937  0.74519  1.0000
  C   C2891     1.0  0.82322  0.50091  0.90263  1.0000
  C   C2892     1.0  0.71571  0.53696  0.95974  1.0000
  C   C2893     1.0  0.89866  0.68720  0.71682  1.0000
  S   S653      1.0  0.95832  0.60392  0.79188  1.0000
  H   H5085     1.0  0.80353  0.49989  0.93620  1.0000
  C   C2894     1.0  0.67571  0.69151  0.95246  1.0000
  N   N159      1.0  0.90308  0.66077  0.74325  1.0000
  H   H5086     1.0  0.88405  0.68936  0.72109  1.0000
  H   H5087     1.0  0.90965  0.66589  0.76506  1.0000
  H   H5088     1.0  0.75885  0.51485  0.90082  1.0000
  H   H5089     1.0  0.91668  0.63831  0.70020  1.0000
  H   H5090     1.0  0.75163  0.66479  0.93196  1.0000
  H   H5091     1.0  0.96430  0.59505  0.75855  1.0000
  H   H5092     1.0  0.86300  0.69751  0.69257  1.0000
  C   C2895     1.0  0.79887  0.68168  0.71553  1.0000
  H   H5093     1.0  0.59854  0.71181  0.93431  1.0000
  C   C2896     1.0  0.57283  0.71093  0.92036  1.0000
  H   H5094     1.0  0.82095  0.56142  0.87539  1.0000
  H   H5095     1.0  0.53730  0.69813  0.88408  1.0000
  H   H5096     1.0  0.52838  0.72388  0.89688  1.0000
  H   H5097     1.0  0.69480  0.66805  0.96354  1.0000
  H   H5098     1.0  0.87808  0.68960  0.75603  1.0000
  H   H5099     1.0  0.61965  0.70556  0.95371  1.0000
  C   C2897     1.0  0.97594  0.67021  0.68813  1.0000
  H   H5100     1.0  0.97892  0.61194  0.83613  1.0000
  C   C2898     1.0  0.94133  0.48849  0.73789  1.0000
  H   H5101     1.0  0.79815  0.68322  0.72882  1.0000
  H   H5102     1.0  0.70462  0.70515  0.82329  1.0000
  C   C2899     1.0  0.91240  0.65498  0.75828  1.0000
  H   H5103     1.0  0.79959  0.54284  0.90637  1.0000
  C   C2900     1.0  0.58358  0.66477  0.97153  1.0000
  H   H5104     1.0  0.88065  0.67192  0.77496  1.0000
  C   C2901     1.0  0.81002  0.53294  0.89998  1.0000
  H   H5105     1.0  0.82896  0.51488  0.77389  1.0000
  H   H5106     1.0  0.90714  0.64407  0.76832  1.0000
  H   H5107     1.0  0.93639  0.63512  0.75102  1.0000
  C   C2902     1.0  0.73322  0.62409  0.96009  1.0000
  H   H5108     1.0  0.79615  0.52302  0.93397  1.0000
  C   C2903     1.0  0.80976  0.55764  0.87299  1.0000
  H   H5109     1.0  0.82276  0.53489  0.90100  1.0000
  H   H5110     1.0  0.82738  0.52669  0.92697  1.0000
  H   H5111     1.0  0.58947  0.68600  0.92841  1.0000
  H   H5112     1.0  0.82181  0.59630  0.96659  1.0000
  H   H5113     1.0  0.82408  0.69984  0.69964  1.0000
  H   H5114     1.0  0.72809  0.61279  0.96808  1.0000
  H   H5115     1.0  0.67289  0.66457  0.93979  1.0000
  C   C2904     1.0  0.63937  0.65126  0.94997  1.0000
  S   S654      1.0  0.77005  0.49508  0.96564  1.0000
  C   C2905     1.0  0.60854  0.70105  0.96407  1.0000
  H   H5116     1.0  0.68827  0.64709  0.95053  1.0000
  H   H5117     1.0  0.93491  0.49446  0.82603  1.0000
  C   C2906     1.0  0.68297  0.73200  0.87348  1.0000
  H   H5118     1.0  0.85589  0.72891  0.70376  1.0000
  H   H5119     1.0  0.81242  0.48569  0.89136  1.0000
  H   H5120     1.0  0.70727  0.53896  0.95040  1.0000
  C   C2907     1.0  0.62806  0.66637  0.95861  1.0000
  H   H5121     1.0  0.82541  0.49394  0.71152  1.0000
  H   H5122     1.0  0.62940  0.70254  0.84636  1.0000
  H   H5123     1.0  0.91664  0.49482  0.81711  1.0000
  H   H5124     1.0  0.66937  0.72152  0.82505  1.0000
  Fe  Fe331     1.0  0.90691  0.72392  0.65078  1.0000
  H   H5125     1.0  0.64867  0.71636  0.96428  1.0000
  H   H5126     1.0  0.98311  0.70041  0.70498  1.0000
  S   S655      1.0  0.87990  0.72367  0.66812  1.0000
  H   H5127     1.0  0.81038  0.52128  0.95784  1.0000
  C   C2908     1.0  0.72697  0.70243  0.95430  1.0000
  H   H5128     1.0  0.83390  0.51248  0.95560  1.0000
  H   H5129     1.0  0.70710  0.54158  0.97144  1.0000
  C   C2909     1.0  0.82676  0.70830  0.64572  1.0000
  H   H5130     1.0  0.84034  0.71175  0.66318  1.0000
  H   H5131     1.0  0.61469  0.69239  0.97502  1.0000
  H   H5132     1.0  0.67220  0.66631  0.97045  1.0000
  H   H5133     1.0  0.98778  0.73069  0.65662  1.0000
  H   H5134     1.0  0.64988  0.64357  0.95722  1.0000
  H   H5135     1.0  0.56312  0.72179  0.92590  1.0000
  H   H5136     1.0  0.73896  0.69176  0.95552  1.0000
  H   H5137     1.0  0.63716  0.67424  0.95901  1.0000
  H   H5138     1.0  0.52770  0.66429  0.96505  1.0000
  H   H5139     1.0  0.54093  0.68006  0.96156  1.0000
  H   H5140     1.0  0.66265  0.71989  0.87329  1.0000
  H   H5141     1.0  0.83485  0.50154  0.80921  1.0000
  S   S656      1.0  0.76073  0.48382  0.85388  1.0000
  H   H5142     1.0  0.73136  0.51176  0.95392  1.0000
  N   N160      1.0  0.67820  0.72413  0.84677  1.0000
  H   H5143     1.0  0.97864  0.49919  0.86192  1.0000
  C   C2910     1.0  0.52722  0.67839  0.96369  1.0000
  C   C2911     1.0  0.68221  0.67143  0.95917  1.0000
  C   C2912     1.0  0.82922  0.48986  0.72436  1.0000
  C   C2913     1.0  0.66986  0.72977  0.86389  1.0000
  H   H5144     1.0  0.66574  0.72373  0.93224  1.0000
  H   H5145     1.0  0.83962  0.72153  0.68609  1.0000
  H   H5146     1.0  0.98485  0.67691  0.69066  1.0000
  H   H5147     1.0  0.66399  0.73204  0.89840  1.0000
  H   H5148     1.0  0.71283  0.68583  0.95036  1.0000
  C   C2914     1.0  0.82769  0.73228  0.68796  1.0000
  H   H5149     1.0  0.77034  0.57678  0.97049  1.0000
  C   C2915     1.0  0.72277  0.51720  0.96526  1.0000
  H   H5150     1.0  0.62960  0.72519  0.83587  1.0000
  N   N161      1.0  0.67624  0.70349  0.96342  1.0000
  H   H5151     1.0  0.69330  0.71901  0.96505  1.0000
  C   C2916     1.0  0.69369  0.70917  0.95771  1.0000
  H   H5152     1.0  0.73042  0.51437  0.97548  1.0000
  H   H5153     1.0  0.69355  0.73348  0.82112  1.0000
  H   H5154     1.0  0.57407  0.69143  0.97550  1.0000
  C   C2917     1.0  0.69887  0.84450  0.11675  1.0000
  C   C2918     1.0  0.80117  0.79598  0.19214  1.0000
  S   S657      1.0  0.57787  0.83483  0.14174  1.0000
  N   N162      1.0  0.65754  0.91698  0.18916  1.0000
  C   C2919     1.0  0.63243  0.88182  0.19032  1.0000
  C   C2920     1.0  0.54149  0.94949  0.13713  1.0000
  C   C2921     1.0  0.56538  0.87454  0.06486  1.0000
  H   H5155     1.0  0.73058  0.94162  0.24899  1.0000
  S   S658      1.0  0.59686  0.75644  0.03120  1.0000
  Fe  Fe332     1.0  0.74898  0.88373  0.18805  1.0000
  H   H5156     1.0  0.63182  0.88432  0.17642  1.0000
  S   S659      1.0  0.63376  0.77097  0.01676  1.0000
  Fe  Fe333     1.0  0.61870  0.75796  0.04235  1.0000
  S   S660      1.0  0.60918  0.76827  0.06710  1.0000
  Fe  Fe334     1.0  0.61281  0.76766  0.00542  1.0000
  H   H5157     1.0  0.61565  0.83195  0.99138  1.0000
  H   H5158     1.0  0.51255  0.75940  0.07072  1.0000
  C   C2922     1.0  0.58293  0.95556  0.13183  1.0000
  H   H5159     1.0  0.77231  0.78250  0.23820  1.0000
  Fe  Fe335     1.0  0.60680  0.83562  0.13291  1.0000
  S   S661      1.0  0.61769  0.84463  0.10435  1.0000
  H   H5160     1.0  0.72190  0.82326  0.16933  1.0000
  Fe  Fe336     1.0  0.64166  0.83165  0.14251  1.0000
  S   S662      1.0  0.65545  0.84008  0.11457  1.0000
  H   H5161     1.0  0.60271  0.79759  0.03420  1.0000
  Fe  Fe337     1.0  0.63070  0.86087  0.11262  1.0000
  S   S663      1.0  0.63127  0.88815  0.09641  1.0000
  Fe  Fe338     1.0  0.64134  0.82295  0.10864  1.0000
  S   S664      1.0  0.65567  0.80704  0.08816  1.0000
  S   S665      1.0  0.61772  0.85390  0.14103  1.0000
  S   S666      1.0  0.62957  0.81256  0.13678  1.0000
  S   S667      1.0  0.63693  0.93686  0.14105  1.0000
  C   C2923     1.0  0.63623  0.90102  0.10757  1.0000
  C   C2924     1.0  0.63842  0.89411  0.12469  1.0000
  C   C2925     1.0  0.63961  0.90508  0.13460  1.0000
  C   C2926     1.0  0.63861  0.92300  0.12741  1.0000
  C   C2927     1.0  0.63761  0.92973  0.10988  1.0000
  C   C2928     1.0  0.63641  0.91871  0.09995  1.0000
  H   H5162     1.0  0.63843  0.88047  0.13052  1.0000
  H   H5163     1.0  0.64064  0.89979  0.14803  1.0000
  H   H5164     1.0  0.63721  0.94349  0.10413  1.0000
  H   H5165     1.0  0.63500  0.92401  0.08658  1.0000
  H   H5166     1.0  0.81898  0.74114  0.14143  1.0000
  H   H5167     1.0  0.96216  0.75319  0.25710  1.0000
  C   C2929     1.0  0.58473  0.96608  0.15750  1.0000
  H   H5168     1.0  0.65562  0.85970  0.14839  1.0000
  H   H5169     1.0  0.53664  0.81928  0.00475  1.0000
  H   H5170     1.0  0.56731  0.90732  0.05750  1.0000
  H   H5171     1.0  0.88635  0.79867  0.30455  1.0000
  C   C2930     1.0  0.62262  0.77842  0.07299  1.0000
  C   C2931     1.0  0.63904  0.78089  0.06233  1.0000
  C   C2932     1.0  0.64925  0.78942  0.06724  1.0000
  C   C2933     1.0  0.64304  0.79560  0.08274  1.0000
  C   C2934     1.0  0.62672  0.79291  0.09350  1.0000
  C   C2935     1.0  0.61648  0.78446  0.08857  1.0000
  H   H5172     1.0  0.64388  0.77622  0.05033  1.0000
  H   H5173     1.0  0.66191  0.79139  0.05892  1.0000
  H   H5174     1.0  0.62196  0.79746  0.10556  1.0000
  H   H5175     1.0  0.60377  0.78261  0.09685  1.0000
  C   C2936     1.0  0.80810  0.78150  0.20426  1.0000
  H   H5176     1.0  0.77480  0.82799  0.25130  1.0000
  H   H5177     1.0  0.55463  0.87512  0.09221  1.0000
  H   H5178     1.0  0.93335  0.77233  0.26920  1.0000
  C   C2937     1.0  0.83267  0.73848  0.29582  1.0000
  H   H5179     1.0  0.81474  0.79174  0.27586  1.0000
  H   H5180     1.0  0.56738  0.87212  0.14405  1.0000
  C   C2938     1.0  0.58712  0.95949  0.09208  1.0000
  H   H5181     1.0  0.96098  0.80164  0.30793  1.0000
  H   H5182     1.0  0.56600  0.82349  0.03837  1.0000
  H   H5183     1.0  0.76237  0.92441  0.27863  1.0000
  H   H5184     1.0  0.68784  0.94145  0.22006  1.0000
  H   H5185     1.0  0.76033  0.80877  0.21698  1.0000
  H   H5186     1.0  0.60046  0.87791  0.05625  1.0000
  H   H5187     1.0  0.58526  0.81828  0.08682  1.0000
  S   S668      1.0  0.76344  0.90532  0.17359  1.0000
  C   C2939     1.0  0.69423  0.92805  0.22626  1.0000
  H   H5188     1.0  0.82584  0.80846  0.26390  1.0000
  H   H5189     1.0  0.57355  0.88150  0.05319  1.0000
  C   C2940     1.0  0.66043  0.90994  0.20759  1.0000
  H   H5190     1.0  0.79853  0.94148  0.18086  1.0000
  H   H5191     1.0  0.74130  0.92255  0.20169  1.0000
  H   H5192     1.0  0.68877  0.84446  0.12922  1.0000
  H   H5193     1.0  0.64372  0.87063  0.19295  1.0000
  H   H5194     1.0  0.77957  0.76322  0.19980  1.0000
  H   H5195     1.0  0.65788  0.95469  0.18022  1.0000
  H   H5196     1.0  0.97392  0.76619  0.26251  1.0000
  H   H5197     1.0  0.68223  0.81778  0.13372  1.0000
  H   H5198     1.0  0.57523  0.78348  0.04826  1.0000
  H   H5199     1.0  0.69816  0.88992  0.30303  1.0000
  C   C2941     1.0  0.72526  0.85925  0.27988  1.0000
  C   C2942     1.0  0.58806  0.87461  0.00572  1.0000
  H   H5200     1.0  0.67681  0.87668  0.12156  1.0000
  H   H5201     1.0  0.70982  0.86556  0.11936  1.0000
  H   H5202     1.0  0.67686  0.89973  0.29722  1.0000
  H   H5203     1.0  0.59863  0.87788  0.08687  1.0000
  H   H5204     1.0  0.56900  0.90802  0.10240  1.0000
  S   S669      1.0  0.88790  0.76195  0.22885  1.0000
  H   H5205     1.0  0.56037  0.81446  0.99604  1.0000
  C   C2943     1.0  0.77368  0.80125  0.21352  1.0000
  C   C2944     1.0  0.56732  0.87666  0.08259  1.0000
  H   H5206     1.0  0.69214  0.93661  0.13301  1.0000
  H   H5207     1.0  0.72980  0.91921  0.25697  1.0000
  H   H5208     1.0  0.57411  0.87723  0.01319  1.0000
  C   C2945     1.0  0.57343  0.88119  0.11583  1.0000
  C   C2946     1.0  0.51273  0.90042  0.09774  1.0000
  H   H5209     1.0  0.79705  0.83245  0.27432  1.0000
  C   C2947     1.0  0.72498  0.83740  0.14194  1.0000
  H   H5210     1.0  0.57029  0.86045  0.06435  1.0000
  H   H5211     1.0  0.88867  0.80599  0.25665  1.0000
  H   H5212     1.0  0.62618  0.84226  0.06706  1.0000
  H   H5213     1.0  0.54934  0.91077  0.07526  1.0000
  H   H5214     1.0  0.85424  0.75933  0.28976  1.0000
  C   C2948     1.0  0.70330  0.86297  0.11039  1.0000
  H   H5215     1.0  0.63108  0.93102  0.19868  1.0000
  C   C2949     1.0  0.78048  0.78648  0.22548  1.0000
  H   H5216     1.0  0.57188  0.76980  0.11124  1.0000
  H   H5217     1.0  0.75028  0.76370  0.19490  1.0000
  C   C2950     1.0  0.64792  0.94957  0.19160  1.0000
  C   C2951     1.0  0.63450  0.89820  0.19456  1.0000
  H   H5218     1.0  0.79652  0.73864  0.14574  1.0000
  H   H5219     1.0  0.56810  0.93747  0.04258  1.0000
  H   H5220     1.0  0.57554  0.86796  0.11348  1.0000
  H   H5221     1.0  0.51696  0.73986  0.15914  1.0000
  H   H5222     1.0  0.50756  0.82470  0.97962  1.0000
  C   C2952     1.0  0.55907  0.77405  0.10708  1.0000
  H   H5223     1.0  0.68316  0.98040  0.29040  1.0000
  H   H5224     1.0  0.55115  0.89831  0.10476  1.0000
  H   H5225     1.0  0.68344  0.94034  0.25401  1.0000
  H   H5226     1.0  0.73768  0.79849  0.24143  1.0000
  C   C2953     1.0  0.63153  0.96448  0.19378  1.0000
  H   H5227     1.0  0.69524  0.94287  0.15116  1.0000
  H   H5228     1.0  0.67985  0.92951  0.18187  1.0000
  H   H5229     1.0  0.75834  0.83143  0.07579  1.0000
  C   C2954     1.0  0.73086  0.83114  0.10544  1.0000
  H   H5230     1.0  0.74420  0.81880  0.15634  1.0000
  H   H5231     1.0  0.79563  0.75513  0.27237  1.0000
  H   H5232     1.0  0.83913  0.74052  0.17994  1.0000
  H   H5233     1.0  0.86279  0.78557  0.25205  1.0000
  H   H5234     1.0  0.72250  0.80495  0.27856  1.0000
  H   H5235     1.0  0.60050  0.92255  0.14492  1.0000
  H   H5236     1.0  0.82926  0.97948  0.24021  1.0000
  H   H5237     1.0  0.50926  0.75169  0.11948  1.0000
  C   C2955     1.0  0.76857  0.76919  0.28121  1.0000
  C   C2956     1.0  0.51365  0.75780  0.10548  1.0000
  Fe  Fe339     1.0  0.64717  0.74343  0.01348  1.0000
  C   C2957     1.0  0.52990  0.76986  0.14105  1.0000
  C   C2958     1.0  0.59412  0.81062  0.02978  1.0000
  C   C2959     1.0  0.84662  0.76118  0.15855  1.0000
  H   H5238     1.0  0.84006  0.77700  0.24743  1.0000
  H   H5239     1.0  0.84800  0.78256  0.30137  1.0000
  H   H5240     1.0  0.81277  0.76495  0.17681  1.0000
  C   C2960     1.0  0.94553  0.77116  0.27367  1.0000
  H   H5241     1.0  0.80588  0.74484  0.20265  1.0000
  H   H5242     1.0  0.51182  0.83477  0.13839  1.0000
  C   C2961     1.0  0.76976  0.97541  0.14355  1.0000
  N   N163      1.0  0.60290  0.82525  0.02849  1.0000
  H   H5243     1.0  0.59743  0.95046  0.13108  1.0000
  H   H5244     1.0  0.94549  0.78420  0.27545  1.0000
  H   H5245     1.0  0.51311  0.81105  0.12409  1.0000
  H   H5246     1.0  0.50428  0.74788  0.17840  1.0000
  C   C2962     1.0  0.85914  0.79071  0.26416  1.0000
  S   S670      1.0  0.51275  0.81515  0.07415  1.0000
  H   H5247     1.0  0.81316  0.76232  0.15603  1.0000
  H   H5248     1.0  0.61310  0.85716  0.00822  1.0000
  C   C2963     1.0  0.57389  0.95784  0.15066  1.0000
  C   C2964     1.0  0.74746  0.79936  0.29854  1.0000
  H   H5249     1.0  0.81863  0.76501  0.29599  1.0000
  C   C2965     1.0  0.53080  0.79974  0.14265  1.0000
  Fe  Fe340     1.0  0.98942  0.73933  0.21326  1.0000
  H   H5250     1.0  0.76205  0.88545  0.25764  1.0000
  H   H5251     1.0  0.59235  0.81067  0.01676  1.0000
  H   H5252     1.0  0.58658  0.97893  0.14876  1.0000
  H   H5253     1.0  0.62559  0.96851  0.18214  1.0000
  H   H5254     1.0  0.72637  0.82286  0.29381  1.0000
  Fe  Fe341     1.0  0.49997  0.83648  0.05442  1.0000
  C   C2966     1.0  0.73371  0.81548  0.30418  1.0000
  H   H5255     1.0  0.81425  0.97958  0.26056  1.0000
  H   H5256     1.0  0.72377  0.81890  0.24670  1.0000
  C   C2967     1.0  0.75380  0.96752  0.15523  1.0000
  C   C2968     1.0  0.57554  0.81110  0.04217  1.0000
  H   H5257     1.0  0.73049  0.85964  0.30422  1.0000
  H   H5258     1.0  0.53796  0.87157  0.07378  1.0000
  Fe  Fe342     1.0  0.63625  0.96499  0.12726  1.0000
  H   H5259     1.0  0.54556  0.87692  0.05048  1.0000
  H   H5260     1.0  0.55370  0.79801  0.04948  1.0000
  H   H5261     1.0  0.95013  0.75673  0.22846  1.0000
  C   C2969     1.0  0.50367  0.82479  0.14491  1.0000
  C   C2970     1.0  0.50885  0.91880  0.09425  1.0000
  C   C2971     1.0  0.72731  0.80443  0.25160  1.0000
  H   H5262     1.0  0.56783  0.79594  0.02840  1.0000
  H   H5263     1.0  0.54856  0.87781  0.13421  1.0000
  H   H5264     1.0  0.54349  0.74030  0.03555  1.0000
  C   C2972     1.0  0.56337  0.74130  0.07276  1.0000
  C   C2973     1.0  0.62152  0.82110  0.01768  1.0000
  H   H5265     1.0  0.81291  0.94851  0.27008  1.0000
  H   H5266     1.0  0.56535  0.79960  0.14317  1.0000
  H   H5267     1.0  0.73183  0.91998  0.28646  1.0000
  H   H5268     1.0  0.84288  0.77114  0.16663  1.0000
  H   H5269     1.0  0.50215  0.82223  0.15928  1.0000
  H   H5270     1.0  0.55746  0.89488  0.13654  1.0000
  C   C2974     1.0  0.52515  0.75207  0.07489  1.0000
  C   C2975     1.0  0.58781  0.94258  0.10690  1.0000
  H   H5271     1.0  0.52209  0.75323  0.04217  1.0000
  H   H5272     1.0  0.61824  0.80850  0.99861  1.0000
  H   H5273     1.0  0.58878  0.73887  0.07867  1.0000
  H   H5274     1.0  0.73732  0.78553  0.27274  1.0000
  H   H5275     1.0  0.62907  0.83093  0.01665  1.0000
  H   H5276     1.0  0.56397  0.76267  0.14070  1.0000
  H   H5277     1.0  0.79550  0.92171  0.29770  1.0000
  C   C2976     1.0  0.61497  0.83727  0.06632  1.0000
  C   C2977     1.0  0.75172  0.87821  0.26392  1.0000
  C   C2978     1.0  0.51994  0.74376  0.09463  1.0000
  H   H5278     1.0  0.77611  0.74216  0.18185  1.0000
  H   H5279     1.0  0.76269  0.91373  0.11551  1.0000
  H   H5280     1.0  0.56445  0.75414  0.06383  1.0000
  H   H5281     1.0  0.71746  0.84134  0.08321  1.0000
  H   H5282     1.0  0.69797  0.95448  0.24184  1.0000
  H   H5283     1.0  0.72731  0.81116  0.13889  1.0000
  H   H5284     1.0  0.52940  0.77807  0.01730  1.0000
  H   H5285     1.0  0.74478  0.84033  0.05977  1.0000
  H   H5286     1.0  0.70548  0.82250  0.14714  1.0000
  H   H5287     1.0  0.71412  0.84885  0.14448  1.0000
  C   C2979     1.0  0.66450  0.85542  0.15723  1.0000
  H   H5288     1.0  0.63896  0.93767  0.17597  1.0000
  H   H5289     1.0  0.64759  0.91106  0.21733  1.0000
  H   H5290     1.0  0.74469  0.85349  0.07424  1.0000
  C   C2980     1.0  0.59265  0.89033  0.07864  1.0000
  H   H5291     1.0  0.73498  0.84292  0.10581  1.0000
  H   H5292     1.0  0.70489  0.81607  0.10399  1.0000
  H   H5293     1.0  0.74206  0.81995  0.10855  1.0000
  C   C2981     1.0  0.54330  0.77385  0.01897  1.0000
  H   H5294     1.0  0.63123  0.82267  0.04722  1.0000
  H   H5295     1.0  0.72039  0.80162  0.11630  1.0000
  C   C2982     1.0  0.73197  0.82914  0.15868  1.0000
  H   H5296     1.0  0.73601  0.84207  0.13178  1.0000
  H   H5297     1.0  0.73524  0.83936  0.16307  1.0000
  S   S671      1.0  0.67609  0.73464  0.00129  1.0000
  H   H5298     1.0  0.53846  0.81023  0.13714  1.0000
  H   H5299     1.0  0.52153  0.95960  0.12136  1.0000
  H   H5300     1.0  0.70611  0.74808  0.01476  1.0000
  C   C2983     1.0  0.82879  0.75784  0.28669  1.0000
  H   H5301     1.0  0.59697  0.78679  0.14147  1.0000
  C   C2984     1.0  0.82754  0.79395  0.26690  1.0000
  H   H5302     1.0  0.75898  0.80645  0.25351  1.0000
  C   C2985     1.0  0.57602  0.92630  0.13588  1.0000
  H   H5303     1.0  0.68983  0.89049  0.10483  1.0000
  C   C2986     1.0  0.93557  0.74908  0.19662  1.0000
  H   H5304     1.0  0.57091  0.91862  0.12982  1.0000
  H   H5305     1.0  0.54024  0.89368  0.06268  1.0000
  N   N164      1.0  0.57580  0.94451  0.12449  1.0000
  S   S672      1.0  0.75896  0.86007  0.20768  1.0000
  H   H5306     1.0  0.55343  0.76236  0.10979  1.0000
  H   H5307     1.0  0.52454  0.76427  0.10412  1.0000
  S   S673      1.0  0.51275  0.85681  0.05643  1.0000
  H   H5308     1.0  0.54719  0.94324  0.05758  1.0000
  H   H5309     1.0  0.74700  0.94407  0.11704  1.0000
  H   H5310     1.0  0.77826  0.92715  0.11227  1.0000
  S   S674      1.0  0.78723  0.95965  0.30172  1.0000
  C   C2987     1.0  0.78977  0.83717  0.26358  1.0000
  H   H5311     1.0  0.90820  0.75074  0.19710  1.0000
  H   H5312     1.0  0.84352  0.80754  0.23162  1.0000
  Fe  Fe343     1.0  0.52310  0.83618  0.07806  1.0000
  H   H5313     1.0  0.79438  0.96681  0.24863  1.0000
  H   H5314     1.0  0.82134  0.77393  0.20058  1.0000
  H   H5315     1.0  0.67520  0.78955  0.13600  1.0000
  S   S675      1.0  0.51195  0.74832  0.00938  1.0000
  H   H5316     1.0  0.86097  0.75511  0.15754  1.0000
  Fe  Fe344     1.0  0.75436  0.84451  0.19124  1.0000
  H   H5317     1.0  0.55332  0.77330  0.15820  1.0000
  H   H5318     1.0  0.81962  0.81445  0.23452  1.0000
  H   H5319     1.0  0.54837  0.77127  0.98106  1.0000
  H   H5320     1.0  0.82518  0.81847  0.28697  1.0000
  H   H5321     1.0  0.51887  0.77442  0.13398  1.0000
  H   H5322     1.0  0.76431  0.76913  0.26945  1.0000
  H   H5323     1.0  0.53398  0.79241  0.11067  1.0000
  C   C2988     1.0  0.94595  0.75701  0.29094  1.0000
  H   H5324     1.0  0.59428  0.76595  0.14022  1.0000
  H   H5325     1.0  0.64811  0.82850  0.98758  1.0000
  H   H5326     1.0  0.69668  0.84002  0.18888  1.0000
  H   H5327     1.0  0.66443  0.94053  0.15576  1.0000
  C   C2989     1.0  0.56402  0.90895  0.07110  1.0000
  H   H5328     1.0  0.50311  0.79872  0.14461  1.0000
  S   S676      1.0  0.55205  0.83059  0.07736  1.0000
  H   H5329     1.0  0.71820  0.93443  0.22700  1.0000
  H   H5330     1.0  0.62900  0.80839  0.02436  1.0000
  H   H5331     1.0  0.67204  0.88029  0.15085  1.0000
  H   H5332     1.0  0.55103  0.76436  0.01066  1.0000
  S   S677      1.0  0.85477  0.75171  0.20457  1.0000
  C   C2990     1.0  0.49484  0.92831  0.08616  1.0000
  H   H5333     1.0  0.57699  0.86467  0.08735  1.0000
  C   C2991     1.0  0.78606  0.93733  0.18553  1.0000
  H   H5334     1.0  0.70145  0.92048  0.21603  1.0000
  S   S678      1.0  0.65623  0.82314  0.16459  1.0000
  S   S679      1.0  0.75852  0.87853  0.29494  1.0000
  C   C2992     1.0  0.66693  0.83819  0.16704  1.0000
  H   H5335     1.0  0.68380  0.89324  0.23075  1.0000
  H   H5336     1.0  0.71289  0.91526  0.24240  1.0000
  H   H5337     1.0  0.70846  0.96391  0.26254  1.0000
  C   C2993     1.0  0.56590  0.89596  0.10132  1.0000
  C   C2994     1.0  0.78391  0.80576  0.19672  1.0000
  C   C2995     1.0  0.91082  0.75711  0.21997  1.0000
  C   C2996     1.0  0.67488  0.88542  0.22996  1.0000
  C   C2997     1.0  0.71778  0.82411  0.13696  1.0000
  S   S680      1.0  0.72038  0.88672  0.20170  1.0000
  H   H5338     1.0  0.91774  0.76304  0.24097  1.0000
  C   C2998     1.0  0.74544  0.83993  0.07328  1.0000
  C   C2999     1.0  0.79766  0.77655  0.22082  1.0000
  N   N165      1.0  0.71406  0.82869  0.11889  1.0000
  H   H5339     1.0  0.73095  0.81949  0.08421  1.0000
  H   H5340     1.0  0.84439  0.76771  0.14522  1.0000
  H   H5341     1.0  0.58386  0.90017  0.16505  1.0000
  C   C3000     1.0  0.73005  0.83267  0.08629  1.0000
  H   H5342     1.0  0.75948  0.91291  0.26415  1.0000
  C   C3001     1.0  0.94103  0.75533  0.22167  1.0000
  H   H5343     1.0  0.54929  0.78552  0.01460  1.0000
  C   C3002     1.0  0.54389  0.76553  0.03808  1.0000
  H   H5344     1.0  0.52344  0.89294  0.10413  1.0000
  H   H5345     1.0  0.94172  0.74570  0.28945  1.0000
  H   H5346     1.0  0.61461  0.95344  0.07803  1.0000
  H   H5347     1.0  0.69774  0.79957  0.14331  1.0000
  H   H5348     1.0  0.71218  0.86444  0.09722  1.0000
  H   H5349     1.0  0.59670  0.90062  0.08226  1.0000
  C   C3003     1.0  0.70886  0.81305  0.11671  1.0000
  H   H5350     1.0  0.75869  0.95732  0.16616  1.0000
  H   H5351     1.0  0.74590  0.94609  0.21297  1.0000
  C   C3004     1.0  0.68067  0.96427  0.27421  1.0000
  C   C3005     1.0  0.81582  0.75483  0.16904  1.0000
  C   C3006     1.0  0.73597  0.97464  0.13313  1.0000
  H   H5352     1.0  0.53656  0.77571  0.04570  1.0000
  H   H5353     1.0  0.55799  0.76186  0.03874  1.0000
  C   C3007     1.0  0.74748  0.87287  0.28220  1.0000
  H   H5354     1.0  0.62283  0.90891  0.19198  1.0000
  C   C3008     1.0  0.57027  0.83367  0.12410  1.0000
  H   H5355     1.0  0.71382  0.89954  0.27272  1.0000
  C   C3009     1.0  0.64321  0.93355  0.18864  1.0000
  H   H5356     1.0  0.59795  0.95729  0.15833  1.0000
  H   H5357     1.0  0.75787  0.76670  0.29286  1.0000
  H   H5358     1.0  0.94049  0.74559  0.18402  1.0000
  H   H5359     1.0  0.64925  0.90937  0.16984  1.0000
  C   C3010     1.0  0.75638  0.93993  0.20361  1.0000
  C   C3011     1.0  0.67383  0.86700  0.15863  1.0000
  H   H5360     1.0  0.81670  0.78405  0.25067  1.0000
  C   C3012     1.0  0.55250  0.84072  0.12303  1.0000
  H   H5361     1.0  0.54336  0.84688  0.13321  1.0000
  H   H5362     1.0  0.53792  0.75759  0.13686  1.0000
  H   H5363     1.0  0.68087  0.80054  0.11347  1.0000
  C   C3013     1.0  0.69332  0.80661  0.13097  1.0000
  C   C3014     1.0  0.76633  0.96428  0.27922  1.0000
  H   H5364     1.0  0.53241  0.76236  0.07337  1.0000
  C   C3015     1.0  0.75384  0.92653  0.19737  1.0000
  H   H5365     1.0  0.58752  0.88975  0.14703  1.0000
  S   S681      1.0  0.77606  0.96263  0.20425  1.0000
  C   C3016     1.0  0.69248  0.93219  0.14709  1.0000
  H   H5366     1.0  0.70330  0.92027  0.14880  1.0000
  C   C3017     1.0  0.67461  0.92817  0.15764  1.0000
  C   C3018     1.0  0.65177  0.90392  0.18320  1.0000
  H   H5367     1.0  0.80910  0.79951  0.17914  1.0000
  C   C3019     1.0  0.77252  0.94537  0.19761  1.0000
  H   H5368     1.0  0.67200  0.91854  0.15191  1.0000
  C   C3020     1.0  0.67484  0.92058  0.17727  1.0000
  H   H5369     1.0  0.72549  0.96164  0.18319  1.0000
  H   H5370     1.0  0.65337  0.94607  0.20348  1.0000
  C   C3021     1.0  0.83824  0.79054  0.29326  1.0000
  H   H5371     1.0  0.59340  0.88649  0.00322  1.0000
  C   C3022     1.0  0.68619  0.79394  0.12541  1.0000
  C   C3023     1.0  0.68569  0.86142  0.16979  1.0000
  C   C3024     1.0  0.67837  0.83274  0.17865  1.0000
  H   H5372     1.0  0.69180  0.84371  0.10717  1.0000
  H   H5373     1.0  0.61999  0.87804  0.19857  1.0000
  H   H5374     1.0  0.68018  0.81944  0.18640  1.0000
  N   N166      1.0  0.70538  0.93750  0.26563  1.0000
  C   C3025     1.0  0.62316  0.81985  0.99868  1.0000
  C   C3026     1.0  0.67088  0.89058  0.21176  1.0000
  C   C3027     1.0  0.68650  0.87737  0.10887  1.0000
  H   H5375     1.0  0.68014  0.87607  0.09898  1.0000
  S   S682      1.0  0.74676  0.86802  0.17060  1.0000
  C   C3028     1.0  0.68772  0.84435  0.18007  1.0000
  H   H5376     1.0  0.66261  0.89211  0.18199  1.0000
  H   H5377     1.0  0.68532  0.90840  0.17789  1.0000
  C   C3029     1.0  0.54665  0.84000  0.10862  1.0000
  H   H5378     1.0  0.53302  0.84566  0.10765  1.0000
  H   H5379     1.0  0.66324  0.88134  0.21132  1.0000
  C   C3030     1.0  0.78330  0.92450  0.17884  1.0000
  H   H5380     1.0  0.63415  0.89518  0.20872  1.0000
  C   C3031     1.0  0.58205  0.82577  0.11093  1.0000
  C   C3032     1.0  0.56182  0.94097  0.05546  1.0000
  N   N167      1.0  0.75942  0.80290  0.28063  1.0000
  H   H5381     1.0  0.59560  0.81982  0.11198  1.0000
  H   H5382     1.0  0.66774  0.91809  0.21060  1.0000
  H   H5383     1.0  0.69677  0.78224  0.12287  1.0000
  S   S683      1.0  0.69808  0.87609  0.16993  1.0000
  C   C3033     1.0  0.76724  0.91906  0.18470  1.0000
  H   H5384     1.0  0.79360  0.91891  0.16892  1.0000
  C   C3034     1.0  0.75867  0.94659  0.13718  1.0000
  H   H5385     1.0  0.89398  0.78755  0.24649  1.0000
  C   C3035     1.0  0.69773  0.94087  0.24977  1.0000
  H   H5386     1.0  0.60600  0.89062  0.15476  1.0000
  H   H5387     1.0  0.58299  0.92542  0.06767  1.0000
  H   H5388     1.0  0.68363  0.88843  0.20224  1.0000
  H   H5389     1.0  0.62799  0.87605  0.06521  1.0000
  S   S684      1.0  0.72624  0.84385  0.20546  1.0000
  S   S685      1.0  0.77485  0.82256  0.18082  1.0000
  C   C3036     1.0  0.57619  0.82491  0.09670  1.0000
  H   H5390     1.0  0.62457  0.89975  0.05913  1.0000
  C   C3037     1.0  0.59428  0.91540  0.13941  1.0000
  C   C3038     1.0  0.60207  0.88962  0.05947  1.0000
  H   H5391     1.0  0.49603  0.80649  0.01035  1.0000
  C   C3039     1.0  0.70712  0.92892  0.23642  1.0000
  H   H5392     1.0  0.68375  0.92135  0.23518  1.0000
  C   C3040     1.0  0.75772  0.77399  0.18709  1.0000
  C   C3041     1.0  0.55858  0.83212  0.09545  1.0000
  H   H5393     1.0  0.83190  0.94545  0.25217  1.0000
  C   C3042     1.0  0.56852  0.92659  0.07018  1.0000
  H   H5394     1.0  0.59686  0.90158  0.05023  1.0000
  H   H5395     1.0  0.56210  0.93120  0.08249  1.0000
  H   H5396     1.0  0.62846  0.88736  0.04276  1.0000
  H   H5397     1.0  0.58405  0.77431  0.15995  1.0000
  H   H5398     1.0  0.68177  0.87135  0.23267  1.0000
  H   H5399     1.0  0.66246  0.88731  0.24010  1.0000
  Fe  Fe345     1.0  0.71897  0.86869  0.18588  1.0000
  C   C3043     1.0  0.62197  0.88811  0.05651  1.0000
  H   H5400     1.0  0.58920  0.84099  0.00802  1.0000
  H   H5401     1.0  0.69286  0.90732  0.26595  1.0000
  S   S686      1.0  0.85049  0.74006  0.24670  1.0000
  N   N168      1.0  0.84269  0.78516  0.27601  1.0000
  C   C3044     1.0  0.89143  0.79145  0.25910  1.0000
  C   C3045     1.0  0.70055  0.95452  0.27177  1.0000
  H   H5402     1.0  0.55084  0.78586  0.08229  1.0000
  N   N169      1.0  0.57274  0.89297  0.08294  1.0000
  H   H5403     1.0  0.85386  0.76001  0.26838  1.0000
  H   H5404     1.0  0.71535  0.79913  0.25401  1.0000
  H   H5405     1.0  0.75050  0.96879  0.26040  1.0000
  C   C3046     1.0  0.60109  0.95631  0.07558  1.0000
  C   C3047     1.0  0.69964  0.90591  0.27650  1.0000
  H   H5406     1.0  0.80913  0.97960  0.19591  1.0000
  H   H5407     1.0  0.78131  0.96474  0.14010  1.0000
  S   S687      1.0  0.49468  0.97934  0.09814  1.0000
  C   C3048     1.0  0.74958  0.80855  0.26601  1.0000
  H   H5408     1.0  0.51412  0.77572  0.16654  1.0000
  H   H5409     1.0  0.74427  0.97811  0.16138  1.0000
  H   H5410     1.0  0.62095  0.84473  0.03858  1.0000
  Fe  Fe346     1.0  0.73005  0.86173  0.22019  1.0000
  C   C3049     1.0  0.83112  0.80315  0.23348  1.0000
  S   S688      1.0  0.62756  0.74142  0.99964  1.0000
  C   C3050     1.0  0.72538  0.93208  0.26076  1.0000
  H   H5411     1.0  0.54814  0.83687  0.99471  1.0000
  H   H5412     1.0  0.58649  0.88289  0.11636  1.0000
  H   H5413     1.0  0.55171  0.80027  0.11191  1.0000
  H   H5414     1.0  0.85667  0.80523  0.25944  1.0000
  H   H5415     1.0  0.74389  0.82299  0.26364  1.0000
  C   C3051     1.0  0.54612  0.87958  0.06290  1.0000
  C   C3052     1.0  0.76809  0.81750  0.27974  1.0000
  H   H5416     1.0  0.60315  0.91229  0.12713  1.0000
  H   H5417     1.0  0.68297  0.92895  0.28446  1.0000
  C   C3053     1.0  0.76782  0.96892  0.29390  1.0000
  H   H5418     1.0  0.78277  0.78854  0.26536  1.0000
  H   H5419     1.0  0.93682  0.73984  0.26428  1.0000
  C   C3054     1.0  0.73545  0.93043  0.27498  1.0000
  C   C3055     1.0  0.77407  0.78672  0.27865  1.0000
  C   C3056     1.0  0.75550  0.92564  0.26816  1.0000
  H   H5420     1.0  0.73260  0.94297  0.27912  1.0000
  C   C3057     1.0  0.69748  0.92404  0.28038  1.0000
  H   H5421     1.0  0.96017  0.77616  0.24675  1.0000
  C   C3058     1.0  0.78150  0.82285  0.26247  1.0000
  H   H5422     1.0  0.51290  0.95825  0.14442  1.0000
  C   C3059     1.0  0.80895  0.96506  0.24475  1.0000
  C   C3060     1.0  0.52196  0.76429  0.16087  1.0000
  S   S689      1.0  0.97016  0.74745  0.19563  1.0000
  C   C3061     1.0  0.52401  0.96147  0.13335  1.0000
  H   H5423     1.0  0.83856  0.73655  0.30718  1.0000
  C   C3062     1.0  0.53581  0.74909  0.04453  1.0000
  C   C3063     1.0  0.84579  0.76536  0.27995  1.0000
  H   H5424     1.0  0.56068  0.96688  0.15075  1.0000
  H   H5425     1.0  0.77940  0.84903  0.26598  1.0000
  H   H5426     1.0  0.75990  0.93596  0.25682  1.0000
  C   C3064     1.0  0.81489  0.98099  0.24643  1.0000
  C   C3065     1.0  0.94746  0.75065  0.20548  1.0000
  H   H5427     1.0  0.77302  0.91200  0.13299  1.0000
  C   C3066     1.0  0.71954  0.73932  0.01307  1.0000
  S   S690      1.0  0.51035  0.96817  0.05988  1.0000
  Fe  Fe347     1.0  0.83384  0.74354  0.22792  1.0000
  C   C3067     1.0  0.70238  0.95391  0.18240  1.0000
  H   H5428     1.0  0.70397  0.95226  0.28462  1.0000
  C   C3068     1.0  0.64250  0.81711  0.98871  1.0000
  H   H5429     1.0  0.70629  0.93953  0.18742  1.0000
  H   H5430     1.0  0.75294  0.78540  0.19343  1.0000
  H   H5431     1.0  0.72361  0.94555  0.15435  1.0000
  S   S691      1.0  0.71887  0.85781  0.24929  1.0000
  H   H5432     1.0  0.74197  0.92881  0.13777  1.0000
  H   H5433     1.0  0.67561  0.96701  0.26220  1.0000
  H   H5434     1.0  0.52927  0.79732  0.15704  1.0000
  H   H5435     1.0  0.91114  0.76205  0.30002  1.0000
  H   H5436     1.0  0.90350  0.78591  0.26454  1.0000
  C   C3069     1.0  0.75222  0.93557  0.12852  1.0000
  C   C3070     1.0  0.76754  0.92129  0.12191  1.0000
  H   H5437     1.0  0.74674  0.87742  0.23953  1.0000
  H   H5438     1.0  0.55588  0.96781  0.11746  1.0000
  C   C3071     1.0  0.56765  0.79618  0.04198  1.0000
  H   H5439     1.0  0.79918  0.84092  0.25107  1.0000
  H   H5440     1.0  0.81284  0.93684  0.25438  1.0000
  Fe  Fe348     1.0  0.51604  0.95856  0.08676  1.0000
  C   C3072     1.0  0.54598  0.78844  0.11629  1.0000
  H   H5441     1.0  0.81307  0.96352  0.23102  1.0000
  H   H5442     1.0  0.88942  0.73953  0.27413  1.0000
  C   C3073     1.0  0.87581  0.78454  0.27202  1.0000
  H   H5443     1.0  0.79255  0.81173  0.25957  1.0000
  H   H5444     1.0  0.60185  0.93783  0.10807  1.0000
  C   C3074     1.0  0.59932  0.85893  0.01606  1.0000
  H   H5445     1.0  0.52426  0.97545  0.13164  1.0000
  C   C3075     1.0  0.56092  0.88162  0.13372  1.0000
  C   C3076     1.0  0.55719  0.77578  0.14369  1.0000
  C   C3077     1.0  0.56317  0.78100  0.08737  1.0000
  H   H5446     1.0  0.58482  0.93241  0.10209  1.0000
  H   H5447     1.0  0.69122  0.88136  0.28865  1.0000
  C   C3078     1.0  0.73157  0.95059  0.16010  1.0000
  H   H5448     1.0  0.57029  0.79178  0.08401  1.0000
  H   H5449     1.0  0.95999  0.75177  0.29193  1.0000
  N   N170      1.0  0.53547  0.73942  0.06329  1.0000
  C   C3079     1.0  0.72993  0.86399  0.26162  1.0000
  S   S692      1.0  0.49996  0.84316  0.09959  1.0000
  H   H5450     1.0  0.54027  0.93574  0.13915  1.0000
  S   S693      1.0  0.52153  0.92990  0.09994  1.0000
  C   C3080     1.0  0.74315  0.87355  0.25362  1.0000
  C   C3081     1.0  0.60345  0.82555  0.04678  1.0000
  H   H5451     1.0  0.63525  0.97603  0.19529  1.0000
  H   H5452     1.0  0.57549  0.79106  0.12375  1.0000
  H   H5453     1.0  0.73787  0.95067  0.30729  1.0000
  C   C3082     1.0  0.73419  0.86342  0.29015  1.0000
  H   H5454     1.0  0.56529  0.95333  0.05518  1.0000
  C   C3083     1.0  0.92269  0.75894  0.22870  1.0000
  C   C3084     1.0  0.51221  0.80784  0.13836  1.0000
  H   H5455     1.0  0.72074  0.95933  0.12651  1.0000
  C   C3085     1.0  0.59270  0.89795  0.15237  1.0000
  H   H5456     1.0  0.73990  0.78948  0.29970  1.0000
  H   H5457     1.0  0.87341  0.78950  0.28392  1.0000
  H   H5458     1.0  0.57244  0.94519  0.15991  1.0000
  H   H5459     1.0  0.91620  0.78321  0.29356  1.0000
  H   H5460     1.0  0.72942  0.74748  0.00598  1.0000
  H   H5461     1.0  0.69343  0.95670  0.17335  1.0000
  S   S694      1.0  0.80539  0.75756  0.23563  1.0000
  H   H5462     1.0  0.75798  0.82982  0.28117  1.0000
  H   H5463     1.0  0.83184  0.79835  0.22177  1.0000
  N   N171      1.0  0.54097  0.78343  0.13596  1.0000
  H   H5464     1.0  0.77917  0.97725  0.16541  1.0000
  H   H5465     1.0  0.78270  0.78456  0.28798  1.0000
  C   C3086     1.0  0.50273  0.89164  0.09291  1.0000
  H   H5466     1.0  0.67229  0.95650  0.28503  1.0000
  C   C3087     1.0  0.91731  0.75198  0.20401  1.0000
  C   C3088     1.0  0.82898  0.78830  0.24972  1.0000
  H   H5467     1.0  0.87967  0.76999  0.27536  1.0000
  H   H5468     1.0  0.53607  0.79947  0.98698  1.0000
  C   C3089     1.0  0.57104  0.78741  0.13814  1.0000
  H   H5469     1.0  0.57188  0.77036  0.08094  1.0000
  C   C3090     1.0  0.58755  0.77793  0.14545  1.0000
  H   H5470     1.0  0.82294  0.75901  0.27554  1.0000
  H   H5471     1.0  0.60507  0.81199  0.05513  1.0000
  H   H5472     1.0  0.56692  0.92664  0.14882  1.0000
  H   H5473     1.0  0.70272  0.92199  0.29218  1.0000
  H   H5474     1.0  0.58836  0.87211  0.99294  1.0000
  H   H5475     1.0  0.57653  0.80961  0.05575  1.0000
  H   H5476     1.0  0.78830  0.75224  0.29583  1.0000
  C   C3091     1.0  0.78512  0.75150  0.17678  1.0000
  H   H5477     1.0  0.71461  0.85243  0.28610  1.0000
  H   H5478     1.0  0.55484  0.94917  0.11081  1.0000
  C   C3092     1.0  0.83674  0.81017  0.29241  1.0000
  C   C3093     1.0  0.78419  0.75356  0.28355  1.0000
  C   C3094     1.0  0.96142  0.76633  0.25915  1.0000
  S   S695      1.0  0.53753  0.97314  0.08119  1.0000
  H   H5479     1.0  0.53265  0.75728  0.16806  1.0000
  C   C3095     1.0  0.61864  0.83278  0.04859  1.0000
  H   H5480     1.0  0.78411  0.77807  0.17897  1.0000
  C   C3096     1.0  0.55728  0.95333  0.12168  1.0000
  H   H5481     1.0  0.84883  0.81471  0.28428  1.0000
  H   H5482     1.0  0.59052  0.83291  0.05326  1.0000
  H   H5483     1.0  0.61372  0.82546  0.07691  1.0000
  H   H5484     1.0  0.57400  0.96391  0.08854  1.0000
  C   C3097     1.0  0.69093  0.89357  0.29238  1.0000
  H   H5485     1.0  0.75503  0.77844  0.17375  1.0000
  H   H5486     1.0  0.57864  0.84529  0.02889  1.0000
  H   H5487     1.0  0.60258  0.84742  0.06837  1.0000
  H   H5488     1.0  0.59872  0.86246  0.02840  1.0000
  H   H5489     1.0  0.76835  0.95311  0.12658  1.0000
  C   C3098     1.0  0.59192  0.84227  0.02018  1.0000
  H   H5490     1.0  0.50234  0.76799  0.10112  1.0000
  C   C3099     1.0  0.83596  0.74693  0.16698  1.0000
  C   C3100     1.0  0.54760  0.82359  0.99405  1.0000
  H   H5491     1.0  0.71426  0.97529  0.16632  1.0000
  N   N172      1.0  0.80396  0.74195  0.17759  1.0000
  H   H5492     1.0  0.78399  0.75728  0.16299  1.0000
  Fe  Fe349     1.0  0.87232  0.74564  0.22357  1.0000
  N   N173      1.0  0.74466  0.95990  0.14618  1.0000
  H   H5493     1.0  0.77666  0.95443  0.27355  1.0000
  H   H5494     1.0  0.76647  0.93726  0.14666  1.0000
  H   H5495     1.0  0.73867  0.93860  0.16800  1.0000
  H   H5496     1.0  0.55608  0.74379  0.08580  1.0000
  C   C3101     1.0  0.71869  0.96154  0.17310  1.0000
  C   C3102     1.0  0.96202  0.77493  0.30664  1.0000
  H   H5497     1.0  0.82532  0.78754  0.30114  1.0000
  C   C3103     1.0  0.67793  0.98199  0.27870  1.0000
  S   S696      1.0  0.59726  0.79135  0.98998  1.0000
  N   N174      1.0  0.93477  0.76302  0.30726  1.0000
  C   C3104     1.0  0.73383  0.79997  0.26851  1.0000
  H   H5498     1.0  0.96681  0.77796  0.29224  1.0000
  C   C3105     1.0  0.77756  0.76701  0.18625  1.0000
  C   C3106     1.0  0.81721  0.94795  0.25606  1.0000
  H   H5499     1.0  0.59955  0.94520  0.07118  1.0000
  H   H5500     1.0  0.62146  0.96034  0.20558  1.0000
  H   H5501     1.0  0.54308  0.95124  0.14949  1.0000
  H   H5502     1.0  0.59660  0.73613  0.98495  1.0000
  S   S697      1.0  0.49900  0.82976  0.02993  1.0000
  H   H5503     1.0  0.50587  0.87749  0.09553  1.0000
  H   H5504     1.0  0.49833  0.75850  0.15766  1.0000
  H   H5505     1.0  0.65056  0.80495  0.99541  1.0000
  H   H5506     1.0  0.58967  0.97040  0.09593  1.0000
  H   H5507     1.0  0.69503  0.96021  0.19350  1.0000
  H   H5508     1.0  0.77487  0.81408  0.29082  1.0000
  H   H5509     1.0  0.59963  0.96826  0.06492  1.0000
  H   H5510     1.0  0.50886  0.73715  0.09705  1.0000
  H   H5511     1.0  0.78031  0.74128  0.28421  1.0000
  C   C3107     1.0  0.50965  0.75187  0.16415  1.0000
  H   H5512     1.0  0.70850  0.97017  0.30775  1.0000
  C   C3108     1.0  0.91622  0.77125  0.30429  1.0000
  H   H5513     1.0  0.58182  0.96908  0.12368  1.0000
  H   H5514     1.0  0.57769  0.96831  0.17073  1.0000
  H   H5515     1.0  0.84056  0.73712  0.15868  1.0000
  S   S698      1.0  0.72637  0.97720  0.22791  1.0000
  H   H5516     1.0  0.72366  0.73891  0.03792  1.0000
  C   C3109     1.0  0.75146  0.97223  0.27191  1.0000
  Fe  Fe350     1.0  0.75181  0.98329  0.21092  1.0000
  H   H5517     1.0  0.70769  0.97393  0.14041  1.0000
  C   C3110     1.0  0.75409  0.98102  0.30177  1.0000
  H   H5518     1.0  0.75552  0.79348  0.30866  1.0000
  S   S699      1.0  0.66046  0.97504  0.11158  1.0000
  C   C3111     1.0  0.71908  0.97237  0.12913  1.0000
  H   H5519     1.0  0.74574  0.97718  0.12053  1.0000
  H   H5520     1.0  0.93581  0.78995  0.30522  1.0000
  S   S700      1.0  0.61929  0.97981  0.10789  1.0000
  C   C3112     1.0  0.80592  0.73439  0.19626  1.0000
  H   H5521     1.0  0.74041  0.82433  0.30684  1.0000
  H   H5522     1.0  0.76183  0.92994  0.30889  1.0000
  C   C3113     1.0  0.54437  0.82423  0.97628  1.0000
  H   H5523     1.0  0.91889  0.73383  0.26012  1.0000
  H   H5524     1.0  0.75993  0.73803  0.07161  1.0000
  H   H5525     1.0  0.53115  0.73376  0.09930  1.0000
  H   H5526     1.0  0.57700  0.73368  0.01767  1.0000
  Fe  Fe351     1.0  0.87238  0.74555  0.48057  1.0000
  H   H5527     1.0  0.74209  0.95328  0.41308  1.0000
  S   S701      1.0  0.86339  0.77282  0.46569  1.0000
  H   H5528     1.0  0.84159  0.75071  0.57216  1.0000
  H   H5529     1.0  0.96315  0.84182  0.56439  1.0000
  H   H5530     1.0  0.74530  0.89727  0.58138  1.0000
  H   H5531     1.0  0.75084  0.91350  0.41344  1.0000
  C   C3114     1.0  0.95964  0.73599  0.48690  1.0000
  S   S702      1.0  0.96190  0.76727  0.51623  1.0000
  C   C3115     1.0  0.96593  0.83552  0.57758  1.0000
  H   H5532     1.0  0.71104  0.82193  0.32486  1.0000
  H   H5533     1.0  0.96624  0.74413  0.42550  1.0000
  H   H5534     1.0  0.96124  0.74174  0.55760  1.0000
  Fe  Fe352     1.0  0.77291  0.81498  0.46980  1.0000
  S   S703      1.0  0.74524  0.82489  0.48350  1.0000
  S   S704      1.0  0.78293  0.78800  0.46461  1.0000
  Fe  Fe353     1.0  0.78515  0.84721  0.46925  1.0000
  S   S705      1.0  0.75847  0.86014  0.48306  1.0000
  S   S706      1.0  0.81139  0.85442  0.46230  1.0000
  Fe  Fe354     1.0  0.75762  0.83326  0.50047  1.0000
  S   S707      1.0  0.75525  0.82196  0.52944  1.0000
  Fe  Fe355     1.0  0.74872  0.85047  0.46473  1.0000
  S   S708      1.0  0.72725  0.86572  0.45021  1.0000
  S   S709      1.0  0.78506  0.82139  0.48784  1.0000
  S   S710      1.0  0.77556  0.83974  0.44972  1.0000
  Fe  Fe356     1.0  0.77405  0.81858  0.33379  1.0000
  S   S711      1.0  0.74787  0.83768  0.33361  1.0000
  S   S712      1.0  0.78183  0.79273  0.32584  1.0000
  Fe  Fe357     1.0  0.79073  0.84269  0.34260  1.0000
  S   S713      1.0  0.76634  0.86414  0.34303  1.0000
  S   S714      1.0  0.81508  0.84723  0.34723  1.0000
  Fe  Fe358     1.0  0.75175  0.84300  0.35776  1.0000
  S   S715      1.0  0.72737  0.84885  0.37887  1.0000
  Fe  Fe359     1.0  0.76413  0.85765  0.31890  1.0000
  H   H5535     1.0  0.98251  0.74906  0.45394  1.0000
  S   S716      1.0  0.77646  0.82174  0.35945  1.0000
  S   S717      1.0  0.79005  0.83814  0.31708  1.0000
  S   S718      1.0  0.78442  0.91199  0.38314  1.0000
  H   H5536     1.0  0.85547  0.82150  0.63139  1.0000
  H   H5537     1.0  0.97181  0.97359  0.55772  1.0000
  H   H5538     1.0  0.95942  0.84495  0.58623  1.0000
  H   H5539     1.0  0.99436  0.80143  0.40525  1.0000
  C   C3116     1.0  0.93667  0.73726  0.38050  1.0000
  H   H5540     1.0  0.91733  0.74016  0.51065  1.0000
  C   C3117     1.0  0.77970  0.90793  0.32106  1.0000
  H   H5541     1.0  0.78505  0.76459  0.38634  1.0000
  C   C3118     1.0  0.79863  0.83793  0.52958  1.0000
  S   S719      1.0  0.79103  0.88151  0.61055  1.0000
  H   H5542     1.0  0.71245  0.91757  0.56974  1.0000
  C   C3119     1.0  0.99031  0.82191  0.59455  1.0000
  H   H5543     1.0  0.76018  0.81544  0.56408  1.0000
  Fe  Fe360     1.0  0.88257  0.75254  0.36421  1.0000
  C   C3120     1.0  0.83414  0.81318  0.31071  1.0000
  H   H5544     1.0  0.80748  0.84023  0.60647  1.0000
  C   C3121     1.0  0.91988  0.74559  0.37710  1.0000
  H   H5545     1.0  0.75828  0.90737  0.54492  1.0000
  C   C3122     1.0  0.78174  0.77587  0.51627  1.0000
  H   H5546     1.0  0.96505  0.75318  0.57830  1.0000
  H   H5547     1.0  0.84131  0.74917  0.43950  1.0000
  H   H5548     1.0  0.83700  0.74841  0.41937  1.0000
  S   S720      1.0  0.97016  0.73609  0.38238  1.0000
  C   C3123     1.0  0.77530  0.89070  0.43092  1.0000
  H   H5549     1.0  0.79713  0.76220  0.43960  1.0000
  H   H5550     1.0  0.94279  0.74501  0.41120  1.0000
  H   H5551     1.0  0.78564  0.90960  0.52938  1.0000
  H   H5552     1.0  0.94941  0.96488  0.44196  1.0000
  H   H5553     1.0  0.78858  0.77584  0.50239  1.0000
  H   H5554     1.0  0.82419  0.79093  0.59759  1.0000
  H   H5555     1.0  0.97020  0.80708  0.49032  1.0000
  H   H5556     1.0  0.86237  0.95806  0.40368  1.0000
  H   H5557     1.0  0.84297  0.95996  0.42072  1.0000
  H   H5558     1.0  0.75354  0.92250  0.60345  1.0000
  H   H5559     1.0  0.69345  0.89624  0.47063  1.0000
  C   C3124     1.0  0.73586  0.85567  0.57027  1.0000
  H   H5560     1.0  0.80712  0.73966  0.53894  1.0000
  Fe  Fe361     1.0  0.77153  0.95847  0.50326  1.0000
  H   H5561     1.0  0.74809  0.90970  0.63461  1.0000
  H   H5562     1.0  0.74028  0.91316  0.31304  1.0000
  C   C3125     1.0  0.76429  0.96606  0.57247  1.0000
  C   C3126     1.0  0.90230  0.77703  0.32023  1.0000
  H   H5563     1.0  0.68278  0.97521  0.57262  1.0000
  Fe  Fe362     1.0  0.76447  0.82790  0.62995  1.0000
  C   C3127     1.0  0.79845  0.79129  0.63715  1.0000
  C   C3128     1.0  0.69637  0.90444  0.45722  1.0000
  H   H5564     1.0  0.70549  0.88758  0.33406  1.0000
  C   C3129     1.0  0.80757  0.86475  0.35784  1.0000
  C   C3130     1.0  0.81586  0.87898  0.35217  1.0000
  C   C3131     1.0  0.80878  0.89360  0.35986  1.0000
  C   C3132     1.0  0.79380  0.89371  0.37361  1.0000
  C   C3133     1.0  0.78599  0.87914  0.37971  1.0000
  C   C3134     1.0  0.79260  0.86490  0.37153  1.0000
  H   H5565     1.0  0.82736  0.87896  0.34146  1.0000
  H   H5566     1.0  0.81502  0.90470  0.35525  1.0000
  H   H5567     1.0  0.77460  0.87897  0.39050  1.0000
  H   H5568     1.0  0.78610  0.85400  0.37576  1.0000
  C   C3135     1.0  0.74800  0.83543  0.54468  1.0000
  C   C3136     1.0  0.73773  0.85245  0.54096  1.0000
  C   C3137     1.0  0.73148  0.86247  0.55383  1.0000
  H   H5569     1.0  0.73420  0.85767  0.52837  1.0000
  H   H5570     1.0  0.72319  0.87548  0.55109  1.0000
  C   C3138     1.0  0.72816  0.86059  0.43032  1.0000
  C   C3139     1.0  0.74417  0.85678  0.41823  1.0000
  C   C3140     1.0  0.74416  0.85342  0.40219  1.0000
  C   C3141     1.0  0.72821  0.85355  0.39839  1.0000
  C   C3142     1.0  0.71230  0.85742  0.41047  1.0000
  C   C3143     1.0  0.71226  0.86114  0.42623  1.0000
  H   H5571     1.0  0.75645  0.85702  0.42099  1.0000
  H   H5572     1.0  0.75637  0.85104  0.39260  1.0000
  H   H5573     1.0  0.69990  0.85766  0.40760  1.0000
  H   H5574     1.0  0.69983  0.86427  0.43538  1.0000
  C   C3144     1.0  0.81172  0.87617  0.46074  1.0000
  H   H5575     1.0  0.84034  0.76372  0.60435  1.0000
  H   H5576     1.0  0.78350  0.88520  0.46900  1.0000
  C   C3145     1.0  0.80847  0.75485  0.36843  1.0000
  C   C3146     1.0  0.81660  0.75508  0.35087  1.0000
  C   C3147     1.0  0.80792  0.76600  0.33776  1.0000
  C   C3148     1.0  0.79138  0.77708  0.34216  1.0000
  C   C3149     1.0  0.78302  0.77641  0.35973  1.0000
  C   C3150     1.0  0.79139  0.76496  0.37284  1.0000
  H   H5577     1.0  0.82965  0.74699  0.34737  1.0000
  H   H5578     1.0  0.81438  0.76630  0.32428  1.0000
  H   H5579     1.0  0.77019  0.78487  0.36316  1.0000
  S   S721      1.0  0.76348  0.94667  0.53203  1.0000
  C   C3151     1.0  0.75091  0.78202  0.51018  1.0000
  H   H5580     1.0  0.72122  0.80846  0.37720  1.0000
  C   C3152     1.0  0.72671  0.94652  0.31764  1.0000
  H   H5581     1.0  0.71877  0.78956  0.39489  1.0000
  C   C3153     1.0  0.71992  0.95174  0.45159  1.0000
  C   C3154     1.0  0.84145  0.77676  0.46397  1.0000
  C   C3155     1.0  0.83219  0.79401  0.45909  1.0000
  C   C3156     1.0  0.81429  0.79737  0.45871  1.0000
  C   C3157     1.0  0.80571  0.78351  0.46303  1.0000
  C   C3158     1.0  0.81514  0.76620  0.46716  1.0000
  C   C3159     1.0  0.83301  0.76285  0.46776  1.0000
  H   H5582     1.0  0.83868  0.80481  0.45615  1.0000
  H   H5583     1.0  0.80707  0.81076  0.45538  1.0000
  H   H5584     1.0  0.80855  0.75545  0.47032  1.0000
  H   H5585     1.0  0.84029  0.74951  0.47087  1.0000
  H   H5586     1.0  0.73123  0.95736  0.55564  1.0000
  H   H5587     1.0  0.87005  0.94866  0.34582  1.0000
  H   H5588     1.0  0.74788  0.94165  0.44251  1.0000
  H   H5589     1.0  0.82220  0.76494  0.58203  1.0000
  C   C3160     1.0  0.71660  0.96138  0.55753  1.0000
  H   H5590     1.0  0.98063  0.82512  0.48658  1.0000
  C   C3161     1.0  0.84500  0.89341  0.63191  1.0000
  H   H5591     1.0  0.96020  0.82365  0.58278  1.0000
  C   C3162     1.0  0.98594  0.83049  0.57627  1.0000
  H   H5592     1.0  0.92076  0.74885  0.42380  1.0000
  H   H5593     1.0  0.91173  0.76529  0.44502  1.0000
  H   H5594     1.0  0.92557  0.74950  0.45773  1.0000
  H   H5595     1.0  0.97195  0.77288  0.42020  1.0000
  H   H5596     1.0  0.76765  0.75645  0.51562  1.0000
  H   H5597     1.0  0.91176  0.78896  0.47758  1.0000
  H   H5598     1.0  0.84383  0.84097  0.61095  1.0000
  C   C3163     1.0  0.93055  0.74237  0.50555  1.0000
  C   C3164     1.0  0.78563  0.92314  0.64036  1.0000
  H   H5599     1.0  0.93853  0.77848  0.57737  1.0000
  N   N175      1.0  0.75525  0.79543  0.41987  1.0000
  C   C3165     1.0  0.76844  0.80631  0.40862  1.0000
  C   C3166     1.0  0.74740  0.78965  0.40828  1.0000
  C   C3167     1.0  0.74121  0.80660  0.43130  1.0000
  C   C3168     1.0  0.76401  0.77927  0.43141  1.0000
  C   C3169     1.0  0.77974  0.76686  0.42183  1.0000
  C   C3170     1.0  0.78084  0.80968  0.41829  1.0000
  C   C3171     1.0  0.72480  0.79898  0.44195  1.0000
  C   C3172     1.0  0.73666  0.80460  0.39635  1.0000
  C   C3173     1.0  0.79138  0.75456  0.43413  1.0000
  C   C3174     1.0  0.79024  0.82435  0.40735  1.0000
  C   C3175     1.0  0.71179  0.81164  0.45285  1.0000
  H   H5600     1.0  0.76138  0.81929  0.40219  1.0000
  H   H5601     1.0  0.77691  0.80040  0.39749  1.0000
  H   H5602     1.0  0.75808  0.78220  0.39942  1.0000
  H   H5603     1.0  0.73890  0.78024  0.41616  1.0000
  H   H5604     1.0  0.73635  0.81983  0.42345  1.0000
  H   H5605     1.0  0.74692  0.80922  0.44098  1.0000
  H   H5606     1.0  0.76847  0.78305  0.44117  1.0000
  H   H5607     1.0  0.75433  0.77110  0.43932  1.0000
  H   H5608     1.0  0.78851  0.77405  0.41089  1.0000
  H   H5609     1.0  0.77454  0.75865  0.41650  1.0000
  H   H5610     1.0  0.77345  0.81352  0.43074  1.0000
  H   H5611     1.0  0.79112  0.79762  0.42136  1.0000
  H   H5612     1.0  0.72870  0.78635  0.45106  1.0000
  H   H5613     1.0  0.71758  0.79683  0.43326  1.0000
  H   H5614     1.0  0.74551  0.81283  0.38683  1.0000
  Fe  Fe363     1.0  0.84921  0.73865  0.37199  1.0000
  Fe  Fe364     1.0  0.77522  0.96658  0.63778  1.0000
  C   C3176     1.0  0.76457  0.76897  0.51990  1.0000
  H   H5615     1.0  0.74671  0.79451  0.51474  1.0000
  H   H5616     1.0  0.78060  0.83709  0.40572  1.0000
  H   H5617     1.0  0.79972  0.82551  0.41431  1.0000
  H   H5618     1.0  0.79740  0.82179  0.39427  1.0000
  H   H5619     1.0  0.71821  0.81405  0.46210  1.0000
  H   H5620     1.0  0.70698  0.82438  0.44425  1.0000
  H   H5621     1.0  0.70018  0.80594  0.46052  1.0000
  H   H5622     1.0  0.85887  0.93711  0.44179  1.0000
  C   C3177     1.0  0.95858  0.97350  0.44022  1.0000
  H   H5623     1.0  0.79821  0.91607  0.59906  1.0000
  H   H5624     1.0  0.95991  0.98315  0.41280  1.0000
  H   H5625     1.0  0.75647  0.93708  0.61484  1.0000
  C   C3178     1.0  0.97685  0.81687  0.48005  1.0000
  S   S722      1.0  0.78724  0.97757  0.45432  1.0000
  Fe  Fe365     1.0  0.99149  0.75134  0.37107  1.0000
  S   S723      1.0  0.80027  0.95773  0.49096  1.0000
  C   C3179     1.0  0.94597  0.76487  0.36940  1.0000
  H   H5626     1.0  0.75939  0.91296  0.57234  1.0000
  H   H5627     1.0  0.70700  0.95007  0.45074  1.0000
  H   H5628     1.0  0.82204  0.90923  0.48895  1.0000
  H   H5629     1.0  0.70646  0.93110  0.43207  1.0000
  Fe  Fe366     1.0  0.74103  0.85792  0.60935  1.0000
  H   H5630     1.0  0.88604  0.93160  0.35639  1.0000
  C   C3180     1.0  0.76284  0.89281  0.54798  1.0000
  H   H5631     1.0  0.75882  0.94274  0.56940  1.0000
  H   H5632     1.0  0.93395  0.79775  0.38535  1.0000
  S   S724      1.0  0.83510  0.97393  0.34703  1.0000
  H   H5633     1.0  0.79516  0.93886  0.61521  1.0000
  C   C3181     1.0  0.93780  0.75111  0.58971  1.0000
  H   H5634     1.0  0.95587  0.77244  0.36678  1.0000
  H   H5635     1.0  0.81328  0.91840  0.50806  1.0000
  S   S725      1.0  0.86159  0.75760  0.34929  1.0000
  C   C3182     1.0  0.96810  0.76587  0.43400  1.0000
  C   C3183     1.0  0.95100  0.73479  0.32613  1.0000
  H   H5636     1.0  0.80652  0.86221  0.51747  1.0000
  S   S726      1.0  0.77026  0.84715  0.60455  1.0000
  S   S727      1.0  0.76546  0.95423  0.35303  1.0000
  H   H5637     1.0  0.75064  0.88751  0.55176  1.0000
  C   C3184     1.0  0.75816  0.98179  0.40758  1.0000
  H   H5638     1.0  0.98382  0.73814  0.60869  1.0000
  C   C3185     1.0  0.75559  0.98103  0.42551  1.0000
  H   H5639     1.0  0.78526  0.89883  0.42763  1.0000
  H   H5640     1.0  0.71881  0.95532  0.41965  1.0000
  H   H5641     1.0  0.71432  0.94139  0.47971  1.0000
  C   C3186     1.0  0.84392  0.74081  0.43009  1.0000
  H   H5642     1.0  0.73875  0.78899  0.37776  1.0000
  C   C3187     1.0  0.83356  0.86663  0.63423  1.0000
  C   C3188     1.0  0.82912  0.95729  0.39434  1.0000
  N   N176      1.0  0.85231  0.80642  0.39058  1.0000
  C   C3189     1.0  0.86751  0.81500  0.38014  1.0000
  C   C3190     1.0  0.85925  0.78870  0.40146  1.0000
  C   C3191     1.0  0.84397  0.80310  0.37770  1.0000
  C   C3192     1.0  0.83830  0.81783  0.40184  1.0000
  C   C3193     1.0  0.84464  0.82991  0.40944  1.0000
  C   C3194     1.0  0.86282  0.83154  0.36571  1.0000
  C   C3195     1.0  0.82982  0.79179  0.38569  1.0000
  C   C3196     1.0  0.87069  0.78814  0.41406  1.0000
  C   C3197     1.0  0.87913  0.76916  0.42168  1.0000
  C   C3198     1.0  0.82922  0.83965  0.42145  1.0000
  C   C3199     1.0  0.87727  0.84209  0.35928  1.0000
  C   C3200     1.0  0.81872  0.79352  0.37267  1.0000
  H   H5643     1.0  0.87832  0.80552  0.37356  1.0000
  H   H5644     1.0  0.87372  0.81865  0.38873  1.0000
  H   H5645     1.0  0.84814  0.78251  0.40981  1.0000
  H   H5646     1.0  0.86717  0.77961  0.39273  1.0000
  H   H5647     1.0  0.85434  0.79646  0.36788  1.0000
  H   H5648     1.0  0.83750  0.81577  0.37006  1.0000
  H   H5649     1.0  0.82842  0.82682  0.39428  1.0000
  H   H5650     1.0  0.83062  0.80957  0.41303  1.0000
  H   H5651     1.0  0.85029  0.84009  0.39885  1.0000
  H   H5652     1.0  0.85487  0.82244  0.41697  1.0000
  H   H5653     1.0  0.86153  0.82752  0.35426  1.0000
  H   H5654     1.0  0.85005  0.84028  0.37041  1.0000
  H   H5655     1.0  0.82074  0.79572  0.39758  1.0000
  H   H5656     1.0  0.83632  0.77769  0.38933  1.0000
  H   H5657     1.0  0.88165  0.79500  0.40745  1.0000
  H   H5658     1.0  0.86229  0.79399  0.42519  1.0000
  H   H5659     1.0  0.88780  0.76248  0.41115  1.0000
  H   H5660     1.0  0.88728  0.76897  0.43067  1.0000
  H   H5661     1.0  0.86874  0.76178  0.42933  1.0000
  H   H5662     1.0  0.83412  0.84814  0.42672  1.0000
  H   H5663     1.0  0.81894  0.84811  0.41420  1.0000
  H   H5664     1.0  0.82312  0.83027  0.43266  1.0000
  H   H5665     1.0  0.89020  0.83378  0.35418  1.0000
  H   H5666     1.0  0.87376  0.85344  0.34858  1.0000
  H   H5667     1.0  0.87851  0.84719  0.37005  1.0000
  H   H5668     1.0  0.82699  0.78771  0.36143  1.0000
  H   H5669     1.0  0.80789  0.78648  0.37928  1.0000
  H   H5670     1.0  0.81269  0.80749  0.36775  1.0000
  C   C3201     1.0  0.79620  0.88882  0.46469  1.0000
  N   N177      1.0  0.84045  0.93894  0.39732  1.0000
  H   H5671     1.0  0.77776  0.89913  0.31387  1.0000
  C   C3202     1.0  0.85360  0.93639  0.38046  1.0000
  C   C3203     1.0  0.82842  0.92627  0.40162  1.0000
  C   C3204     1.0  0.84984  0.93499  0.41208  1.0000
  H   H5672     1.0  0.76087  0.96272  0.58659  1.0000
  H   H5673     1.0  0.79320  0.76236  0.58793  1.0000
  C   C3205     1.0  0.83767  0.90655  0.40311  1.0000
  C   C3206     1.0  0.86721  0.94829  0.37329  1.0000
  C   C3207     1.0  0.87851  0.94543  0.35543  1.0000
  C   C3208     1.0  0.86622  0.94411  0.42934  1.0000
  Fe  Fe367     1.0  0.75965  0.97694  0.46930  1.0000
  C   C3209     1.0  0.82413  0.89494  0.41011  1.0000
  C   C3210     1.0  0.82548  0.76861  0.63911  1.0000
  H   H5674     1.0  0.98454  0.83220  0.60232  1.0000
  H   H5675     1.0  0.86181  0.92280  0.38197  1.0000
  H   H5676     1.0  0.84638  0.93812  0.37004  1.0000
  H   H5677     1.0  0.82019  0.92983  0.39168  1.0000
  H   H5678     1.0  0.81894  0.92714  0.41439  1.0000
  H   H5679     1.0  0.84160  0.92931  0.42462  1.0000
  H   H5680     1.0  0.86206  0.92450  0.41013  1.0000
  H   H5681     1.0  0.83379  0.90224  0.62614  1.0000
  C   C3211     1.0  0.79153  0.92649  0.62219  1.0000
  Fe  Fe368     1.0  0.78839  0.93750  0.36468  1.0000
  H   H5682     1.0  0.92971  0.74404  0.60143  1.0000
  H   H5683     1.0  0.84698  0.90241  0.41201  1.0000
  H   H5684     1.0  0.84503  0.90395  0.39008  1.0000
  H   H5685     1.0  0.73903  0.77654  0.51278  1.0000
  C   C3212     1.0  0.76352  0.92380  0.32247  1.0000
  H   H5686     1.0  0.99177  0.82157  0.56708  1.0000
  H   H5687     1.0  0.97240  0.96559  0.43813  1.0000
  C   C3213     1.0  0.78812  0.89776  0.62199  1.0000
  H   H5688     1.0  0.76534  0.97248  0.43270  1.0000
  H   H5689     1.0  0.74506  0.93739  0.39150  1.0000
  C   C3214     1.0  0.85915  0.82937  0.63837  1.0000
  H   H5690     1.0  0.76453  0.89456  0.58977  1.0000
  S   S728      1.0  0.79194  0.95858  0.37509  1.0000
  H   H5691     1.0  0.96261  0.78549  0.32816  1.0000
  H   H5692     1.0  0.81505  0.89807  0.40110  1.0000
  H   H5693     1.0  0.83105  0.88091  0.41133  1.0000
  H   H5694     1.0  0.81623  0.89684  0.42319  1.0000
  N   N178      1.0  0.74643  0.91953  0.33434  1.0000
  C   C3215     1.0  0.73279  0.93657  0.33489  1.0000
  C   C3216     1.0  0.75007  0.91072  0.35237  1.0000
  H   H5695     1.0  0.78192  0.90011  0.33407  1.0000
  C   C3217     1.0  0.74089  0.90742  0.32693  1.0000
  C   C3218     1.0  0.72351  0.90146  0.33704  1.0000
  C   C3219     1.0  0.82925  0.84535  0.61367  1.0000
  S   S729      1.0  0.98754  0.76445  0.63237  1.0000
  C   C3220     1.0  0.73432  0.91271  0.36834  1.0000
  C   C3221     1.0  0.73889  0.90018  0.38503  1.0000
  H   H5696     1.0  0.98597  0.84938  0.36765  1.0000
  H   H5697     1.0  0.80238  0.95438  0.40964  1.0000
  H   H5698     1.0  0.97707  0.95870  0.59295  1.0000
  H   H5699     1.0  0.73785  0.94568  0.33926  1.0000
  H   H5700     1.0  0.72045  0.93448  0.34462  1.0000
  H   H5701     1.0  0.75579  0.89648  0.35322  1.0000
  H   H5702     1.0  0.76044  0.91585  0.35483  1.0000
  H   H5703     1.0  0.84594  0.80603  0.31629  1.0000
  H   H5704     1.0  0.71377  0.96348  0.54443  1.0000
  H   H5705     1.0  0.75798  0.76654  0.53390  1.0000
  C   C3222     1.0  0.82067  0.84267  0.63353  1.0000
  H   H5706     1.0  0.84462  0.86426  0.62291  1.0000
  H   H5707     1.0  0.72530  0.89267  0.34983  1.0000
  H   H5708     1.0  0.82408  0.96001  0.38232  1.0000
  H   H5709     1.0  0.70114  0.96846  0.59207  1.0000
  H   H5710     1.0  0.70023  0.95930  0.32982  1.0000
  H   H5711     1.0  0.71402  0.93160  0.54814  1.0000
  H   H5712     1.0  0.73112  0.92627  0.37031  1.0000
  H   H5713     1.0  0.72218  0.91018  0.36669  1.0000
  H   H5714     1.0  0.74315  0.88650  0.38323  1.0000
  H   H5715     1.0  0.74971  0.90359  0.38842  1.0000
  H   H5716     1.0  0.72712  0.90098  0.39604  1.0000
  C   C3223     1.0  0.94167  0.77637  0.31170  1.0000
  H   H5717     1.0  0.68461  0.91527  0.45534  1.0000
  C   C3224     1.0  0.93493  0.74535  0.42466  1.0000
  C   C3225     1.0  0.71849  0.92135  0.43550  1.0000
  H   H5718     1.0  0.69455  0.94779  0.57060  1.0000
  S   S730      1.0  0.88564  0.73731  0.31018  1.0000
  C   C3226     1.0  0.75918  0.89888  0.57778  1.0000
  H   H5719     1.0  0.77269  0.76721  0.58124  1.0000
  C   C3227     1.0  0.85494  0.95058  0.41559  1.0000
  H   H5720     1.0  0.86933  0.95550  0.43192  1.0000
  C   C3228     1.0  0.77059  0.88797  0.56452  1.0000
  H   H5721     1.0  0.70810  0.96210  0.39264  1.0000
  C   C3229     1.0  0.92918  0.77321  0.36576  1.0000
  C   C3230     1.0  0.87450  0.76939  0.53509  1.0000
  H   H5722     1.0  0.75645  0.78468  0.49592  1.0000
  H   H5723     1.0  0.72856  0.87823  0.32665  1.0000
  H   H5724     1.0  0.79031  0.86412  0.54737  1.0000
  H   H5725     1.0  0.99165  0.76748  0.44089  1.0000
  H   H5726     1.0  0.86438  0.76342  0.53349  1.0000
  H   H5727     1.0  0.99109  0.84265  0.57044  1.0000
  H   H5728     1.0  0.73205  0.92615  0.55916  1.0000
  C   C3231     1.0  0.80418  0.98094  0.40593  1.0000
  H   H5729     1.0  0.84398  0.77932  0.55595  1.0000
  Fe  Fe369     1.0  0.77051  0.97587  0.36179  1.0000
  C   C3232     1.0  0.71742  0.92919  0.56101  1.0000
  C   C3233     1.0  0.95754  0.75207  0.43510  1.0000
  C   C3234     1.0  0.82861  0.73972  0.59831  1.0000
  H   H5730     1.0  0.74769  0.89223  0.44109  1.0000
  H   H5731     1.0  0.73691  0.92579  0.45758  1.0000
  H   H5732     1.0  0.80082  0.88935  0.53344  1.0000
  H   H5733     1.0  0.96038  0.77586  0.44160  1.0000
  H   H5734     1.0  0.69874  0.89611  0.44776  1.0000
  C   C3235     1.0  0.78217  0.86716  0.53748  1.0000
  C   C3236     1.0  0.92131  0.78342  0.41051  1.0000
  H   H5735     1.0  0.92620  0.75136  0.33469  1.0000
  H   H5736     1.0  0.72451  0.96338  0.58429  1.0000
  H   H5737     1.0  0.73730  0.92536  0.49596  1.0000
  H   H5738     1.0  0.94193  0.78602  0.42086  1.0000
  H   H5739     1.0  0.78362  0.74615  0.44498  1.0000
  C   C3237     1.0  0.79904  0.89995  0.50633  1.0000
  C   C3238     1.0  0.75128  0.91798  0.42494  1.0000
  H   H5740     1.0  0.85915  0.75379  0.59054  1.0000
  H   H5741     1.0  0.78421  0.89022  0.56131  1.0000
  H   H5742     1.0  0.83558  0.80744  0.58474  1.0000
  S   S731      1.0  0.76632  0.94844  0.48253  1.0000
  H   H5743     1.0  0.90983  0.73806  0.38041  1.0000
  H   H5744     1.0  0.94956  0.77267  0.40531  1.0000
  C   C3239     1.0  0.93080  0.77075  0.58895  1.0000
  H   H5745     1.0  0.81903  0.74435  0.60969  1.0000
  C   C3240     1.0  0.74647  0.83880  0.57380  1.0000
  H   H5746     1.0  0.81594  0.79121  0.56817  1.0000
  H   H5747     1.0  0.76059  0.91891  0.51275  1.0000
  H   H5748     1.0  0.79308  0.81816  0.56960  1.0000
  C   C3241     1.0  0.73548  0.93667  0.44595  1.0000
  N   N179      1.0  0.84882  0.78136  0.58005  1.0000
  C   C3242     1.0  0.85432  0.78221  0.56062  1.0000
  H   H5749     1.0  0.72736  0.80273  0.33173  1.0000
  C   C3243     1.0  0.86355  0.78516  0.58554  1.0000
  C   C3244     1.0  0.87195  0.76969  0.55426  1.0000
  C   C3245     1.0  0.86009  0.78525  0.60521  1.0000
  C   C3246     1.0  0.87392  0.79263  0.60871  1.0000
  H   H5750     1.0  0.85568  0.79578  0.55344  1.0000
  C   C3247     1.0  0.73148  0.94588  0.41601  1.0000
  C   C3248     1.0  0.78164  0.89467  0.64007  1.0000
  H   H5751     1.0  0.86655  0.79799  0.57756  1.0000
  H   H5752     1.0  0.87605  0.77510  0.58306  1.0000
  H   H5753     1.0  0.88347  0.77393  0.55538  1.0000
  H   H5754     1.0  0.87210  0.75617  0.56201  1.0000
  H   H5755     1.0  0.90878  0.76704  0.48114  1.0000
  H   H5756     1.0  0.84685  0.79318  0.60996  1.0000
  S   S732      1.0  0.89542  0.77360  0.36453  1.0000
  C   C3249     1.0  0.92263  0.80029  0.39646  1.0000
  H   H5757     1.0  0.72577  0.81309  0.40396  1.0000
  H   H5758     1.0  0.87152  0.79187  0.62294  1.0000
  H   H5759     1.0  0.88744  0.78483  0.60452  1.0000
  H   H5760     1.0  0.87310  0.80658  0.60171  1.0000
  C   C3250     1.0  0.81936  0.80197  0.57139  1.0000
  H   H5761     1.0  0.80788  0.90227  0.30976  1.0000
  N   N180      1.0  0.79415  0.76618  0.52844  1.0000
  C   C3251     1.0  0.78559  0.77081  0.54599  1.0000
  C   C3252     1.0  0.70910  0.94522  0.56915  1.0000
  S   S733      1.0  0.77848  0.79951  0.62994  1.0000
  C   C3253     1.0  0.81170  0.77159  0.52088  1.0000
  C   C3254     1.0  0.81197  0.79040  0.52143  1.0000
  C   C3255     1.0  0.79630  0.76253  0.56049  1.0000
  S   S734      1.0  0.75235  0.97185  0.62513  1.0000
  C   C3256     1.0  0.82952  0.79517  0.51063  1.0000
  H   H5762     1.0  0.91029  0.80529  0.39140  1.0000
  H   H5763     1.0  0.98171  0.78633  0.31024  1.0000
  H   H5764     1.0  0.82490  0.82111  0.61082  1.0000
  H   H5765     1.0  0.82131  0.82842  0.63878  1.0000
  C   C3257     1.0  0.76317  0.95478  0.56273  1.0000
  H   H5766     1.0  0.75115  0.89528  0.32622  1.0000
  H   H5767     1.0  0.78195  0.78535  0.54459  1.0000
  C   C3258     1.0  0.79020  0.89640  0.52609  1.0000
  H   H5768     1.0  0.82219  0.76232  0.52749  1.0000
  H   H5769     1.0  0.81636  0.77069  0.50690  1.0000
  H   H5770     1.0  0.81055  0.79144  0.53502  1.0000
  H   H5771     1.0  0.79789  0.74805  0.56405  1.0000
  H   H5772     1.0  0.80966  0.76552  0.55633  1.0000
  H   H5773     1.0  0.95892  0.75030  0.60125  1.0000
  H   H5774     1.0  0.71232  0.91282  0.33903  1.0000
  H   H5775     1.0  0.83005  0.80824  0.51184  1.0000
  H   H5776     1.0  0.84093  0.78534  0.51519  1.0000
  H   H5777     1.0  0.83082  0.79571  0.49659  1.0000
  H   H5778     1.0  0.78575  0.78369  0.57470  1.0000
  N   N181      1.0  0.73397  0.93015  0.43098  1.0000
  C   C3259     1.0  0.73125  0.94185  0.39861  1.0000
  C   C3260     1.0  0.72241  0.95813  0.38674  1.0000
  C   C3261     1.0  0.95379  0.75540  0.50653  1.0000
  C   C3262     1.0  0.92527  0.76187  0.44760  1.0000
  C   C3263     1.0  0.71224  0.96292  0.32036  1.0000
  Fe  Fe370     1.0  0.78635  0.96091  0.32904  1.0000
  H   H5779     1.0  0.72207  0.96446  0.44274  1.0000
  C   C3264     1.0  0.91031  0.77927  0.47112  1.0000
  C   C3265     1.0  0.72838  0.79736  0.38595  1.0000
  H   H5780     1.0  0.80103  0.80022  0.51617  1.0000
  H   H5781     1.0  0.86094  0.77162  0.61319  1.0000
  H   H5782     1.0  0.74133  0.91068  0.52552  1.0000
  H   H5783     1.0  0.91675  0.77444  0.58782  1.0000
  C   C3266     1.0  0.93627  0.75337  0.51232  1.0000
  H   H5784     1.0  0.78511  0.74178  0.53735  1.0000
  H   H5785     1.0  0.89818  0.78467  0.46570  1.0000
  H   H5786     1.0  0.82562  0.80996  0.55896  1.0000
  H   H5787     1.0  0.92737  0.75969  0.52251  1.0000
  N   N182      1.0  0.93916  0.75897  0.43129  1.0000
  C   C3267     1.0  0.92671  0.77557  0.45667  1.0000
  H   H5788     1.0  0.82612  0.85945  0.60715  1.0000
  H   H5789     1.0  0.98877  0.94770  0.57514  1.0000
  H   H5790     1.0  0.98269  0.81145  0.60124  1.0000
  H   H5791     1.0  0.71265  0.80166  0.31899  1.0000
  H   H5792     1.0  0.77096  0.87392  0.57089  1.0000
  H   H5793     1.0  0.95585  0.97844  0.45230  1.0000
  H   H5794     1.0  0.72391  0.93146  0.40092  1.0000
  S   S735      1.0  0.99191  0.77356  0.34753  1.0000
  H   H5795     1.0  0.80247  0.74614  0.42662  1.0000
  H   H5796     1.0  0.89957  0.76541  0.33063  1.0000
  H   H5797     1.0  0.93153  0.77399  0.60103  1.0000
  H   H5798     1.0  0.72131  0.91151  0.42739  1.0000
  H   H5799     1.0  0.95689  0.74298  0.44822  1.0000
  C   C3268     1.0  0.81264  0.96134  0.40911  1.0000
  H   H5800     1.0  0.92804  0.78824  0.44740  1.0000
  H   H5801     1.0  0.93819  0.77030  0.46305  1.0000
  H   H5802     1.0  0.95279  0.76940  0.62656  1.0000
  C   C3269     1.0  0.76719  0.95937  0.54437  1.0000
  H   H5803     1.0  0.92443  0.81054  0.40196  1.0000
  H   H5804     1.0  0.91013  0.78680  0.42140  1.0000
  H   H5805     1.0  0.72372  0.95543  0.37381  1.0000
  H   H5806     1.0  0.78650  0.83260  0.53553  1.0000
  Fe  Fe371     1.0  0.77066  0.86492  0.62086  1.0000
  H   H5807     1.0  0.75757  0.90365  0.45064  1.0000
  H   H5808     1.0  0.77926  0.87867  0.44076  1.0000
  H   H5809     1.0  0.84192  0.90165  0.44900  1.0000
  C   C3270     1.0  0.79722  0.90625  0.46288  1.0000
  C   C3271     1.0  0.82814  0.88084  0.45519  1.0000
  H   H5810     1.0  0.78532  0.91614  0.46570  1.0000
  H   H5811     1.0  0.84013  0.87106  0.45219  1.0000
  H   H5812     1.0  0.75696  0.91103  0.48652  1.0000
  H   H5813     1.0  0.92631  0.78712  0.35998  1.0000
  C   C3272     1.0  0.83437  0.75528  0.58438  1.0000
  H   H5814     1.0  0.95814  0.74147  0.33115  1.0000
  C   C3273     1.0  0.81609  0.90627  0.50314  1.0000
  C   C3274     1.0  0.76459  0.89012  0.51849  1.0000
  S   S736      1.0  0.73473  0.83732  0.63377  1.0000
  H   H5815     1.0  0.73792  0.90227  0.49976  1.0000
  H   H5816     1.0  0.87541  0.79178  0.32698  1.0000
  H   H5817     1.0  0.91822  0.77421  0.40460  1.0000
  H   H5818     1.0  0.76226  0.92516  0.42036  1.0000
  H   H5819     1.0  0.87645  0.94492  0.38214  1.0000
  H   H5820     1.0  0.80445  0.82528  0.58156  1.0000
  H   H5821     1.0  0.73142  0.95401  0.47180  1.0000
  C   C3275     1.0  0.79745  0.74660  0.53048  1.0000
  C   C3276     1.0  0.74589  0.91200  0.49815  1.0000
  C   C3277     1.0  0.79321  0.91362  0.61308  1.0000
  H   H5822     1.0  0.82593  0.89596  0.50972  1.0000
  C   C3278     1.0  0.93886  0.77542  0.41693  1.0000
  H   H5823     1.0  0.77758  0.79001  0.51675  1.0000
  H   H5824     1.0  0.83381  0.75633  0.63636  1.0000
  H   H5825     1.0  0.93556  0.74848  0.57799  1.0000
  C   C3279     1.0  0.88462  0.78710  0.31546  1.0000
  S   S737      1.0  0.72803  0.86844  0.58618  1.0000
  C   C3280     1.0  0.75234  0.82865  0.56110  1.0000
  H   H5826     1.0  0.77321  0.88732  0.50594  1.0000
  C   C3281     1.0  0.84620  0.76337  0.59040  1.0000
  H   H5827     1.0  0.78704  0.86007  0.51198  1.0000
  H   H5828     1.0  0.83700  0.96731  0.39168  1.0000
  C   C3282     1.0  0.93344  0.74720  0.32225  1.0000
  C   C3283     1.0  0.80196  0.81359  0.57897  1.0000
  H   H5829     1.0  0.87363  0.78285  0.52673  1.0000
  C   C3284     1.0  0.96539  0.74678  0.49374  1.0000
  C   C3285     1.0  0.75298  0.90887  0.51452  1.0000
  H   H5830     1.0  0.75548  0.88090  0.52265  1.0000
  H   H5831     1.0  0.78999  0.91040  0.49892  1.0000
  H   H5832     1.0  0.80240  0.88823  0.50075  1.0000
  S   S738      1.0  0.80906  0.94246  0.34011  1.0000
  H   H5833     1.0  0.79499  0.80612  0.59132  1.0000
  H   H5834     1.0  0.82820  0.83757  0.59074  1.0000
  H   H5835     1.0  0.72327  0.90096  0.45925  1.0000
  C   C3286     1.0  0.72039  0.81003  0.32098  1.0000
  C   C3287     1.0  0.82203  0.83539  0.60492  1.0000
  H   H5836     1.0  0.72088  0.97147  0.61387  1.0000
  H   H5837     1.0  0.77524  0.88670  0.41901  1.0000
  H   H5838     1.0  0.71793  0.89823  0.31367  1.0000
  H   H5839     1.0  0.70866  0.92090  0.46382  1.0000
  C   C3288     1.0  0.94975  0.74683  0.37668  1.0000
  H   H5840     1.0  0.81611  0.95718  0.42204  1.0000
  C   C3289     1.0  0.91617  0.76352  0.36956  1.0000
  H   H5841     1.0  0.83591  0.97969  0.61768  1.0000
  C   C3290     1.0  0.71258  0.91186  0.45483  1.0000
  S   S739      1.0  0.81590  0.93224  0.45450  1.0000
  C   C3291     1.0  0.81374  0.91083  0.45716  1.0000
  H   H5842     1.0  0.88781  0.76131  0.53061  1.0000
  H   H5843     1.0  0.74974  0.83339  0.58648  1.0000
  C   C3292     1.0  0.83212  0.79529  0.58425  1.0000
  C   C3293     1.0  0.75696  0.90094  0.43830  1.0000
  C   C3294     1.0  0.71851  0.95303  0.47022  1.0000
  C   C3295     1.0  0.94226  0.73372  0.49280  1.0000
  N   N183      1.0  0.77525  0.88673  0.53210  1.0000
  C   C3296     1.0  0.71857  0.89077  0.32719  1.0000
  H   H5844     1.0  0.73655  0.94188  0.60670  1.0000
  C   C3297     1.0  0.99325  0.80730  0.46886  1.0000
  S   S740      1.0  0.74181  0.87724  0.62388  1.0000
  C   C3298     1.0  0.95772  0.74547  0.59029  1.0000
  C   C3299     1.0  0.82914  0.89815  0.45330  1.0000
  C   C3300     1.0  0.79386  0.85777  0.52273  1.0000
  H   H5845     1.0  0.71204  0.94162  0.58234  1.0000
  C   C3301     1.0  0.74655  0.93127  0.61268  1.0000
  H   H5846     1.0  0.88528  0.81214  0.63741  1.0000
  H   H5847     1.0  0.77084  0.86059  0.54400  1.0000
  H   H5848     1.0  0.80687  0.83461  0.53939  1.0000
  H   H5849     1.0  0.80623  0.83164  0.51851  1.0000
  H   H5850     1.0  0.77281  0.76663  0.55145  1.0000
  C   C3302     1.0  0.78641  0.76941  0.57704  1.0000
  Fe  Fe372     1.0  0.79440  0.95009  0.46928  1.0000
  Fe  Fe373     1.0  0.81013  0.96559  0.34918  1.0000
  H   H5851     1.0  0.86070  0.96241  0.37165  1.0000
  H   H5852     1.0  0.85644  0.88988  0.62124  1.0000
  H   H5853     1.0  0.80529  0.76818  0.62663  1.0000
  H   H5854     1.0  0.82239  0.87579  0.62851  1.0000
  H   H5855     1.0  0.72799  0.91516  0.62695  1.0000
  S   S741      1.0  0.88571  0.74301  0.50193  1.0000
  C   C3303     1.0  0.73768  0.92069  0.62989  1.0000
  H   H5856     1.0  0.71781  0.94237  0.63741  1.0000
  C   C3304     1.0  0.77297  0.97489  0.53588  1.0000
  H   H5857     1.0  0.72878  0.96917  0.38464  1.0000
  C   C3305     1.0  0.95557  0.75692  0.63560  1.0000
  H   H5858     1.0  0.71703  0.97177  0.32528  1.0000
  H   H5859     1.0  0.87864  0.77825  0.31182  1.0000
  H   H5860     1.0  0.86476  0.84022  0.62887  1.0000
  H   H5861     1.0  0.98397  0.88794  0.31737  1.0000
  H   H5862     1.0  0.93723  0.77606  0.32597  1.0000
  H   H5863     1.0  0.90697  0.78560  0.32560  1.0000
  H   H5864     1.0  0.70849  0.96499  0.47309  1.0000
  C   C3306     1.0  0.80526  0.73993  0.51325  1.0000
  H   H5865     1.0  0.76741  0.93372  0.32683  1.0000
  H   H5866     1.0  0.82231  0.80858  0.31960  1.0000
  H   H5867     1.0  0.97892  0.74822  0.48922  1.0000
  H   H5868     1.0  0.80010  0.92195  0.31812  1.0000
  H   H5869     1.0  0.81852  0.74290  0.50705  1.0000
  H   H5870     1.0  0.96730  0.82524  0.47193  1.0000
  H   H5871     1.0  0.80634  0.84893  0.63416  1.0000
  H   H5872     1.0  0.85843  0.73765  0.42477  1.0000
  H   H5873     1.0  0.99139  0.82360  0.62803  1.0000
  S   S742      1.0  0.82025  0.74335  0.38476  1.0000
  H   H5874     1.0  0.79669  0.74610  0.50369  1.0000
  H   H5875     1.0  0.92559  0.73906  0.31993  1.0000
  H   H5876     1.0  0.87887  0.93516  0.42471  1.0000
  H   H5877     1.0  0.93030  0.75104  0.63824  1.0000
  C   C3307     1.0  0.98520  0.75723  0.44054  1.0000
  H   H5878     1.0  0.76997  0.97403  0.40111  1.0000
  C   C3308     1.0  0.79680  0.91392  0.31101  1.0000
  C   C3309     1.0  0.71237  0.97390  0.58279  1.0000
  H   H5879     1.0  0.96936  0.76167  0.31176  1.0000
  N   N184      1.0  0.70994  0.97813  0.56423  1.0000
  C   C3310     1.0  0.98938  0.95690  0.58265  1.0000
  H   H5880     1.0  0.84895  0.90069  0.63932  1.0000
  C   C3311     1.0  0.99188  0.97450  0.57043  1.0000
  H   H5881     1.0  0.88807  0.95417  0.35055  1.0000
  C   C3312     1.0  0.80935  0.77532  0.63364  1.0000
  H   H5882     1.0  0.98468  0.87479  0.33906  1.0000
  C   C3313     1.0  0.96707  0.78793  0.31371  1.0000
  H   H5883     1.0  0.72097  0.93827  0.31294  1.0000
  S   S743      1.0  0.89732  0.74774  0.63118  1.0000
  H   H5884     1.0  0.83222  0.82741  0.31006  1.0000
  C   C3314     1.0  0.76939  0.98194  0.56382  1.0000
  S   S744      1.0  0.86846  0.73632  0.38803  1.0000
  H   H5885     1.0  0.98884  0.79884  0.46313  1.0000
  Fe  Fe374     1.0  0.99092  0.75533  0.51236  1.0000
  H   H5886     1.0  0.77643  0.97839  0.52181  1.0000
  S   S745      1.0  0.99188  0.81445  0.36343  1.0000
  C   C3315     1.0  0.97184  0.75122  0.64074  1.0000
  H   H5887     1.0  0.69665  0.92848  0.63999  1.0000
  H   H5888     1.0  0.99345  0.98287  0.57831  1.0000
  C   C3316     1.0  0.94284  0.74654  0.64217  1.0000
  H   H5889     1.0  0.99359  0.83136  0.44858  1.0000
  C   C3317     1.0  0.99292  0.87940  0.32604  1.0000
  H   H5890     1.0  0.69486  0.89802  0.64141  1.0000
  S   S746      1.0  0.79087  0.98344  0.61546  1.0000
  H   H5891     1.0  0.69234  0.88356  0.80170  1.0000
  H   H5892     1.0  0.82829  0.88150  0.65467  1.0000
  H   H5893     1.0  0.50839  0.94032  0.69614  1.0000
  C   C3318     1.0  0.82762  0.73838  0.70438  1.0000
  H   H5894     1.0  0.75579  0.88177  0.68766  1.0000
  H   H5895     1.0  0.78286  0.73522  0.69354  1.0000
  H   H5896     1.0  0.55601  0.78930  0.79749  1.0000
  S   S747      1.0  0.51359  0.84432  0.78139  1.0000
  H   H5897     1.0  0.66831  0.75909  0.82587  1.0000
  H   H5898     1.0  0.62599  0.98137  0.71766  1.0000
  C   C3319     1.0  0.78705  0.84619  0.68408  1.0000
  H   H5899     1.0  0.51687  0.84970  0.83849  1.0000
  C   C3320     1.0  0.53143  0.93551  0.74534  1.0000
  H   H5900     1.0  0.54396  0.78549  0.94308  1.0000
  C   C3321     1.0  0.64646  0.74589  0.94041  1.0000
  C   C3322     1.0  0.52292  0.85410  0.82445  1.0000
  H   H5901     1.0  0.55066  0.92844  0.76169  1.0000
  H   H5902     1.0  0.51838  0.91862  0.72889  1.0000
  C   C3323     1.0  0.52490  0.76385  0.93060  1.0000
  H   H5903     1.0  0.55594  0.74231  0.97353  1.0000
  C   C3324     1.0  0.49455  0.78345  0.83075  1.0000
  C   C3325     1.0  0.61941  0.94583  0.77723  1.0000
  H   H5904     1.0  0.67578  0.76101  0.84388  1.0000
  C   C3326     1.0  0.64374  0.91241  0.68834  1.0000
  H   H5905     1.0  0.52932  0.96103  0.70645  1.0000
  C   C3327     1.0  0.87378  0.81708  0.64736  1.0000
  C   C3328     1.0  0.72818  0.93234  0.64340  1.0000
  C   C3329     1.0  0.79339  0.75835  0.68192  1.0000
  H   H5906     1.0  0.50684  0.82271  0.81691  1.0000
  S   S748      1.0  0.78405  0.93876  0.65212  1.0000
  Fe  Fe375     1.0  0.61499  0.76487  0.86768  1.0000
  H   H5907     1.0  0.65479  0.73733  0.83645  1.0000
  S   S749      1.0  0.62890  0.76905  0.83936  1.0000
  Fe  Fe376     1.0  0.58105  0.75519  0.89105  1.0000
  H   H5908     1.0  0.51540  0.79471  0.97561  1.0000
  H   H5909     1.0  0.59680  0.98042  0.70151  1.0000
  S   S750      1.0  0.64770  0.91525  0.74277  1.0000
  H   H5910     1.0  0.49959  0.77769  0.87297  1.0000
  H   H5911     1.0  0.59896  0.80133  0.80383  1.0000
  H   H5912     1.0  0.50333  0.75304  0.94700  1.0000
  Fe  Fe377     1.0  0.59905  0.88063  0.75785  1.0000
  S   S751      1.0  0.61200  0.88782  0.77499  1.0000
  S   S752      1.0  0.56958  0.89215  0.76131  1.0000
  Fe  Fe378     1.0  0.63432  0.86103  0.73947  1.0000
  S   S753      1.0  0.64978  0.86599  0.75584  1.0000
  S   S754      1.0  0.64820  0.84767  0.71693  1.0000
  Fe  Fe379     1.0  0.62726  0.85993  0.77833  1.0000
  S   S755      1.0  0.62940  0.84897  0.80642  1.0000
  C   C3330     1.0  0.53041  0.91700  0.71822  1.0000
  S   S756      1.0  0.61302  0.85220  0.76259  1.0000
  S   S757      1.0  0.61898  0.88883  0.73345  1.0000
  C   C3331     1.0  0.50505  0.75316  0.84911  1.0000
  H   H5913     1.0  0.64814  0.75435  0.92703  1.0000
  Fe  Fe380     1.0  0.87001  0.74590  0.64724  1.0000
  H   H5914     1.0  0.63066  0.94713  0.67733  1.0000
  N   N185      1.0  0.53819  0.80458  0.95902  1.0000
  Fe  Fe381     1.0  0.73812  0.85584  0.64802  1.0000
  S   S758      1.0  0.72242  0.86502  0.67283  1.0000
  H   H5915     1.0  0.54293  0.96708  0.78211  1.0000
  H   H5916     1.0  0.56784  0.77277  0.85594  1.0000
  H   H5917     1.0  0.79497  0.81235  0.64959  1.0000
  H   H5918     1.0  0.81826  0.85812  0.66934  1.0000
  C   C3332     1.0  0.54268  0.89906  0.72381  1.0000
  H   H5919     1.0  0.51357  0.94886  0.84492  1.0000
  H   H5920     1.0  0.51261  0.94964  0.71991  1.0000
  H   H5921     1.0  0.68271  0.92751  0.66174  1.0000
  C   C3333     1.0  0.54267  0.92980  0.80549  1.0000
  C   C3334     1.0  0.51533  0.73847  0.92617  1.0000
  C   C3335     1.0  0.51660  0.74799  0.93960  1.0000
  H   H5922     1.0  0.81245  0.82880  0.67895  1.0000
  C   C3336     1.0  0.53655  0.95914  0.82681  1.0000
  H   H5923     1.0  0.70548  0.90806  0.75350  1.0000
  C   C3337     1.0  0.60098  0.78140  0.94282  1.0000
  H   H5924     1.0  0.57999  0.97429  0.78495  1.0000
  H   H5925     1.0  0.66177  0.87170  0.83135  1.0000
  C   C3338     1.0  0.54807  0.78723  0.95423  1.0000
  H   H5926     1.0  0.65945  0.74209  0.86210  1.0000
  H   H5927     1.0  0.73763  0.93973  0.64409  1.0000
  H   H5928     1.0  0.57407  0.78796  0.81649  1.0000
  H   H5929     1.0  0.81415  0.73644  0.66067  1.0000
  H   H5930     1.0  0.51946  0.94598  0.74391  1.0000
  H   H5931     1.0  0.63215  0.90721  0.68899  1.0000
  H   H5932     1.0  0.51081  0.80573  0.78929  1.0000
  H   H5933     1.0  0.64280  0.89978  0.78681  1.0000
  H   H5934     1.0  0.59899  0.91482  0.68490  1.0000
  H   H5935     1.0  0.70444  0.76606  0.82400  1.0000
  H   H5936     1.0  0.50768  0.74825  0.91679  1.0000
  H   H5937     1.0  0.50808  0.73885  0.84972  1.0000
  H   H5938     1.0  0.53934  0.83433  0.89968  1.0000
  H   H5939     1.0  0.98691  0.82674  0.71572  1.0000
  Fe  Fe382     1.0  0.61572  0.74054  0.90333  1.0000
  H   H5940     1.0  0.86897  0.80558  0.65658  1.0000
  H   H5941     1.0  0.65036  0.96973  0.75459  1.0000
  H   H5942     1.0  0.51838  0.84797  0.81645  1.0000
  C   C3339     1.0  0.66847  0.85309  0.70418  1.0000
  C   C3340     1.0  0.67773  0.84527  0.68995  1.0000
  C   C3341     1.0  0.69414  0.84902  0.67998  1.0000
  C   C3342     1.0  0.70146  0.86052  0.68429  1.0000
  C   C3343     1.0  0.69206  0.86856  0.69831  1.0000
  C   C3344     1.0  0.67560  0.86496  0.70814  1.0000
  H   H5943     1.0  0.67227  0.83614  0.68675  1.0000
  H   H5944     1.0  0.70125  0.84277  0.66919  1.0000
  H   H5945     1.0  0.80303  0.86559  0.65537  1.0000
  H   H5946     1.0  0.66855  0.87122  0.71890  1.0000
  C   C3345     1.0  0.63002  0.79103  0.83011  1.0000
  C   C3346     1.0  0.62647  0.80284  0.84082  1.0000
  C   C3347     1.0  0.62707  0.82047  0.83334  1.0000
  C   C3348     1.0  0.63061  0.82647  0.81515  1.0000
  C   C3349     1.0  0.63438  0.81463  0.80440  1.0000
  C   C3350     1.0  0.63424  0.79686  0.81190  1.0000
  H   H5947     1.0  0.62334  0.79838  0.85488  1.0000
  H   H5948     1.0  0.62440  0.82953  0.84172  1.0000
  H   H5949     1.0  0.63725  0.81920  0.79034  1.0000
  H   H5950     1.0  0.63703  0.78770  0.80359  1.0000
  C   C3351     1.0  0.59328  0.93431  0.74543  1.0000
  C   C3352     1.0  0.68426  0.87517  0.83805  1.0000
  C   C3353     1.0  0.80363  0.83917  0.67122  1.0000
  H   H5951     1.0  0.69191  0.74061  0.86486  1.0000
  H   H5952     1.0  0.52675  0.88325  0.72009  1.0000
  H   H5953     1.0  0.65551  0.86984  0.78703  1.0000
  H   H5954     1.0  0.58941  0.80011  0.83229  1.0000
  H   H5955     1.0  0.53179  0.83380  0.97476  1.0000
  C   C3354     1.0  0.83069  0.77783  0.64820  1.0000
  C   C3355     1.0  0.68197  0.85512  0.78882  1.0000
  H   H5956     1.0  0.54518  0.82598  0.84221  1.0000
  C   C3356     1.0  0.54390  0.79296  0.79222  1.0000
  H   H5957     1.0  0.54212  0.80696  0.78515  1.0000
  H   H5958     1.0  0.61175  0.97076  0.66536  1.0000
  C   C3357     1.0  0.52441  0.76497  0.88060  1.0000
  H   H5959     1.0  0.52910  0.90890  0.82124  1.0000
  H   H5960     1.0  0.56903  0.76178  0.83928  1.0000
  C   C3358     1.0  0.71033  0.93586  0.67301  1.0000
  N   N186      1.0  0.53100  0.96179  0.80987  1.0000
  H   H5961     1.0  0.79233  0.75829  0.66868  1.0000
  C   C3359     1.0  0.51158  0.79620  0.87711  1.0000
  C   C3360     1.0  0.51070  0.77944  0.87666  1.0000
  H   H5962     1.0  0.54617  0.80713  0.92104  1.0000
  C   C3361     1.0  0.53907  0.76716  0.88510  1.0000
  C   C3362     1.0  0.54002  0.78398  0.88547  1.0000
  C   C3363     1.0  0.52638  0.79850  0.88130  1.0000
  H   H5963     1.0  0.68281  0.74087  0.89622  1.0000
  C   C3364     1.0  0.54562  0.77052  0.96879  1.0000
  H   H5964     1.0  0.55102  0.78577  0.88936  1.0000
  H   H5965     1.0  0.52709  0.81146  0.88172  1.0000
  H   H5966     1.0  0.54321  0.95190  0.75383  1.0000
  H   H5967     1.0  0.51837  0.86857  0.82049  1.0000
  H   H5968     1.0  0.52737  0.92279  0.75087  1.0000
  H   H5969     1.0  0.59116  0.82385  0.76855  1.0000
  C   C3365     1.0  0.52931  0.85733  0.77642  1.0000
  C   C3366     1.0  0.54747  0.85002  0.77150  1.0000
  C   C3367     1.0  0.56002  0.86052  0.76702  1.0000
  C   C3368     1.0  0.55447  0.87824  0.76782  1.0000
  C   C3369     1.0  0.53637  0.88535  0.77328  1.0000
  C   C3370     1.0  0.52383  0.87498  0.77744  1.0000
  H   H5970     1.0  0.55179  0.83640  0.77060  1.0000
  H   H5971     1.0  0.57391  0.85501  0.76260  1.0000
  H   H5972     1.0  0.53198  0.89895  0.77415  1.0000
  H   H5973     1.0  0.50991  0.88064  0.78150  1.0000
  H   H5974     1.0  0.60489  0.92417  0.74906  1.0000
  Fe  Fe383     1.0  0.59805  0.77865  0.90077  1.0000
  C   C3371     1.0  0.52781  0.79024  0.80713  1.0000
  C   C3372     1.0  0.84573  0.74140  0.70361  1.0000
  H   H5975     1.0  0.51478  0.80140  0.95325  1.0000
  H   H5976     1.0  0.51029  0.75971  0.82099  1.0000
  H   H5977     1.0  0.69687  0.76411  0.80585  1.0000
  H   H5978     1.0  0.78067  0.83523  0.69222  1.0000
  H   H5979     1.0  0.59021  0.94493  0.75262  1.0000
  C   C3373     1.0  0.62453  0.94259  0.69133  1.0000
  C   C3374     1.0  0.51513  0.97689  0.80817  1.0000
  N   N187      1.0  0.61852  0.95769  0.70046  1.0000
  C   C3375     1.0  0.84279  0.83628  0.65186  1.0000
  C   C3376     1.0  0.59300  0.81033  0.95798  1.0000
  C   C3377     1.0  0.73152  0.90216  0.68904  1.0000
  H   H5980     1.0  0.60920  0.90268  0.82817  1.0000
  C   C3378     1.0  0.59197  0.81282  0.94065  1.0000
  H   H5981     1.0  0.60388  0.77021  0.93702  1.0000
  H   H5982     1.0  0.58515  0.98345  0.73787  1.0000
  C   C3379     1.0  0.81322  0.85413  0.66001  1.0000
  C   C3380     1.0  0.69259  0.76771  0.81878  1.0000
  H   H5983     1.0  0.54583  0.78462  0.78286  1.0000
  H   H5984     1.0  0.71951  0.93943  0.67878  1.0000
  C   C3381     1.0  0.52425  0.94894  0.70878  1.0000
  C   C3382     1.0  0.55817  0.75417  0.96316  1.0000
  H   H5985     1.0  0.60616  0.76582  0.96788  1.0000
  H   H5986     1.0  0.64067  0.96833  0.68314  1.0000
  C   C3383     1.0  0.68927  0.73660  0.83429  1.0000
  C   C3384     1.0  0.62819  0.95969  0.77202  1.0000
  C   C3385     1.0  0.54300  0.81891  0.94337  1.0000
  H   H5987     1.0  0.79291  0.74045  0.70750  1.0000
  H   H5988     1.0  0.99022  0.81424  0.73702  1.0000
  H   H5989     1.0  0.76472  0.76668  0.69046  1.0000
  H   H5990     1.0  0.52415  0.77112  0.94048  1.0000
  H   H5991     1.0  0.64427  0.95710  0.70418  1.0000
  C   C3386     1.0  0.83938  0.87694  0.64420  1.0000
  H   H5992     1.0  0.51712  0.75669  0.84990  1.0000
  H   H5993     1.0  0.61913  0.92002  0.81308  1.0000
  H   H5994     1.0  0.53901  0.75964  0.92422  1.0000
  H   H5995     1.0  0.77618  0.78431  0.68034  1.0000
  C   C3387     1.0  0.58543  0.92069  0.68247  1.0000
  H   H5996     1.0  0.52913  0.73504  0.91862  1.0000
  H   H5997     1.0  0.69570  0.96629  0.68590  1.0000
  H   H5998     1.0  0.66553  0.75364  0.88489  1.0000
  C   C3388     1.0  0.64299  0.95958  0.75813  1.0000
  H   H5999     1.0  0.50832  0.83363  0.95651  1.0000
  H   H6000     1.0  0.53674  0.83210  0.94616  1.0000
  C   C3389     1.0  0.68008  0.75642  0.83148  1.0000
  H   H6001     1.0  0.51166  0.97888  0.68419  1.0000
  H   H6002     1.0  0.77733  0.88262  0.64693  1.0000
  S   S759      1.0  0.62051  0.97709  0.78286  1.0000
  H   H6003     1.0  0.52685  0.94859  0.68107  1.0000
  H   H6004     1.0  0.53389  0.97202  0.83041  1.0000
  N   N188      1.0  0.82795  0.84979  0.64466  1.0000
  C   C3390     1.0  0.66499  0.86849  0.79518  1.0000
  H   H6005     1.0  0.74333  0.90089  0.66236  1.0000
  C   C3391     1.0  0.67785  0.88596  0.80760  1.0000
  H   H6006     1.0  0.68108  0.97700  0.67113  1.0000
  H   H6007     1.0  0.53468  0.84720  0.91582  1.0000
  H   H6008     1.0  0.69352  0.93063  0.75178  1.0000
  H   H6009     1.0  0.79932  0.83299  0.66313  1.0000
  H   H6010     1.0  0.55829  0.95589  0.79570  1.0000
  H   H6011     1.0  0.81777  0.75091  0.70538  1.0000
  H   H6012     1.0  0.65375  0.90133  0.69390  1.0000
  C   C3392     1.0  0.53829  0.81890  0.92618  1.0000
  H   H6013     1.0  0.64330  0.81573  0.97534  1.0000
  H   H6014     1.0  0.52368  0.75211  0.88002  1.0000
  H   H6015     1.0  0.65037  0.93058  0.69876  1.0000
  C   C3393     1.0  0.63987  0.93220  0.75421  1.0000
  C   C3394     1.0  0.64865  0.94602  0.74907  1.0000
  H   H6016     1.0  0.53085  0.77653  0.81471  1.0000
  H   H6017     1.0  0.56253  0.78698  0.94973  1.0000
  H   H6018     1.0  0.51206  0.97928  0.79513  1.0000
  H   H6019     1.0  0.51751  0.77292  0.92074  1.0000
  H   H6020     1.0  0.67765  0.95677  0.68650  1.0000
  C   C3395     1.0  0.51640  0.95035  0.69300  1.0000
  H   H6021     1.0  0.64133  0.89545  0.82588  1.0000
  C   C3396     1.0  0.68512  0.90589  0.65050  1.0000
  H   H6022     1.0  0.65070  0.91209  0.79675  1.0000
  H   H6023     1.0  0.67751  0.88805  0.84153  1.0000
  H   H6024     1.0  0.69084  0.88474  0.77349  1.0000
  S   S760      1.0  0.59175  0.80232  0.91209  1.0000
  H   H6025     1.0  0.77733  0.85598  0.67691  1.0000
  C   C3397     1.0  0.70932  0.91101  0.66131  1.0000
  H   H6026     1.0  0.55750  0.81809  0.94040  1.0000
  S   S761      1.0  0.58867  0.75410  0.91581  1.0000
  C   C3398     1.0  0.63396  0.96612  0.69722  1.0000
  H   H6027     1.0  0.63458  0.88030  0.81780  1.0000
  H   H6028     1.0  0.55107  0.93245  0.79211  1.0000
  C   C3399     1.0  0.68784  0.96400  0.67784  1.0000
  H   H6029     1.0  0.66007  0.94610  0.73827  1.0000
  H   H6030     1.0  0.58465  0.95066  0.72256  1.0000
  C   C3400     1.0  0.63646  0.89385  0.81512  1.0000
  C   C3401     1.0  0.77693  0.77113  0.68930  1.0000
  H   H6031     1.0  0.55404  0.94547  0.68885  1.0000
  C   C3402     1.0  0.59705  0.94164  0.72575  1.0000
  H   H6032     1.0  0.70394  0.90416  0.67478  1.0000
  C   C3403     1.0  0.53237  0.94738  0.85965  1.0000
  C   C3404     1.0  0.59554  0.79841  0.93313  1.0000
  C   C3405     1.0  0.61819  0.90616  0.81530  1.0000
  H   H6033     1.0  0.64358  0.75426  0.94996  1.0000
  H   H6034     1.0  0.52073  0.94891  0.79633  1.0000
  H   H6035     1.0  0.69759  0.87746  0.70176  1.0000
  C   C3406     1.0  0.74837  0.89180  0.69546  1.0000
  H   H6036     1.0  0.58792  0.82596  0.93318  1.0000
  H   H6037     1.0  0.67047  0.89284  0.76647  1.0000
  C   C3407     1.0  0.61239  0.95150  0.71990  1.0000
  H   H6038     1.0  0.68119  0.89686  0.66322  1.0000
  H   H6039     1.0  0.58563  0.93338  0.67280  1.0000
  C   C3408     1.0  0.57246  0.92349  0.69962  1.0000
  C   C3409     1.0  0.79471  0.73957  0.69374  1.0000
  S   S762      1.0  0.85101  0.77029  0.65479  1.0000
  H   H6040     1.0  0.74481  0.88496  0.70935  1.0000
  C   C3410     1.0  0.69994  0.95380  0.66422  1.0000
  H   H6041     1.0  0.77225  0.97737  0.69749  1.0000
  H   H6042     1.0  0.61234  0.90487  0.80504  1.0000
  H   H6043     1.0  0.54716  0.85677  0.82830  1.0000
  C   C3411     1.0  0.80354  0.80029  0.64650  1.0000
  H   H6044     1.0  0.68299  0.86471  0.85018  1.0000
  H   H6045     1.0  0.63253  0.92054  0.71249  1.0000
  N   N189      1.0  0.66749  0.88636  0.79460  1.0000
  H   H6046     1.0  0.69315  0.85521  0.79418  1.0000
  H   H6047     1.0  0.52659  0.96073  0.86232  1.0000
  H   H6048     1.0  0.67451  0.89910  0.81084  1.0000
  H   H6049     1.0  0.75699  0.90074  0.69443  1.0000
  H   H6050     1.0  0.55356  0.79293  0.83214  1.0000
  H   H6051     1.0  0.52633  0.79896  0.81588  1.0000
  H   H6052     1.0  0.54834  0.85364  0.80709  1.0000
  H   H6053     1.0  0.60801  0.94583  0.78803  1.0000
  S   S763      1.0  0.55589  0.74869  0.89031  1.0000
  N   N190      1.0  0.72058  0.92289  0.66159  1.0000
  H   H6054     1.0  0.55521  0.82934  0.96605  1.0000
  H   H6055     1.0  0.69857  0.87493  0.83249  1.0000
  H   H6056     1.0  0.68245  0.85862  0.82264  1.0000
  H   H6057     1.0  0.57214  0.75516  0.96094  1.0000
  H   H6058     1.0  0.55048  0.92508  0.68828  1.0000
  S   S764      1.0  0.76746  0.84483  0.64601  1.0000
  H   H6059     1.0  0.52779  0.91509  0.79848  1.0000
  H   H6060     1.0  0.69166  0.95238  0.65617  1.0000
  H   H6061     1.0  0.65860  0.86226  0.80849  1.0000
  C   C3412     1.0  0.54258  0.83480  0.91187  1.0000
  C   C3413     1.0  0.54606  0.96640  0.79478  1.0000
  C   C3414     1.0  0.67578  0.87194  0.82502  1.0000
  H   H6062     1.0  0.66772  0.92201  0.77281  1.0000
  C   C3415     1.0  0.53232  0.88450  0.73056  1.0000
  H   H6063     1.0  0.54880  0.89909  0.73433  1.0000
  H   H6064     1.0  0.54124  0.87178  0.73495  1.0000
  H   H6065     1.0  0.52131  0.88734  0.74181  1.0000
  H   H6066     1.0  0.80506  0.76368  0.68057  1.0000
  S   S765      1.0  0.58822  0.78098  0.87693  1.0000
  H   H6067     1.0  0.54814  0.90227  0.80468  1.0000
  H   H6068     1.0  0.54693  0.94431  0.85850  1.0000
  H   H6069     1.0  0.71764  0.90033  0.65462  1.0000
  H   H6070     1.0  0.66816  0.83581  0.78825  1.0000
  H   H6071     1.0  0.52661  0.93774  0.87089  1.0000
  H   H6072     1.0  0.68594  0.85848  0.77432  1.0000
  S   S766      1.0  0.60723  0.73907  0.87998  1.0000
  H   H6073     1.0  0.64966  0.91766  0.67449  1.0000
  H   H6074     1.0  0.61029  0.80645  0.77188  1.0000
  C   C3416     1.0  0.69210  0.91687  0.75439  1.0000
  H   H6075     1.0  0.58180  0.92799  0.74933  1.0000
  C   C3417     1.0  0.54310  0.84922  0.82126  1.0000
  H   H6076     1.0  0.55580  0.75264  0.95096  1.0000
  H   H6077     1.0  0.67493  0.83222  0.80852  1.0000
  C   C3418     1.0  0.57985  0.83416  0.82519  1.0000
  C   C3419     1.0  0.57651  0.83609  0.84427  1.0000
  C   C3420     1.0  0.58297  0.85180  0.84494  1.0000
  H   H6078     1.0  0.57740  0.84739  0.81636  1.0000
  H   H6079     1.0  0.59433  0.82900  0.82124  1.0000
  H   H6080     1.0  0.60233  0.82328  0.79452  1.0000
  H   H6081     1.0  0.58382  0.82407  0.85197  1.0000
  H   H6082     1.0  0.56229  0.83791  0.85084  1.0000
  H   H6083     1.0  0.57492  0.86424  0.83866  1.0000
  H   H6084     1.0  0.58169  0.85207  0.85875  1.0000
  H   H6085     1.0  0.59709  0.85092  0.83810  1.0000
  C   C3421     1.0  0.62528  0.93206  0.76836  1.0000
  H   H6086     1.0  0.51354  0.78283  0.79290  1.0000
  H   H6087     1.0  0.69112  0.82723  0.78926  1.0000
  C   C3422     1.0  0.81956  0.79350  0.65213  1.0000
  H   H6088     1.0  0.72441  0.91165  0.69748  1.0000
  C   C3423     1.0  0.64947  0.89862  0.79747  1.0000
  C   C3424     1.0  0.51863  0.80496  0.96365  1.0000
  H   H6089     1.0  0.83794  0.82439  0.66004  1.0000
  H   H6090     1.0  0.57704  0.93235  0.70473  1.0000
  H   H6091     1.0  0.74573  0.91957  0.66812  1.0000
  H   H6092     1.0  0.55322  0.89566  0.71246  1.0000
  C   C3425     1.0  0.67881  0.83647  0.79408  1.0000
  C   C3426     1.0  0.63822  0.92664  0.69888  1.0000
  H   H6093     1.0  0.77753  0.77233  0.70232  1.0000
  C   C3427     1.0  0.68040  0.91216  0.77255  1.0000
  C   C3428     1.0  0.59386  0.81418  0.79567  1.0000
  C   C3429     1.0  0.54511  0.93494  0.72779  1.0000
  C   C3430     1.0  0.52673  0.94561  0.80787  1.0000
  H   H6094     1.0  0.79049  0.85239  0.69282  1.0000
  H   H6095     1.0  0.72322  0.89267  0.69106  1.0000
  H   H6096     1.0  0.49933  0.97563  0.83491  1.0000
  C   C3431     1.0  0.67739  0.89326  0.77636  1.0000
  C   C3432     1.0  0.53914  0.93910  0.75869  1.0000
  H   H6097     1.0  0.62364  0.94313  0.72576  1.0000
  N   N191      1.0  0.56975  0.82245  0.82249  1.0000
  H   H6098     1.0  0.56938  0.80446  0.84768  1.0000
  H   H6099     1.0  0.68689  0.91352  0.78227  1.0000
  C   C3433     1.0  0.73605  0.91153  0.66945  1.0000
  C   C3434     1.0  0.57477  0.80432  0.83358  1.0000
  C   C3435     1.0  0.59604  0.81135  0.77741  1.0000
  H   H6100     1.0  0.57155  0.83582  0.79539  1.0000
  H   H6101     1.0  0.58862  0.80149  0.77798  1.0000
  H   H6102     1.0  0.52558  0.91578  0.70724  1.0000
  C   C3436     1.0  0.53648  0.91302  0.80764  1.0000
  C   C3437     1.0  0.51101  0.79356  0.79986  1.0000
  C   C3438     1.0  0.57430  0.82224  0.80333  1.0000
  H   H6103     1.0  0.55639  0.92407  0.73105  1.0000
  H   H6104     1.0  0.61849  0.92143  0.77248  1.0000
  H   H6105     1.0  0.52399  0.81934  0.92817  1.0000
  S   S767      1.0  0.62573  0.76515  0.89008  1.0000
  H   H6106     1.0  0.52882  0.93960  0.77086  1.0000
  H   H6107     1.0  0.53350  0.93253  0.84135  1.0000
  H   H6108     1.0  0.70092  0.92967  0.68432  1.0000
  C   C3439     1.0  0.54996  0.82918  0.82775  1.0000
  H   H6109     1.0  0.54280  0.82226  0.82290  1.0000
  H   H6110     1.0  0.55694  0.83466  0.90909  1.0000
  H   H6111     1.0  0.61302  0.93768  0.69114  1.0000
  H   H6112     1.0  0.84728  0.84127  0.66086  1.0000
  H   H6113     1.0  0.77674  0.90435  0.66337  1.0000
  N   N192      1.0  0.53852  0.93282  0.71305  1.0000
  H   H6114     1.0  0.57334  0.91065  0.70904  1.0000
  Fe  Fe384     1.0  0.63321  0.89330  0.75121  1.0000
  H   H6115     1.0  0.55109  0.92737  0.81495  1.0000
  H   H6116     1.0  0.58169  0.91152  0.67700  1.0000
  H   H6117     1.0  0.58843  0.76810  0.84025  1.0000
  C   C3440     1.0  0.60230  0.77891  0.96025  1.0000
  H   H6118     1.0  0.55034  0.94717  0.72366  1.0000
  C   C3441     1.0  0.52814  0.94627  0.84294  1.0000
  H   H6119     1.0  0.68560  0.78176  0.81694  1.0000
  C   C3442     1.0  0.69312  0.91979  0.65296  1.0000
  C   C3443     1.0  0.56823  0.78972  0.83003  1.0000
  C   C3444     1.0  0.57376  0.77204  0.84212  1.0000
  H   H6120     1.0  0.56555  0.81548  0.80044  1.0000
  H   H6121     1.0  0.55812  0.79807  0.97455  1.0000
  H   H6122     1.0  0.60027  0.93040  0.71943  1.0000
  H   H6123     1.0  0.51635  0.94094  0.81898  1.0000
  H   H6124     1.0  0.67435  0.73851  0.93888  1.0000
  C   C3445     1.0  0.55331  0.93199  0.69686  1.0000
  H   H6125     1.0  0.55116  0.95408  0.82519  1.0000
  H   H6126     1.0  0.59255  0.96367  0.69466  1.0000
  H   H6127     1.0  0.58974  0.82156  0.96381  1.0000
  H   H6128     1.0  0.60778  0.96278  0.72636  1.0000
  H   H6129     1.0  0.49610  0.92546  0.78426  1.0000
  H   H6130     1.0  0.84980  0.75125  0.69164  1.0000
  C   C3446     1.0  0.67315  0.74014  0.88920  1.0000
  C   C3447     1.0  0.59802  0.79343  0.96786  1.0000
  C   C3448     1.0  0.50597  0.82232  0.96749  1.0000
  H   H6131     1.0  0.82333  0.80037  0.65961  1.0000
  C   C3449     1.0  0.50408  0.96833  0.68874  1.0000
  H   H6132     1.0  0.83028  0.74310  0.67637  1.0000
  C   C3450     1.0  0.60754  0.98018  0.67404  1.0000
  H   H6133     1.0  0.70942  0.96194  0.65561  1.0000
  H   H6134     1.0  0.68597  0.91582  0.74422  1.0000
  C   C3451     1.0  0.49777  0.97507  0.82203  1.0000
  H   H6135     1.0  0.70185  0.73483  0.83837  1.0000
  H   H6136     1.0  0.63498  0.73994  0.94261  1.0000
  C   C3452     1.0  0.97536  0.73510  0.65244  1.0000
  H   H6137     1.0  0.50415  0.78677  0.83608  1.0000
  C   C3453     1.0  0.78104  0.90707  0.64931  1.0000
  C   C3454     1.0  0.54423  0.80572  0.97459  1.0000
  H   H6138     1.0  0.52464  0.73910  0.94897  1.0000
  H   H6139     1.0  0.67320  0.91233  0.64493  1.0000
  C   C3455     1.0  0.60320  0.97047  0.69344  1.0000
  H   H6140     1.0  0.53189  0.76865  0.97155  1.0000
  H   H6141     1.0  0.84509  0.74639  0.71516  1.0000
  H   H6142     1.0  0.49760  0.96874  0.67825  1.0000
  H   H6143     1.0  0.85075  0.86877  0.65001  1.0000
  C   C3456     1.0  0.49942  0.76332  0.83204  1.0000
  H   H6144     1.0  0.87830  0.82410  0.65459  1.0000
  S   S768      1.0  0.50766  0.98360  0.73244  1.0000
