data_image0
_chemical_formula_structural       FeSFeS2FeSFeS2H4SHFeS2HCHFeSHFeS2FeHFeS3HCH4FeSHFeS2FeS2FeSFeS3HCNC4NHC7H4C6H5C2H2SCH2CHCHCH5C6H4C4H2CHC7H2CH7SC6H4C4HCH3C2H2C2HCH2CHC2SH2CH2CHCH7SH9CHCHSH5CHFeCHCH4CH6SCHNC12H16CHCH12SCH2CH5CH2CH2CNC7H2C3H9CH7C2HCH7NC12H28C2H3SH2CH5SH8CSH4CH2CHCH6CH3CH3NC7H2C3H3FeHSH4CHSCH4C2HC2HCHNH4C2HCH2FeHC3H3CH2CHC2H2CH2CHCH2CH3CH3CH7NH2SHCSNH2SCFeHFeH4C3H3CH5CH2CH4SH8SHC2HCHCFeHSHSH2C3H2CHCHCH3CH3SCHFeCH3FeH2SC4HFeS2FeS2FeSFeS3CHCHCS2FeSHCFeS2FeS2FeSFeS3FeSHFeS2FeHFeS4NHFeS2FeS2FeSFeS4FeCSH2SFeS2HCHC6H2CHC4H3C6H5C4H2SHCH2CH2C3HC6H4C4H2C6H4C6H4C5HC2H4C6H4C6H4C6H3SCH3C2SC3H5FeH6CH4CH4FeCSC2HC3H5CNC3H6C3H11CH6CH2CH2C4H5FeSH3CH4C3H12CH2CH2NC12H18SH9CH4CH7NH2CH3C2H2CHCH4CHSCH5CH2CH4CH2CH2C2SH3CHC2HCNHC2HFeCH9C2H2CH2C2SH3CH2CH2CHFeC2HCHC2SCH2C2HCHSHSCH3CH5CH4CHCHCHC4H3CHCH3CH2C2SH2CH3CH6C2H3SH4NH2C2H2NH2CHS2C3HFeC2H3C2H5CH3CHCHFeHCHNC3SHNH2CH2C2HCHNH3CNH2CH3CHC3H3CHC3H3CH6CH3SH11CH6C2H3CHCH2CNH4NCH6C2H2C3SCH2C2H5C3H5CH2FeH2SH2C2HC2H6CH2CH2C2H5CHC2HCH2NH6FeCSHS2H2FeS2H2FeSH2SHSH3SH4CHFeS2FeS2FeSFeS3HCFeS2CFeS2FeS2FeSFeS3H2CS2H5CHCHCH2C6H4C6H4C2HCHCNHCHCSHC3HCH2C5H4CHCHFeSHSC7H2CH2C6H8C2H2CHC4H3C6H4C6H6CHCHNC6S2HCH24CH5CH2FeH3NC2H4C2H2FeCH2CSH7CH2CH2SHCSC2H3C2H3C2H6C2HCH5FeCHCSCHCH5NC12H29NC8HC3H15CH8CHCH6C4NH2SC2HC2HCHCHC2HC2H7FeH2C4H2CH2C2HSCSHCHNCH2FeH2CHCH4CHFeH3CHCHCHC5H2CH3CHCH4CSCHSHSCH2CFeCFeCHCFeHCHSH6CFeSH3CHCHCH3FeH2C3SCHC2H3CH2CSHCH4CHC2H3CHNCH2C3HC3NHSNSH7SH2CH5NSHCHC3HCHC2H3CHSH6CHCH2CH6CH6SCH2CH2NCH5CHCHCH2CHCH3CH4SHCH2C2HCH2FeH2C3H4CH6CH8CH9CH3C2HNH2CH2CHFeH2CH2C5SH3C2HCHCH2CH3FeHC5HCHCHCH3NH3CH2CH5CH2CH5CHC2H2CHCH2CHC2H3CH2FeSHSH3SH3SCH4FeS2FeS2FeSFeS3HNCHCH4FeS2FeS2FeSFeS3FeS2FeSHSHCH4SCHNCH2CHCH2SH7C3H4CH2C4H2CH4CH3CH2C6H4C6H4C6H4C6H4CH3CHSC4H3CHCHCH2C3HCH5C6H6CHSH5FeC2FeHCHC3H2C2H2C2H3CH3CHCHC2NC12H29CHCH2CHCH4SH3CH4S2CH5CHSC3HCH3SC2HCH2SHC2FeNCHC3H3CH2C3SCH2CH2NC9H11CH9CH2CH5NCHC5SCHS2HSCH2C2HSH3C3HC2FeC2H3CH2CHC2H5C2H3C2HCHCH3CH9CHCHCH2NH5CHC2H6CSC2HCH3NFeH2C3NH3C2H11C3H2CH2FeC2HCH2C3HNCHSHCHCHN2H3CHC5H10C3HC2HCH3FeHSH2CHCH3CSCH4C3H2CH7SCHFeC2SH2SC3H4C2NCFeCH3CH3CH5C3H2SHCH5CHCSCHCH3CHCH2CHCNCH5CH3FeH3C3H9NH3CH2CH9C2HCFe2S2FeSCSHFeS2FeS2FeSFeS3Fe2S2FeSFeS2HCHFeCHCSHCHCHFeS2FeSFeSH2C2NH2NS2CFeS2FeS2C8H4CHCSC3H5NCHC2HC6H7C6H4C6H4C6H5C6H4C6H4FeC4H2NSNC12H17CH10NC10H18C3H13CH2CH2C4HC2H4SC2HCH2C2HSH3CHCH6CH2NC2SC3HC4H13CH13FeHCH4CH2CH2NH2NC12H29CSCHCH2C2HCH2C3HNSCH6SH3C2H2CHCH3CHC4H5CHCHSH7CSH3SC3H10CHCH3C3HCHCH3CH2CH2C2H2FeCHCH2CH4CH11C2SHCH6CH5C2H4CHCHC2NH3CHCH2C2HCH7SH2CHCHFeH2CHCH4CH6CHC2HCHNH2CHC2SHCH3CH2FeH5C3H2SH5CHC2H3NCFeHCH4C3H2C2SH2CH3FeH2SH2CSH2CHSHCH4CH5C2H2C2H2CH3CH2CH3C2HSH4FeHFeH2CHFeS2FeS2FeSHSH4FeS2FeS2FeSFeS3H2SH2CFeS2FeHFeSCHS2CFeC2H3CHC6H4C6H6CHCH4C6H4NH2CHCHFeHC5HCH3C2H5C2H3C7H3NC2HCH3CHCHCH2C2H3CHSHC2H3NH3CHCH7C2H2C2HNC2H7CHCH2CH4CH2SCH2CHCH3CH3SCH2CHC2H2NHCH2CHCHCHFeH5CH6CH4C3H4CH4CH6C3HNC12H32C3H2C3HSH8SHSCH2CH5NCHSCHFeCFeH2CHC2H2SHC3H5CHCFeH2CH3CH2CH2C2HCH3CH3CHCSH2SHC2H7CH6CH2S2HCFeSHFeS2FeHFeS3FeS2FeS2FeSFeS3FeS2FeS2FeSFeS3FeS2CHS2HFeS2FeSCFeSFeS3CH3SFeSH5FeS2HCFeS2HC2H3CHC6H4C2SC3NCH3SC4H2C6H4CHSHC2NH2C6H4C6H4C6H4C6H4C6H5CH3C2HSC6H4C6H5FeH3CH7FeC3H3CH5C2SH2CNC12H24CH2C2H4C2H6C2H2C2H14CH3CHCH5NC12H28NCHC3H3C2NHCHCH4CHCNC12H29SH2CH2C3H2CH6NCHC4H2SCHCH2CH9FeH3CFeH7CHC2H4SH2C2SCNCH3CHC3H2C3NCHCH3CSH2CHC2H2SH4FeC3HCHCHCHCH2C2H2CFeH2CHCH2SH5C2HFe2HCFeHNH3C2H5SHC2H4CHCHCSHC3HCHCHCS2CH2CH11C2H2FeSCH2CH2C3H6FeH7CH2CH2CH5C2FeH5CH2SHNH2CSFeSH6CHCHCH3NCHC2S2H2CH5C3H4CHCHC2HCH3CH4CHNHCHCH2C2HCHC2HFeHCHSCH3SH3CH2C3H4NCH3C3SCH3NH7CHCH4NCH3CH2CH2CHFeHCH3C2H3CHCH7CH3CH2CH3NH3S2FeS2FeSHFeSFeSCSFeHSFeHSHCH2S2CHSHCH3SC2H3CH5C7H5C6H5CSH2CHC6H4C6H5CH2SHCH2FeH3CHCHC3H2CHC2HC2H10C2H3CHC2H4NHSH2C2H2CH4CSNH2CH3C2HCHSHC2HNH3C2H2CHC2HCSH3FeHCFeCH3CHNHCH6C3NC2H3CH5C2H2CH2CH2CH16C3H2CH2CH2CH5NCSHCHCHC3H6FeH2CHSC2H4C2H3CHC2H2SH4CH6C2H2C2H3CH3FeC2H4SH8C3HSH2CHC3H2C2H2CHCH3C2H5CHCHC2H3CHCHSCH2CH2FeH2CHC2H6C2FeCFeSHSH5C2FeHFeS2HCH5S2FeSCH2SHFeS2FeSFeCSFeCSHC2SHSFeSCFeS2FeSFeS3C2FeS2FeSCFeSFeS3CHCSH4C4HSHCH2C6H4C2H4SHCHFeCH2C6HCH2C6H4C2H2CFeH4C2HC2H4C6H8C5H2C6H4SHSCH3SHC4H5CH4C2FeCH2CHCHCH3CH2CH2CSHCH2CH5CSNH23SH3CH2CHC3HC3H3FeH3CSHCNH2CHSH5CHSCH6C2FeCH2CH2CH3CSCH2CH8CHC3H3CHC3HCSNH8C2SHCSHNH2CH2CNH5CH5CH3CHC2HC4HSCH4CH2NC12H27CH2FeH2CH2CH3C4H2NCH2CHCHCH6CH2CHC3H2C2H2FeCH3C3H4CH3SH4CNH8CNC2H5CFeCH2CH2CH9CH5CH3C2HCHFeC2HCH2C2HC2HCH4CHCFeSHSHCH2SHFeSHFeS2FeSFeS2FeS2FeS2FeSFeS3FeS2FeS2FeSFeHS2FeS2FeS2FeSFeS3CH2CHFeS2CHCHFeSCS2CSH2CH3FeHSHFeSHSCHC2HCHCHC6H4C2HC3HSCSH3C6H3C3H3C6H5C6H4C6H4C4H3C3H2CHCH3C4H3CHC6H4C7H2NC4HC2HCNCH7CH4CH4CH2CH3CH2C3H4CH4CH2SH2C2HCHNC12H28NC11H25NC12H29CHSCNCH4CHC2H5C3NC12H28NC6HC4SH4CH23CNC12H28SCHC3H2CH2SCHSCHCH5CH3C2H5SHCHCHNH3CH2CHC6H5C3HCHCH2C2H4CHC2H5CHCH2CH5CHSH2C2H4CH2CH3FeSCH4C2HCNHSCH3FeH2CH2CHSHC3H8FeSNH3FeHCHCHC2H2CSH3FeNH3C2HCHC2NH3CHCHCHCH2CH2FeH2SCHSH2C3H4C2HSCH2CH11CH2CH7CSH4CHC2H7CH3CH3CH2CH3C2H4FeS2FeS2FeSFeCS2FeS2FeSFeS2HC2HC2H4FeHSFeS2Fe2H2S2FeS2FeS2FeSFeS3FeS2FeS2FeCFeS3H2C2H5C3H5C6H4C7H4C6H7CHC2H4C7H4CHCH4CH9C6H4C3H5CH4CHCSHCH2C3NH2CH2CH2FeSH2CHC2H2C2H3CH3C2H3CH2CH5C2H6CH8C2H2NCH2SCNCHSH4C2H8CNH2C3HCH2C2H3NFeH3CHCNC12H28FeHCH3CHC3H7C3H5CH3CH3C3H3CHCSCHCH4C4H3CH2C2HCHCH2C2HC2H4CHC2HCH2CHCH12CH4C3HC2H8C2H4CHCHCH13SC2HCH3CH2SH10CH5CHCH2C2HNH3NC12HCH4CSHCH2CH4SH4C3HSHCHC2H3CH3CHNH2NCHCH2CH4CSH2C2NSCHSH2C2SHFeH7C2H2FeCHC2HC3H9CH3C2H2SHCHC3H4CH5CH6CH2FeS2FeS2FeSFeS3FeS2FeS2FeSFeS3CSH2SHFeS2FeS2FeSFeS3HCFeHNCH4CFeH4SCSCHNHSCHC4H6CH2C6H4CHC4H4C2HC3HCHC7H4CH2C3H4C2H2C2HCH2C2HCH3C6H4CH2C2H2C4H2C5H3CFeCH3NH3CH2CH2CHCHCH4CHNSH2CHCH2CH2CH11C3H3C2H3SCHCH3CHC5H5CHCHCHCNC12H36CH3C2H3CSCH2NCFeH3CH3CHCFeHCHC2HCHCNHCH2CH2C2H2CS2HNCHCHC5HC2H13NC4HC2HC2HCH10C2H2CH5CH7NC12H30CH3C2H3CHCHCH2CHCH3FeH2CH2CSCH5C2SH3CHCSH4CH8CH2CHC3H3FeH4C2HC2H6CH3C2HCH6C2HC2HCH2FeHCH4CH2SCH2CH3CH3CH5SH3SCHC2H3SCHNH4CH4CH4CH3CH2CH3C2HFeS2HSH2SCS2HC2HC4HC2HFeS2FeSHFeS3FeS2FeS2FeSFeS3HSC2HC3H2C2H4C6H4CHC6H4C4H4CHC2H4FeH2C2H3C2H2CNC2H4SHC2H4C6H5SCHC5FeH3C2H4CH3C2H3SH4CH5SC3HCH10NHC3HC2HCHCHSH6CH7CH4CH3CH4NC3H2C2H4CHCFeH5CH2CH3C3H2C2HC2H3C3HCNH2CH5SHC3H4CH2CH2C3H3SHC3NCH4FeC2H8SH3SH3FeHC2H2CH2CH4SFeH3C2H3CHCH4CH2C2HFeHSCHSCHC2HCH5CNHCH3FeHCHC3HCSH6CHCSHCHCH5NH2SH2CH4CH2CH3CH4C2H2C2FeH2NCHCHC2H2CSCH2CH4C2HCH2SHCHCH2CHCHCHC3H2C2H4CHCH3C2HCHCH3C2SH5CH6CH2CN2H2C2NCH3CHCH2FeH4C2H2CH2CHFeH3CHNHCH10C2HCH6CH9CH2CHCH4FeH2C2HS2HSCHFeS2FeSCSH2Fe2S2FeHFeS3CHSHFeS2FeSFeS3FeS2FeS2FeSFeS3FeSHSFeSHCSH2CHC3H2C6H4C6H4C6H4C6H4C2H3CHSHCHCH3CH2SH2CH3FeH3FeC2HCH4CNHCHC6H4C2HC5H4SHC6H4CNHCH2NHC2SFeHC4HCNH2CS2CSH8FeCH2CHCHC3H7NH4C2H8C2HSCH5CHC4H3C2H4CH2SHFeH2CH5CH8FeNC12H28C2HCHCH4CH4CH2SHNC12H26SH2CH2SHCHCHCFeC2H9C3HCHC2HCHCH2C2HCH5C2H2FeH2NC6H4C2H2NH3CFeSHCHCH5SHC2H2CHCH2CH3NHCH8CHC2H2SHC2SCHCHCHCHCH2C3HC2H3FeSH5CH4C2FeCHCHCH5C2NH2SC2H2CH4SH2CH2SHCH3FeHCHCH2NH5CH5CHC2HSC2H2S2FeHFeH2CHFeH4CSH2C3H2SH4C3HSHC2H4SNHCH4CH2C4H3CFeHCH4FeCNH4SCH3C2SHCH11CHC2HCFeS2FeSFeSHSCHCH2CH3FeSCHFeS2H5FeSHSFeS2FeS2FeSFeS3HSHC2HCH2FeS2FeS2FeSFeS3HC6H5CHCH2CHSHC3H2C7H5C3SH4CHC6H4C6H5C2H2CHNC3HFeHC3NHC8H4C2HS3H4CHCHCFeC3HC2NH3SH4CSHCH4C2H2CHSC6HCHSCH5SHC2HCH2NC12H29NC12H18CH8CNC6HCHC3H4FeH7CH4CH3CH3CH3CH2SCH8C2H2CH3CH4NC12H28FeC2H3NHCH2CH2CH4CHCHCH2FeHC2HCH2CH3CH4C3HCHCH2CFeHSH5SCH3CHFeHCH2FeCHCH7CHCH4CH6CH2C2H3CH2CH3CH6CH6CH4CH2SC2H2CH4CSH2CH2NH5CHC2HCH4C2HSCH2CSNHCHCHCH3C2H3C2H2C2SH2CH5FeS2H2C2S2C2HCH5CH2C7H5CH2C2H3SHC2FeHCH2CHCHCHSH5C2HFeH2SH3CH5CH3C2H6CNC3H2CH3CH2CH3C2H5CH4NC3H8SCH4SH2CHFeH2CH2CH2C3H2C2FeCNSHS2CSFeS2H4FeSHSFeHSH3Fe2S2FeS2FeSFeS3FeHSFeS2FeSCHS2HCHNH2FeHSH2C2SH3SNH2C6H4C6H4C6H8CH3C6H5C6H4C6H4C6NH3C3H2CH5CH6NH3CNH6CH2C2H4CHCH2C2HC4HCH7SH4NHC4H2CH5C2H3CH2CHCH2NFeHCNC12H28NHC4HCHC2H7CHCH2CHCHFeHC3H3CHCHSCHCFeH2CH5C2H3CHCHCHFeHCH2CFe2HC2H4CH6CH2CH2CS2CHCH2SH3CH3C2H2CHCH3C2HSHCFeH6CH2CSC2H5CHCHCSCH4C2NH3CH3CH3CH3CH3CH6C5H4C2HCHCH2C2H3CHCH2CHSCH2SC2HCH2CH8CH4CH3CH3CFeC3H2CFeH2CH6SH6NHCHSHC2HCH2NCH7C4H2CH5CH2C2HC2H2CSHSH7CHCH3CH3CH5FeH2C2HC2SH2
_chemical_formula_sum              "Fe384 S768 H6144 C3456 N192"
_cell_length_a       80.621
_cell_length_b       81.2819
_cell_length_c       81.3347
_cell_angle_alpha    75.4665
_cell_angle_beta     75.4534
_cell_angle_gamma    75.49

_space_group_name_H-M_alt    "P 1"
_space_group_IT_number       1

loop_
  _space_group_symop_operation_xyz
  'x, y, z'

loop_
  _atom_site_type_symbol
  _atom_site_label
  _atom_site_symmetry_multiplicity
  _atom_site_fract_x
  _atom_site_fract_y
  _atom_site_fract_z
  _atom_site_occupancy
  Fe  Fe1       1.0  0.09757  0.01563  0.72644  1.0000
  S   S1        1.0  0.11825  0.02824  0.72875  1.0000
  Fe  Fe2       1.0  0.07129  0.03123  0.75533  1.0000
  S   S2        1.0  0.09005  0.04492  0.76032  1.0000
  S   S3        1.0  0.04435  0.03008  0.77165  1.0000
  Fe  Fe3       1.0  0.09696  0.05173  0.73122  1.0000
  S   S4        1.0  0.10249  0.07743  0.71546  1.0000
  Fe  Fe4       1.0  0.10986  0.02028  0.75748  1.0000
  S   S5        1.0  0.07678  0.03993  0.72645  1.0000
  S   S6        1.0  0.09051  0.00580  0.75503  1.0000
  H   H1        1.0  0.17253  0.03642  0.68420  1.0000
  H   H2        1.0  0.20472  0.16688  0.63154  1.0000
  H   H3        1.0  0.11946  0.04003  0.78264  1.0000
  H   H4        1.0  0.17150  0.03612  0.89324  1.0000
  S   S7        1.0  0.01626  0.14920  0.72183  1.0000
  H   H5        1.0  0.18190  0.00786  0.90790  1.0000
  Fe  Fe5       1.0  0.22388  0.02281  0.81652  1.0000
  S   S8        1.0  0.02104  0.24502  0.60914  1.0000
  S   S9        1.0  0.20552  0.01897  0.80185  1.0000
  H   H6        1.0  0.03244  0.28930  0.68925  1.0000
  C   C1        1.0  0.01577  0.27169  0.84851  1.0000
  H   H7        1.0  0.06617  0.27615  0.85082  1.0000
  Fe  Fe6       1.0  0.22129  0.10725  0.67052  1.0000
  S   S10       1.0  0.22280  0.08797  0.69527  1.0000
  H   H8        1.0  0.04440  0.22672  0.80006  1.0000
  Fe  Fe7       1.0  0.19080  0.13206  0.68717  1.0000
  S   S11       1.0  0.18936  0.11472  0.71371  1.0000
  S   S12       1.0  0.17508  0.15840  0.67725  1.0000
  Fe  Fe8       1.0  0.21872  0.11077  0.70761  1.0000
  H   H9        1.0  0.18626  0.04640  0.64497  1.0000
  Fe  Fe9       1.0  0.19369  0.09311  0.69952  1.0000
  S   S13       1.0  0.18313  0.06884  0.71134  1.0000
  S   S14       1.0  0.21990  0.12985  0.68234  1.0000
  S   S15       1.0  0.19237  0.11061  0.67351  1.0000
  H   H10       1.0  0.13027  0.05282  0.80182  1.0000
  C   C2        1.0  0.15857  0.00990  0.70046  1.0000
  H   H11       1.0  0.02458  0.20378  0.81456  1.0000
  H   H12       1.0  0.12421  0.02544  0.67135  1.0000
  H   H13       1.0  0.99644  0.23672  0.79929  1.0000
  H   H14       1.0  0.12544  0.02703  0.69241  1.0000
  Fe  Fe10      1.0  0.08111  0.30620  0.79774  1.0000
  S   S16       1.0  0.09400  0.28265  0.78601  1.0000
  H   H15       1.0  0.99762  0.16981  0.74737  1.0000
  Fe  Fe11      1.0  0.04911  0.22773  0.71685  1.0000
  S   S17       1.0  0.06756  0.23015  0.73214  1.0000
  S   S18       1.0  0.02304  0.22153  0.73100  1.0000
  Fe  Fe12      1.0  0.07277  0.23757  0.68235  1.0000
  S   S19       1.0  0.09367  0.24070  0.69463  1.0000
  S   S20       1.0  0.07695  0.24230  0.65323  1.0000
  Fe  Fe13      1.0  0.08839  0.21617  0.71341  1.0000
  S   S21       1.0  0.10682  0.19268  0.72499  1.0000
  Fe  Fe14      1.0  0.07118  0.25432  0.71231  1.0000
  S   S22       1.0  0.06924  0.28033  0.71866  1.0000
  S   S23       1.0  0.06952  0.21192  0.69961  1.0000
  S   S24       1.0  0.05076  0.25303  0.69851  1.0000
  H   H16       1.0  0.23252  0.04821  0.64056  1.0000
  C   C3        1.0  0.20371  0.12834  0.62206  1.0000
  N   N1        1.0  0.15419  0.02373  0.88609  1.0000
  C   C4        1.0  0.10834  0.03473  0.91652  1.0000
  C   C5        1.0  0.19998  0.15779  0.60320  1.0000
  C   C6        1.0  0.12599  0.03423  0.67886  1.0000
  C   C7        1.0  0.04515  0.22033  0.89387  1.0000
  N   N2        1.0  0.15999  0.02688  0.66880  1.0000
  H   H17       1.0  0.11140  0.05841  0.68673  1.0000
  C   C8        1.0  0.11038  0.04944  0.67891  1.0000
  C   C9        1.0  0.08723  0.28220  0.76717  1.0000
  C   C10       1.0  0.09041  0.26642  0.76173  1.0000
  C   C11       1.0  0.08493  0.26570  0.74687  1.0000
  C   C12       1.0  0.07646  0.28082  0.73723  1.0000
  C   C13       1.0  0.07344  0.29664  0.74256  1.0000
  C   C14       1.0  0.07865  0.29731  0.75760  1.0000
  H   H18       1.0  0.09711  0.25472  0.76905  1.0000
  H   H19       1.0  0.08743  0.25349  0.74277  1.0000
  H   H20       1.0  0.06680  0.30836  0.73520  1.0000
  H   H21       1.0  0.07612  0.30951  0.76173  1.0000
  C   C15       1.0  0.15721  0.16879  0.69114  1.0000
  C   C16       1.0  0.15272  0.16145  0.70874  1.0000
  C   C17       1.0  0.13742  0.16914  0.71908  1.0000
  C   C18       1.0  0.12662  0.18430  0.71195  1.0000
  C   C19       1.0  0.13140  0.19196  0.69449  1.0000
  C   C20       1.0  0.14667  0.18423  0.68413  1.0000
  H   H22       1.0  0.16086  0.14968  0.71432  1.0000
  H   H23       1.0  0.13385  0.16324  0.73262  1.0000
  H   H24       1.0  0.12325  0.20376  0.68895  1.0000
  H   H25       1.0  0.15019  0.19013  0.67059  1.0000
  H   H26       1.0  0.16318  0.01598  0.86129  1.0000
  C   C21       1.0  0.06238  0.24210  0.87328  1.0000
  C   C22       1.0  0.00440  0.24078  0.68800  1.0000
  H   H27       1.0  0.06603  0.27195  0.88073  1.0000
  H   H28       1.0  0.05869  0.31791  0.66818  1.0000
  S   S25       1.0  0.15886  0.03955  0.82049  1.0000
  C   C23       1.0  0.15074  0.02170  0.86935  1.0000
  H   H29       1.0  0.19236  0.05545  0.86382  1.0000
  H   H30       1.0  0.16817  0.06004  0.65653  1.0000
  C   C24       1.0  0.15082  0.03065  0.80706  1.0000
  H   H31       1.0  0.11087  0.04457  0.92241  1.0000
  C   C25       1.0  0.18855  0.00713  0.74694  1.0000
  H   H32       1.0  0.09811  0.04447  0.68477  1.0000
  C   C26       1.0  0.19868  0.09953  0.61931  1.0000
  H   H33       1.0  0.12749  0.21432  0.86946  1.0000
  H   H34       1.0  0.14962  0.00279  0.65456  1.0000
  H   H35       1.0  0.06105  0.00643  0.73685  1.0000
  H   H36       1.0  0.03918  0.03796  0.73187  1.0000
  H   H37       1.0  0.14230  0.05041  0.65965  1.0000
  C   C27       1.0  0.03581  0.24392  0.62239  1.0000
  C   C28       1.0  0.05275  0.24628  0.61417  1.0000
  C   C29       1.0  0.06506  0.24569  0.62387  1.0000
  C   C30       1.0  0.06075  0.24251  0.64198  1.0000
  C   C31       1.0  0.04393  0.23970  0.65040  1.0000
  C   C32       1.0  0.03142  0.24044  0.64060  1.0000
  H   H38       1.0  0.05632  0.24880  0.60015  1.0000
  H   H39       1.0  0.07802  0.24778  0.61725  1.0000
  H   H40       1.0  0.04061  0.23711  0.66439  1.0000
  H   H41       1.0  0.01845  0.23838  0.64709  1.0000
  C   C33       1.0  0.05855  0.25945  0.81134  1.0000
  C   C34       1.0  0.17519  0.03326  0.67111  1.0000
  C   C35       1.0  0.14354  0.04058  0.67181  1.0000
  C   C36       1.0  0.02280  0.21651  0.81803  1.0000
  H   H42       1.0  0.20829  0.08479  0.79727  1.0000
  H   H43       1.0  0.16660  0.05015  0.85565  1.0000
  C   C37       1.0  0.02256  0.28175  0.87624  1.0000
  H   H44       1.0  0.00324  0.13977  0.66507  1.0000
  C   C38       1.0  0.24152  0.06081  0.82100  1.0000
  C   C39       1.0  0.01728  0.16975  0.72384  1.0000
  C   C40       1.0  0.02881  0.17901  0.71144  1.0000
  C   C41       1.0  0.03010  0.19528  0.71329  1.0000
  C   C42       1.0  0.02024  0.20204  0.72774  1.0000
  C   C43       1.0  0.00818  0.19307  0.73980  1.0000
  C   C44       1.0  0.00664  0.17692  0.73780  1.0000
  H   H45       1.0  0.03665  0.17370  0.70037  1.0000
  H   H46       1.0  0.03849  0.20267  0.70337  1.0000
  C   C45       1.0  0.16875  0.03379  0.88136  1.0000
  H   H47       1.0  0.06919  0.24036  0.88403  1.0000
  H   H48       1.0  0.19895  0.00383  0.75461  1.0000
  H   H49       1.0  0.10966  0.05664  0.66548  1.0000
  H   H50       1.0  0.05177  0.98654  0.71197  1.0000
  H   H51       1.0  0.99795  0.30142  0.80108  1.0000
  H   H52       1.0  0.20347  0.16714  0.56740  1.0000
  H   H53       1.0  0.09980  0.02679  0.92658  1.0000
  S   S26       1.0  0.10294  0.00120  0.70464  1.0000
  C   C46       1.0  0.12491  0.07541  0.71394  1.0000
  C   C47       1.0  0.13290  0.06408  0.72703  1.0000
  C   C48       1.0  0.15089  0.06172  0.72580  1.0000
  C   C49       1.0  0.16092  0.07110  0.71176  1.0000
  C   C50       1.0  0.15308  0.08223  0.69844  1.0000
  C   C51       1.0  0.13500  0.08443  0.69955  1.0000
  H   H54       1.0  0.12519  0.05723  0.73830  1.0000
  H   H55       1.0  0.15690  0.05304  0.73610  1.0000
  H   H56       1.0  0.16099  0.08907  0.68733  1.0000
  H   H57       1.0  0.12892  0.09291  0.68923  1.0000
  C   C52       1.0  0.02563  0.04685  0.77036  1.0000
  C   C53       1.0  0.02516  0.06187  0.75724  1.0000
  C   C54       1.0  0.00954  0.07460  0.75689  1.0000
  C   C55       1.0  0.05588  0.22507  0.87561  1.0000
  H   H58       1.0  0.18865  0.09247  0.61903  1.0000
  C   C56       1.0  0.01050  0.04459  0.78289  1.0000
  H   H59       1.0  0.03666  0.06342  0.74722  1.0000
  H   H60       1.0  0.00899  0.08599  0.74660  1.0000
  H   H61       1.0  0.01068  0.03301  0.79297  1.0000
  C   C57       1.0  0.13037  0.03276  0.78860  1.0000
  C   C58       1.0  0.13651  0.03998  0.79946  1.0000
  H   H62       1.0  0.05318  0.21819  0.90378  1.0000
  H   H63       1.0  0.17700  0.17608  0.63943  1.0000
  C   C59       1.0  0.15877  0.01405  0.80395  1.0000
  C   C60       1.0  0.13833  0.01604  0.78566  1.0000
  H   H64       1.0  0.23295  0.04427  0.75208  1.0000
  C   C61       1.0  0.01354  0.14731  0.66301  1.0000
  H   H65       1.0  0.17561  0.00841  0.75592  1.0000
  H   H66       1.0  0.04719  0.22650  0.86648  1.0000
  C   C62       1.0  0.03455  0.29545  0.65595  1.0000
  H   H67       1.0  0.01426  0.30619  0.68594  1.0000
  C   C63       1.0  0.02894  0.13483  0.67014  1.0000
  C   C64       1.0  0.01876  0.19853  0.62203  1.0000
  S   S27       1.0  0.05199  0.31245  0.80639  1.0000
  H   H68       1.0  0.13110  0.02177  0.84518  1.0000
  H   H69       1.0  0.21439  0.03512  0.75297  1.0000
  C   C65       1.0  0.03290  0.31291  0.69672  1.0000
  H   H70       1.0  0.17229  0.05887  0.76215  1.0000
  H   H71       1.0  0.20338  0.12893  0.74869  1.0000
  C   C66       1.0  0.02876  0.30348  0.68425  1.0000
  H   H72       1.0  0.01777  0.16796  0.67302  1.0000
  C   C67       1.0  0.12549  0.02301  0.90985  1.0000
  H   H73       1.0  0.01819  0.15185  0.64894  1.0000
  H   H74       1.0  0.20526  0.09243  0.63022  1.0000
  H   H75       1.0  0.14919  0.00496  0.62418  1.0000
  H   H76       1.0  0.02548  0.18313  0.64592  1.0000
  H   H77       1.0  0.19668  0.05233  0.77531  1.0000
  H   H78       1.0  0.14943  0.08271  0.74896  1.0000
  H   H79       1.0  0.01962  0.02969  0.74299  1.0000
  S   S28       1.0  0.20415  0.98790  0.66016  1.0000
  H   H80       1.0  0.13864  0.02422  0.64528  1.0000
  H   H81       1.0  0.17460  0.08885  0.79615  1.0000
  H   H82       1.0  0.04691  0.25404  0.78354  1.0000
  H   H83       1.0  0.03998  0.14150  0.66806  1.0000
  H   H84       1.0  0.02490  0.12969  0.68425  1.0000
  H   H85       1.0  0.03354  0.12372  0.66338  1.0000
  H   H86       1.0  0.03048  0.20449  0.61855  1.0000
  H   H87       1.0  0.00453  0.25398  0.67995  1.0000
  H   H88       1.0  0.20727  0.14580  0.64473  1.0000
  C   C68       1.0  0.02828  0.29036  0.85932  1.0000
  H   H89       1.0  0.13826  0.08532  0.77070  1.0000
  C   C69       1.0  0.15145  0.01523  0.64556  1.0000
  H   H90       1.0  0.00784  0.20846  0.61725  1.0000
  S   S29       1.0  0.08679  0.30747  0.82300  1.0000
  H   H91       1.0  0.08776  0.25918  0.87908  1.0000
  H   H92       1.0  0.00639  0.29616  0.66653  1.0000
  H   H93       1.0  0.20264  0.07368  0.82890  1.0000
  H   H94       1.0  0.06704  0.21410  0.87356  1.0000
  H   H95       1.0  0.16524  0.09547  0.77004  1.0000
  C   C70       1.0  0.16546  0.05177  0.86908  1.0000
  H   H96       1.0  0.08759  0.22270  0.85126  1.0000
  Fe  Fe15      1.0  0.22983  0.99218  0.64286  1.0000
  C   C71       1.0  0.05117  0.19368  0.76502  1.0000
  H   H97       1.0  0.02975  0.22632  0.83754  1.0000
  C   C72       1.0  0.13561  0.00888  0.85311  1.0000
  H   H98       1.0  0.15840  0.99371  0.79169  1.0000
  H   H99       1.0  0.18348  0.06671  0.82771  1.0000
  H   H100      1.0  0.02523  0.28544  0.88706  1.0000
  H   H101      1.0  0.01799  0.23427  0.68932  1.0000
  C   C73       1.0  0.16415  0.02381  0.65049  1.0000
  H   H102      1.0  0.05899  0.24596  0.81036  1.0000
  H   H103      1.0  0.15022  0.02193  0.70430  1.0000
  H   H104      1.0  0.01183  0.20426  0.64732  1.0000
  H   H105      1.0  0.16147  0.06376  0.78301  1.0000
  H   H106      1.0  0.18121  0.02601  0.87522  1.0000
  H   H107      1.0  0.03351  0.23080  0.89633  1.0000
  S   S30       1.0  0.23365  0.10504  0.72906  1.0000
  C   C74       1.0  0.13702  0.01073  0.87094  1.0000
  H   H108      1.0  0.18422  0.08957  0.82248  1.0000
  N   N3        1.0  0.04555  0.10928  0.76153  1.0000
  C   C75       1.0  0.04162  0.10233  0.74767  1.0000
  C   C76       1.0  0.03980  0.09791  0.77883  1.0000
  C   C77       1.0  0.03574  0.12781  0.76077  1.0000
  C   C78       1.0  0.06480  0.10897  0.75879  1.0000
  C   C79       1.0  0.07705  0.09093  0.75866  1.0000
  C   C80       1.0  0.05000  0.10930  0.72864  1.0000
  C   C81       1.0  0.03683  0.13659  0.77529  1.0000
  C   C82       1.0  0.01972  0.09937  0.78518  1.0000
  C   C83       1.0  0.01545  0.08520  0.80101  1.0000
  C   C84       1.0  0.09624  0.09250  0.75459  1.0000
  C   C85       1.0  0.04231  0.10332  0.71626  1.0000
  C   C86       1.0  0.02421  0.15411  0.77502  1.0000
  H   H109      1.0  0.02725  0.10511  0.74838  1.0000
  H   H110      1.0  0.04568  0.08796  0.74993  1.0000
  H   H111      1.0  0.04545  0.08400  0.77833  1.0000
  H   H112      1.0  0.04512  0.10037  0.78915  1.0000
  H   H113      1.0  0.02172  0.12877  0.76084  1.0000
  H   H114      1.0  0.04054  0.13615  0.74823  1.0000
  H   H115      1.0  0.06914  0.11799  0.74653  1.0000
  H   H116      1.0  0.06746  0.11386  0.76928  1.0000
  H   H117      1.0  0.07514  0.08463  0.74886  1.0000
  H   H118      1.0  0.07460  0.08224  0.77155  1.0000
  H   H119      1.0  0.04771  0.12364  0.72553  1.0000
  H   H120      1.0  0.06434  0.10428  0.72608  1.0000
  H   H121      1.0  0.05019  0.13894  0.77353  1.0000
  H   H122      1.0  0.03353  0.12856  0.78837  1.0000
  H   H123      1.0  0.01346  0.11209  0.78886  1.0000
  H   H124      1.0  0.01348  0.09809  0.77504  1.0000
  C   C87       1.0  0.23481  0.07341  0.64294  1.0000
  H   H125      1.0  0.08889  0.26813  0.84468  1.0000
  C   C88       1.0  0.22873  0.15032  0.62272  1.0000
  H   H126      1.0  0.09967  0.10048  0.74143  1.0000
  H   H127      1.0  0.09894  0.09841  0.76432  1.0000
  H   H128      1.0  0.10475  0.07941  0.75493  1.0000
  H   H129      1.0  0.02799  0.10856  0.71791  1.0000
  H   H130      1.0  0.04839  0.10804  0.70264  1.0000
  H   H131      1.0  0.04472  0.08892  0.71872  1.0000
  H   H132      1.0  0.02503  0.15993  0.78569  1.0000
  H   H133      1.0  0.13847  0.99441  0.71170  1.0000
  H   H134      1.0  0.01055  0.15252  0.77679  1.0000
  H   H135      1.0  0.02172  0.18739  0.61545  1.0000
  H   H136      1.0  0.11379  0.20439  0.86212  1.0000
  H   H137      1.0  0.21644  0.07374  0.74236  1.0000
  S   S31       1.0  0.13128  0.00612  0.77237  1.0000
  C   C89       1.0  0.06322  0.24967  0.84221  1.0000
  H   H138      1.0  0.20825  0.06199  0.80255  1.0000
  H   H139      1.0  0.17172  0.17897  0.61849  1.0000
  C   C90       1.0  0.02457  0.28554  0.84541  1.0000
  H   H140      1.0  0.18985  0.11079  0.78597  1.0000
  H   H141      1.0  0.02895  0.29208  0.83231  1.0000
  H   H142      1.0  0.20506  0.04698  0.66471  1.0000
  H   H143      1.0  0.04048  0.20823  0.89516  1.0000
  H   H144      1.0  0.99940  0.23316  0.68142  1.0000
  C   C91       1.0  0.15891  0.00982  0.68135  1.0000
  H   H145      1.0  0.14430  0.04802  0.68133  1.0000
  H   H146      1.0  0.00145  0.19542  0.67476  1.0000
  C   C92       1.0  0.17995  0.04966  0.65788  1.0000
  H   H147      1.0  0.18712  0.06100  0.67609  1.0000
  H   H148      1.0  0.06427  0.19652  0.76377  1.0000
  C   C93       1.0  0.19292  0.05691  0.66349  1.0000
  N   N4        1.0  0.02341  0.23322  0.78571  1.0000
  C   C94       1.0  0.00527  0.22945  0.78942  1.0000
  C   C95       1.0  0.02985  0.23022  0.80246  1.0000
  C   C96       1.0  0.02224  0.25215  0.77730  1.0000
  C   C97       1.0  0.03619  0.22271  0.77332  1.0000
  C   C98       1.0  0.03756  0.20282  0.77838  1.0000
  C   C99       1.0  0.99609  0.23397  0.77378  1.0000
  C   C100      1.0  0.03953  0.25890  0.77295  1.0000
  H   H149      1.0  0.21503  0.12258  0.76637  1.0000
  H   H150      1.0  0.18722  0.02282  0.67047  1.0000
  C   C101      1.0  0.24092  0.08867  0.63434  1.0000
  C   C102      1.0  0.16813  0.00602  0.91225  1.0000
  C   C103      1.0  0.03589  0.27866  0.76952  1.0000
  H   H151      1.0  0.18256  0.12420  0.61140  1.0000
  H   H152      1.0  0.00546  0.21558  0.79523  1.0000
  H   H153      1.0  0.17907  0.06619  0.79789  1.0000
  H   H154      1.0  0.02632  0.24241  0.80762  1.0000
  H   H155      1.0  0.01215  0.26013  0.78583  1.0000
  H   H156      1.0  0.01790  0.25512  0.76473  1.0000
  H   H157      1.0  0.03320  0.22718  0.76011  1.0000
  H   H158      1.0  0.04961  0.22502  0.77168  1.0000
  H   H159      1.0  0.02493  0.19928  0.77911  1.0000
  C   C104      1.0  0.01405  0.19259  0.64170  1.0000
  H   H160      1.0  0.01776  0.26997  0.65389  1.0000
  H   H161      1.0  0.00482  0.22892  0.76260  1.0000
  H   H162      1.0  0.04815  0.25466  0.76113  1.0000
  H   H163      1.0  0.19509  0.13871  0.76748  1.0000
  H   H164      1.0  0.00864  0.22098  0.82282  1.0000
  H   H165      1.0  0.14085  0.06504  0.76423  1.0000
  H   H166      1.0  0.17804  0.08866  0.75095  1.0000
  C   C105      1.0  0.99750  0.18447  0.64706  1.0000
  C   C106      1.0  0.07908  0.26982  0.87197  1.0000
  H   H167      1.0  0.21493  0.06133  0.77406  1.0000
  C   C107      1.0  0.13809  0.03374  0.89618  1.0000
  H   H168      1.0  0.17749  0.01562  0.64782  1.0000
  H   H169      1.0  0.17404  0.15806  0.59837  1.0000
  H   H170      1.0  0.04701  0.01614  0.71287  1.0000
  H   H171      1.0  0.01111  0.30961  0.64534  1.0000
  H   H172      1.0  0.04821  0.28312  0.76780  1.0000
  H   H173      1.0  0.03050  0.28416  0.75753  1.0000
  H   H174      1.0  0.02666  0.28366  0.78065  1.0000
  N   N5        1.0  0.09937  0.15535  0.69436  1.0000
  C   C108      1.0  0.09162  0.15420  0.71345  1.0000
  C   C109      1.0  0.11885  0.14810  0.69166  1.0000
  C   C110      1.0  0.09648  0.17438  0.68577  1.0000
  C   C111      1.0  0.09041  0.14640  0.68600  1.0000
  C   C112      1.0  0.09145  0.12674  0.69303  1.0000
  C   C113      1.0  0.07165  0.16116  0.71825  1.0000
  C   C114      1.0  0.10701  0.17917  0.66704  1.0000
  C   C115      1.0  0.12561  0.13252  0.70553  1.0000
  C   C116      1.0  0.14450  0.12407  0.69895  1.0000
  C   C117      1.0  0.08060  0.11974  0.68444  1.0000
  C   C118      1.0  0.06606  0.16225  0.73736  1.0000
  C   C119      1.0  0.10142  0.19840  0.65929  1.0000
  H   H175      1.0  0.09844  0.16127  0.71898  1.0000
  H   H176      1.0  0.09388  0.14065  0.72082  1.0000
  H   H177      1.0  0.12375  0.14462  0.67864  1.0000
  H   H178      1.0  0.12595  0.15820  0.69161  1.0000
  H   H179      1.0  0.09966  0.18214  0.69366  1.0000
  H   H180      1.0  0.08249  0.17952  0.68500  1.0000
  H   H181      1.0  0.07637  0.15281  0.68684  1.0000
  H   H182      1.0  0.09605  0.14783  0.67190  1.0000
  H   H183      1.0  0.08650  0.12380  0.70724  1.0000
  H   H184      1.0  0.10511  0.11961  0.68985  1.0000
  H   H185      1.0  0.06759  0.17437  0.71085  1.0000
  H   H186      1.0  0.06431  0.15243  0.71580  1.0000
  H   H187      1.0  0.10519  0.17157  0.65830  1.0000
  H   H188      1.0  0.12112  0.17685  0.66706  1.0000
  H   H189      1.0  0.12522  0.13716  0.71740  1.0000
  H   H190      1.0  0.11776  0.12230  0.70944  1.0000
  H   H191      1.0  0.14543  0.11881  0.68735  1.0000
  H   H192      1.0  0.15316  0.13354  0.69534  1.0000
  H   H193      1.0  0.14922  0.11341  0.70929  1.0000
  H   H194      1.0  0.06679  0.12682  0.68654  1.0000
  H   H195      1.0  0.08597  0.12116  0.67028  1.0000
  H   H196      1.0  0.08102  0.10573  0.69011  1.0000
  H   H197      1.0  0.06923  0.14930  0.74571  1.0000
  H   H198      1.0  0.07279  0.17132  0.74016  1.0000
  H   H199      1.0  0.05176  0.16732  0.74038  1.0000
  H   H200      1.0  0.10935  0.20165  0.64606  1.0000
  H   H201      1.0  0.08742  0.20154  0.65834  1.0000
  H   H202      1.0  0.10341  0.20665  0.66737  1.0000
  C   C120      1.0  0.06724  0.28991  0.67043  1.0000
  C   C121      1.0  0.08625  0.29113  0.66858  1.0000
  H   H203      1.0  0.06721  0.27970  0.66358  1.0000
  H   H204      1.0  0.06198  0.28574  0.68438  1.0000
  H   H205      1.0  0.15225  0.05940  0.87334  1.0000
  S   S32       1.0  0.04083  0.30623  0.85649  1.0000
  H   H206      1.0  0.02083  0.07216  0.79773  1.0000
  H   H207      1.0  0.09641  0.22734  0.87831  1.0000
  C   C122      1.0  0.15844  0.01118  0.62741  1.0000
  H   H208      1.0  0.06235  0.31032  0.64876  1.0000
  H   H209      1.0  0.10849  0.24291  0.86328  1.0000
  H   H210      1.0  0.09237  0.29504  0.65473  1.0000
  H   H211      1.0  0.23109  0.05490  0.82962  1.0000
  H   H212      1.0  0.04168  0.00451  0.75228  1.0000
  S   S33       1.0  0.23470  0.00043  0.61388  1.0000
  H   H213      1.0  0.12573  0.22000  0.84699  1.0000
  H   H214      1.0  0.09946  0.28492  0.85982  1.0000
  H   H215      1.0  0.01428  0.99642  0.75156  1.0000
  H   H216      1.0  0.18136  0.16701  0.56661  1.0000
  H   H217      1.0  0.04741  0.19788  0.75215  1.0000
  H   H218      1.0  0.13151  0.01611  0.92120  1.0000
  H   H219      1.0  0.18053  0.11693  0.63440  1.0000
  H   H220      1.0  0.99908  0.24925  0.71196  1.0000
  C   C123      1.0  0.15239  0.00672  0.79354  1.0000
  S   S34       1.0  0.23980  0.10533  0.64502  1.0000
  H   H221      1.0  0.06993  0.27318  0.82340  1.0000
  H   H222      1.0  0.18654  0.03489  0.74339  1.0000
  H   H223      1.0  0.17008  0.14668  0.62615  1.0000
  H   H224      1.0  0.15153  0.99472  0.72640  1.0000
  C   C124      1.0  0.16805  0.98888  0.92539  1.0000
  H   H225      1.0  0.99478  0.17289  0.80326  1.0000
  H   H226      1.0  0.21359  0.15383  0.59610  1.0000
  C   C125      1.0  0.07009  0.25943  0.82365  1.0000
  H   H227      1.0  0.17810  0.11707  0.76851  1.0000
  C   C126      1.0  0.01109  0.26243  0.86547  1.0000
  H   H228      1.0  0.08753  0.28882  0.88088  1.0000
  H   H229      1.0  0.02610  0.20446  0.84432  1.0000
  H   H230      1.0  0.20272  0.02507  0.72707  1.0000
  H   H231      1.0  0.06240  0.23662  0.84085  1.0000
  H   H232      1.0  0.08701  0.30059  0.67600  1.0000
  H   H233      1.0  0.22539  0.04602  0.73247  1.0000
  C   C127      1.0  0.99507  0.05714  0.78251  1.0000
  H   H234      1.0  0.05053  0.25240  0.87580  1.0000
  H   H235      1.0  0.12390  0.01725  0.87693  1.0000
  H   H236      1.0  0.17034  0.99975  0.67739  1.0000
  C   C128      1.0  0.18946  0.02497  0.73529  1.0000
  H   H237      1.0  0.17635  0.07508  0.85944  1.0000
  H   H238      1.0  0.14582  0.18684  0.64107  1.0000
  H   H239      1.0  0.01367  0.26746  0.83774  1.0000
  N   N6        1.0  0.19078  0.08019  0.77308  1.0000
  C   C129      1.0  0.20034  0.09502  0.76569  1.0000
  C   C130      1.0  0.20285  0.06374  0.76879  1.0000
  C   C131      1.0  0.17471  0.08430  0.76530  1.0000
  C   C132      1.0  0.18512  0.07780  0.79252  1.0000
  C   C133      1.0  0.19983  0.07508  0.80270  1.0000
  C   C134      1.0  0.19126  0.11233  0.77178  1.0000
  C   C135      1.0  0.16457  0.06942  0.76900  1.0000
  H   H240      1.0  0.14804  0.30833  0.79163  1.0000
  H   H241      1.0  0.17129  0.00206  0.62682  1.0000
  C   C136      1.0  0.19200  0.07633  0.82161  1.0000
  C   C137      1.0  0.20187  0.12646  0.76301  1.0000
  C   C138      1.0  0.14723  0.07609  0.76281  1.0000
  H   H242      1.0  0.20215  0.09812  0.75132  1.0000
  H   H243      1.0  0.21388  0.09131  0.76825  1.0000
  H   H244      1.0  0.01084  0.26060  0.89238  1.0000
  Fe  Fe16      1.0  0.18481  0.02300  0.82529  1.0000
  H   H245      1.0  0.07737  0.29764  0.86240  1.0000
  S   S35       1.0  0.20268  0.02917  0.83917  1.0000
  H   H246      1.0  0.05206  0.17945  0.76917  1.0000
  H   H247      1.0  0.13034  0.04330  0.88707  1.0000
  H   H248      1.0  0.10131  0.04140  0.90578  1.0000
  H   H249      1.0  0.03882  0.28190  0.66284  1.0000
  C   C139      1.0  0.03180  0.21389  0.83322  1.0000
  H   H250      1.0  0.20866  0.12173  0.63414  1.0000
  S   S36       1.0  0.24330  0.01124  0.64707  1.0000
  C   C140      1.0  0.02343  0.30727  0.71536  1.0000
  H   H251      1.0  0.04317  0.29626  0.64284  1.0000
  H   H252      1.0  0.17803  0.14430  0.64514  1.0000
  H   H253      1.0  0.02683  0.31399  0.72403  1.0000
  H   H254      1.0  0.16976  0.00669  0.80968  1.0000
  C   C141      1.0  0.05639  0.30753  0.66281  1.0000
  C   C142      1.0  0.03802  0.01375  0.72567  1.0000
  H   H255      1.0  0.16456  0.03624  0.64092  1.0000
  C   C143      1.0  0.02926  0.03133  0.73055  1.0000
  C   C144      1.0  0.18802  0.15587  0.59190  1.0000
  H   H256      1.0  0.02228  0.03969  0.72030  1.0000
  C   C145      1.0  0.07713  0.26577  0.85492  1.0000
  H   H257      1.0  0.00033  0.19838  0.75088  1.0000
  N   N7        1.0  0.07354  0.24809  0.85588  1.0000
  H   H258      1.0  0.22548  0.98502  0.73565  1.0000
  H   H259      1.0  0.20848  0.09965  0.60694  1.0000
  H   H260      1.0  0.99968  0.17470  0.63897  1.0000
  H   H261      1.0  0.17796  0.06492  0.88150  1.0000
  C   C146      1.0  0.20888  0.15291  0.63094  1.0000
  C   C147      1.0  0.23735  0.02676  0.68855  1.0000
  H   H262      1.0  0.21510  0.12583  0.61130  1.0000
  C   C148      1.0  0.19001  0.11798  0.62180  1.0000
  H   H263      1.0  0.19786  0.06502  0.74292  1.0000
  H   H264      1.0  0.02756  0.16318  0.76260  1.0000
  Fe  Fe17      1.0  0.20797  0.00031  0.85001  1.0000
  H   H265      1.0  0.20193  0.99510  0.72510  1.0000
  C   C149      1.0  0.18971  0.16894  0.57468  1.0000
  C   C150      1.0  0.15129  0.17305  0.64017  1.0000
  C   C151      1.0  0.17895  0.15150  0.63142  1.0000
  H   H266      1.0  0.19638  0.06838  0.65365  1.0000
  H   H267      1.0  0.06334  0.26676  0.79823  1.0000
  H   H268      1.0  0.14391  0.16921  0.63238  1.0000
  C   C152      1.0  0.11841  0.21659  0.86050  1.0000
  H   H269      1.0  0.00183  0.15641  0.68640  1.0000
  H   H270      1.0  0.14601  0.03455  0.86143  1.0000
  C   C153      1.0  0.01434  0.28274  0.64541  1.0000
  H   H271      1.0  0.16052  0.01668  0.91898  1.0000
  C   C154      1.0  0.08633  0.28629  0.86847  1.0000
  C   C155      1.0  0.01429  0.26772  0.87927  1.0000
  H   H272      1.0  0.04604  0.20874  0.82949  1.0000
  H   H273      1.0  0.04954  0.25636  0.84630  1.0000
  C   C156      1.0  0.17069  0.17088  0.63174  1.0000
  H   H274      1.0  0.04482  0.26581  0.81589  1.0000
  H   H275      1.0  0.07210  0.98744  0.71598  1.0000
  C   C157      1.0  0.01557  0.29709  0.65380  1.0000
  H   H276      1.0  0.08363  0.25323  0.81836  1.0000
  C   C158      1.0  0.20904  0.06334  0.74920  1.0000
  H   H277      1.0  0.00192  0.31442  0.82928  1.0000
  H   H278      1.0  0.22852  0.07189  0.65650  1.0000
  C   C159      1.0  0.00650  0.16253  0.67269  1.0000
  H   H279      1.0  0.04179  0.19763  0.79092  1.0000
  H   H280      1.0  0.19204  0.14276  0.58873  1.0000
  H   H281      1.0  0.17972  0.02862  0.72681  1.0000
  C   C160      1.0  0.10298  0.23130  0.86466  1.0000
  H   H282      1.0  0.14742  0.00482  0.68104  1.0000
  H   H283      1.0  0.23000  0.03512  0.67860  1.0000
  H   H284      1.0  0.12226  0.01311  0.90468  1.0000
  C   C161      1.0  0.04857  0.00184  0.73931  1.0000
  H   H285      1.0  0.18534  0.18243  0.57694  1.0000
  H   H286      1.0  0.02486  0.31453  0.75985  1.0000
  H   H287      1.0  0.04708  0.30993  0.69676  1.0000
  H   H288      1.0  0.02089  0.08617  0.81190  1.0000
  H   H289      1.0  0.09801  0.23983  0.83900  1.0000
  H   H290      1.0  0.09374  0.27826  0.67390  1.0000
  H   H291      1.0  0.17201  0.00930  0.70202  1.0000
  N   N8        1.0  0.19760  0.14765  0.62162  1.0000
  H   H292      1.0  0.22793  0.02425  0.70100  1.0000
  H   H293      1.0  0.19853  0.17183  0.60302  1.0000
  S   S37       1.0  0.18822  0.99482  0.83810  1.0000
  H   H294      1.0  0.02776  0.00772  0.72410  1.0000
  C   C162      1.0  0.09035  0.23519  0.85205  1.0000
  S   S38       1.0  0.00496  0.24217  0.86966  1.0000
  N   N9        1.0  0.03707  0.30824  0.66531  1.0000
  H   H295      1.0  0.14181  0.04175  0.90344  1.0000
  H   H296      1.0  0.14956  0.16496  0.65346  1.0000
  S   S39       1.0  0.23069  0.99442  0.82827  1.0000
  C   C163      1.0  0.17888  0.06239  0.86847  1.0000
  Fe  Fe18      1.0  0.21039  0.99127  0.81550  1.0000
  H   H297      1.0  0.15994  0.02324  0.61756  1.0000
  Fe  Fe19      1.0  0.05752  0.31592  0.83069  1.0000
  H   H298      1.0  0.02747  0.29306  0.71993  1.0000
  H   H299      1.0  0.15067  0.99802  0.90066  1.0000
  H   H300      1.0  0.02329  0.28305  0.63253  1.0000
  H   H301      1.0  0.99665  0.28792  0.77374  1.0000
  C   C164      1.0  0.22119  0.04608  0.74656  1.0000
  C   C165      1.0  0.19063  0.99335  0.73597  1.0000
  C   C166      1.0  0.16082  0.00606  0.89629  1.0000
  H   H302      1.0  0.23406  0.13717  0.61983  1.0000
  H   H303      1.0  0.23069  0.31623  0.78860  1.0000
  H   H304      1.0  0.00102  0.08663  0.80520  1.0000
  C   C167      1.0  0.15195  0.99424  0.71278  1.0000
  H   H305      1.0  0.00903  0.31074  0.71633  1.0000
  H   H306      1.0  0.17429  0.98895  0.93608  1.0000
  H   H307      1.0  0.17904  0.99704  0.72981  1.0000
  H   H308      1.0  0.17158  0.99877  0.88773  1.0000
  H   H309      1.0  0.17703  0.31561  0.78667  1.0000
  C   C168      1.0  0.23720  0.05995  0.63397  1.0000
  H   H310      1.0  0.00077  0.28434  0.64363  1.0000
  H   H311      1.0  0.23934  0.07961  0.83651  1.0000
  C   C169      1.0  0.23925  0.15302  0.63471  1.0000
  H   H312      1.0  0.23439  0.16607  0.63802  1.0000
  H   H313      1.0  0.05603  0.98793  0.77193  1.0000
  H   H314      1.0  0.14840  0.00267  0.84609  1.0000
  H   H315      1.0  0.23104  0.15993  0.61043  1.0000
  S   S40       1.0  0.21073  0.98937  0.87795  1.0000
  H   H316      1.0  0.23837  0.14297  0.64681  1.0000
  H   H317      1.0  0.14045  0.99745  0.87858  1.0000
  H   H318      1.0  0.24379  0.01416  0.68460  1.0000
  H   H319      1.0  0.12597  0.00068  0.85462  1.0000
  H   H320      1.0  0.15445  0.98696  0.93100  1.0000
  H   H321      1.0  0.24401  0.04784  0.69536  1.0000
  H   H322      1.0  0.02488  0.98517  0.76911  1.0000
  H   H323      1.0  0.24433  0.13725  0.70827  1.0000
  S   S41       1.0  0.02991  0.62770  0.24065  1.0000
  H   H324      1.0  0.19767  0.63342  0.43320  1.0000
  C   C170      1.0  0.03692  0.64675  0.24025  1.0000
  C   C171      1.0  0.22758  0.64815  0.06140  1.0000
  H   H325      1.0  0.04149  0.63895  0.18138  1.0000
  C   C172      1.0  0.19102  0.63142  0.46107  1.0000
  H   H326      1.0  0.21582  0.62750  0.44335  1.0000
  C   C173      1.0  0.20290  0.63657  0.44316  1.0000
  Fe  Fe20      1.0  0.00040  0.63203  0.24525  1.0000
  H   H327      1.0  0.21359  0.64095  0.40776  1.0000
  S   S42       1.0  0.24435  0.61024  0.03248  1.0000
  H   H328      1.0  0.02374  0.62834  0.19375  1.0000
  S   S43       1.0  0.22559  0.61285  0.99095  1.0000
  H   H329      1.0  0.17821  0.61493  0.45306  1.0000
  H   H330      1.0  0.13031  0.63535  0.01956  1.0000
  C   C174      1.0  0.13995  0.64339  0.01173  1.0000
  C   C175      1.0  0.24301  0.62254  0.07801  1.0000
  C   C176      1.0  0.23956  0.62200  0.04928  1.0000
  H   H331      1.0  0.03424  0.63865  0.20431  1.0000
  H   H332      1.0  0.14315  0.64600  0.16853  1.0000
  C   C177      1.0  0.02989  0.63959  0.19216  1.0000
  H   H333      1.0  0.14880  0.64383  0.02004  1.0000
  C   C178      1.0  0.18588  0.61409  0.46294  1.0000
  H   H334      1.0  0.14179  0.64680  0.14672  1.0000
  C   C179      1.0  0.16752  0.64631  0.15027  1.0000
  H   H335      1.0  0.19773  0.60363  0.46154  1.0000
  H   H336      1.0  0.22195  0.64774  0.45729  1.0000
  H   H337      1.0  0.23226  0.64822  0.42580  1.0000
  C   C180      1.0  0.23034  0.63925  0.04777  1.0000
  H   H338      1.0  0.06230  0.63974  0.22430  1.0000
  H   H339      1.0  0.14783  0.63712  0.00078  1.0000
  H   H340      1.0  0.17764  0.61070  0.47599  1.0000
  S   S44       1.0  0.22801  0.65079  0.99781  1.0000
  C   C181      1.0  0.05353  0.64958  0.23090  1.0000
  H   H341      1.0  0.17893  0.64142  0.46315  1.0000
  Fe  Fe21      1.0  0.21536  0.64102  0.98147  1.0000
  C   C182      1.0  0.23439  0.63992  0.07637  1.0000
  H   H342      1.0  0.08877  0.64514  0.27115  1.0000
  H   H343      1.0  0.19816  0.62998  0.47155  1.0000
  H   H344      1.0  0.17113  0.63192  0.15267  1.0000
  Fe  Fe22      1.0  0.24055  0.62277  0.00518  1.0000
  H   H345      1.0  0.22536  0.64571  0.03614  1.0000
  H   H346      1.0  0.17380  0.65097  0.15845  1.0000
  S   S45       1.0  0.23365  0.65100  0.09279  1.0000
  C   C183      1.0  0.23178  0.32937  0.78071  1.0000
  C   C184      1.0  0.09636  0.55432  0.83857  1.0000
  C   C185      1.0  0.16509  0.52658  0.86073  1.0000
  C   C186      1.0  0.09056  0.39177  0.74765  1.0000
  H   H347      1.0  0.10244  0.50103  0.89205  1.0000
  Fe  Fe23      1.0  0.12908  0.58761  0.80558  1.0000
  S   S46       1.0  0.15199  0.59513  0.78549  1.0000
  S   S47       1.0  0.12291  0.59762  0.83068  1.0000
  Fe  Fe24      1.0  0.12561  0.55977  0.78674  1.0000
  S   S48       1.0  0.14870  0.56570  0.76600  1.0000
  S   S49       1.0  0.11933  0.53436  0.78503  1.0000
  Fe  Fe25      1.0  0.16137  0.56650  0.78703  1.0000
  S   S50       1.0  0.18780  0.55103  0.79106  1.0000
  Fe  Fe26      1.0  0.13679  0.59369  0.76654  1.0000
  S   S51       1.0  0.13702  0.61251  0.74090  1.0000
  S   S52       1.0  0.13936  0.55887  0.80797  1.0000
  S   S53       1.0  0.11271  0.58803  0.78637  1.0000
  C   C187      1.0  0.15839  0.55637  0.93956  1.0000
  H   H348      1.0  0.21404  0.55216  0.63607  1.0000
  C   C188      1.0  0.18303  0.64822  0.78754  1.0000
  H   H349      1.0  0.22409  0.46334  0.74007  1.0000
  C   C189      1.0  0.06965  0.41468  0.69880  1.0000
  S   S54       1.0  0.20405  0.61378  0.54229  1.0000
  S   S55       1.0  0.18499  0.61795  0.50958  1.0000
  Fe  Fe27      1.0  0.17727  0.61470  0.53856  1.0000
  S   S56       1.0  0.16146  0.59439  0.55354  1.0000
  H   H350      1.0  0.12370  0.60220  0.57511  1.0000
  C   C190      1.0  0.20502  0.59579  0.88336  1.0000
  Fe  Fe28      1.0  0.05145  0.46045  0.73736  1.0000
  S   S57       1.0  0.07639  0.45022  0.72033  1.0000
  S   S58       1.0  0.02932  0.44522  0.74575  1.0000
  Fe  Fe29      1.0  0.06757  0.48892  0.74347  1.0000
  S   S59       1.0  0.09342  0.48052  0.72657  1.0000
  S   S60       1.0  0.06303  0.51182  0.75669  1.0000
  Fe  Fe30      1.0  0.07759  0.47808  0.70865  1.0000
  S   S61       1.0  0.08777  0.48490  0.67992  1.0000
  Fe  Fe31      1.0  0.08981  0.45361  0.73974  1.0000
  S   S62       1.0  0.11108  0.43203  0.74856  1.0000
  S   S63       1.0  0.05155  0.48852  0.72434  1.0000
  S   S64       1.0  0.06498  0.46188  0.75802  1.0000
  Fe  Fe32      1.0  0.20297  0.48146  0.64742  1.0000
  S   S65       1.0  0.19578  0.49836  0.66698  1.0000
  H   H351      1.0  0.07101  0.47906  0.78817  1.0000
  Fe  Fe33      1.0  0.19929  0.51251  0.61740  1.0000
  S   S66       1.0  0.19192  0.53179  0.63461  1.0000
  S   S67       1.0  0.20077  0.52139  0.58856  1.0000
  Fe  Fe34      1.0  0.21342  0.51459  0.64765  1.0000
  H   H352      1.0  0.09094  0.40804  0.71220  1.0000
  Fe  Fe35      1.0  0.17499  0.51384  0.65231  1.0000
  S   S68       1.0  0.14870  0.52535  0.66690  1.0000
  S   S69       1.0  0.22232  0.49651  0.62898  1.0000
  S   S70       1.0  0.18059  0.49567  0.63408  1.0000
  S   S71       1.0  0.23108  0.55097  0.88813  1.0000
  N   N10       1.0  0.13125  0.56314  0.61950  1.0000
  H   H353      1.0  0.14028  0.52717  0.74479  1.0000
  Fe  Fe36      1.0  0.15755  0.44030  0.81484  1.0000
  S   S72       1.0  0.13686  0.44289  0.83865  1.0000
  S   S73       1.0  0.15401  0.45726  0.78909  1.0000
  Fe  Fe37      1.0  0.18193  0.41251  0.83428  1.0000
  S   S74       1.0  0.16310  0.41237  0.85998  1.0000
  S   S75       1.0  0.20886  0.39611  0.82890  1.0000
  Fe  Fe38      1.0  0.14273  0.41374  0.84462  1.0000
  S   S76       1.0  0.12001  0.39953  0.85268  1.0000
  Fe  Fe39      1.0  0.15895  0.44155  0.85162  1.0000
  S   S77       1.0  0.15568  0.46233  0.86713  1.0000
  S   S78       1.0  0.16206  0.41144  0.81987  1.0000
  S   S79       1.0  0.17914  0.44135  0.82707  1.0000
  S   S80       1.0  0.22357  0.38840  0.75119  1.0000
  Fe  Fe40      1.0  0.05495  0.34007  0.79660  1.0000
  C   C191      1.0  0.22729  0.44255  0.66447  1.0000
  S   S81       1.0  0.03552  0.36007  0.78323  1.0000
  H   H354      1.0  0.14422  0.50992  0.61871  1.0000
  H   H355      1.0  0.21372  0.34282  0.79946  1.0000
  S   S82       1.0  0.05844  0.34429  0.82156  1.0000
  Fe  Fe41      1.0  0.21125  0.54351  0.87800  1.0000
  S   S83       1.0  0.19948  0.52872  0.90369  1.0000
  S   S84       1.0  0.19425  0.56422  0.86215  1.0000
  H   H356      1.0  0.23426  0.32901  0.76672  1.0000
  C   C192      1.0  0.11014  0.54154  0.84790  1.0000
  H   H357      1.0  0.21288  0.62429  0.58313  1.0000
  C   C193      1.0  0.11140  0.36388  0.82077  1.0000
  C   C194      1.0  0.12522  0.37288  0.81463  1.0000
  C   C195      1.0  0.12790  0.38394  0.82413  1.0000
  C   C196      1.0  0.11676  0.38613  0.84000  1.0000
  C   C197      1.0  0.10267  0.37741  0.84599  1.0000
  C   C198      1.0  0.09997  0.36634  0.83643  1.0000
  H   H358      1.0  0.13371  0.37149  0.80228  1.0000
  H   H359      1.0  0.13855  0.39077  0.81913  1.0000
  C   C199      1.0  0.21433  0.39506  0.80686  1.0000
  H   H360      1.0  0.17952  0.64604  0.67693  1.0000
  C   C200      1.0  0.05964  0.35106  0.73626  1.0000
  C   C201      1.0  0.22122  0.39181  0.77215  1.0000
  C   C202      1.0  0.20801  0.40510  0.77796  1.0000
  C   C203      1.0  0.20466  0.40680  0.79525  1.0000
  H   H361      1.0  0.21334  0.62547  0.95606  1.0000
  H   H362      1.0  0.20032  0.41406  0.76911  1.0000
  H   H363      1.0  0.19449  0.41715  0.79958  1.0000
  C   C204      1.0  0.17286  0.46675  0.87431  1.0000
  C   C205      1.0  0.16930  0.48090  0.88249  1.0000
  C   C206      1.0  0.18251  0.48514  0.88826  1.0000
  C   C207      1.0  0.19934  0.47487  0.88639  1.0000
  C   C208      1.0  0.20286  0.46047  0.87850  1.0000
  C   C209      1.0  0.18976  0.45656  0.87224  1.0000
  H   H364      1.0  0.15620  0.48855  0.88447  1.0000
  H   H365      1.0  0.17954  0.49595  0.89472  1.0000
  H   H366      1.0  0.21575  0.45225  0.87734  1.0000
  H   H367      1.0  0.19260  0.44545  0.86622  1.0000
  H   H368      1.0  0.12218  0.58379  0.71382  1.0000
  C   C210      1.0  0.02949  0.33400  0.77094  1.0000
  C   C211      1.0  0.02330  0.35070  0.77448  1.0000
  C   C212      1.0  0.00713  0.36016  0.77098  1.0000
  C   C213      1.0  0.99723  0.35306  0.76372  1.0000
  H   H369      1.0  0.19075  0.56045  0.50618  1.0000
  H   H370      1.0  0.99697  0.46252  0.69984  1.0000
  S   S85       1.0  0.21666  0.54424  0.93847  1.0000
  H   H371      1.0  0.19192  0.58791  0.78551  1.0000
  C   C214      1.0  0.22987  0.56799  0.54051  1.0000
  H   H372      1.0  0.10025  0.38947  0.73563  1.0000
  H   H373      1.0  0.06621  0.41730  0.73362  1.0000
  C   C215      1.0  0.19217  0.63861  0.92235  1.0000
  H   H374      1.0  0.11546  0.53414  0.63985  1.0000
  H   H375      1.0  0.14494  0.56355  0.93847  1.0000
  C   C216      1.0  0.01526  0.41954  0.74089  1.0000
  C   C217      1.0  0.11757  0.55074  0.85821  1.0000
  C   C218      1.0  0.13226  0.57580  0.60235  1.0000
  H   H376      1.0  0.13972  0.60851  0.58316  1.0000
  C   C219      1.0  0.12275  0.43900  0.76011  1.0000
  C   C220      1.0  0.13158  0.42698  0.77221  1.0000
  C   C221      1.0  0.14107  0.43250  0.78135  1.0000
  C   C222      1.0  0.14201  0.45000  0.77814  1.0000
  C   C223      1.0  0.13331  0.46197  0.76592  1.0000
  C   C224      1.0  0.12340  0.45652  0.75720  1.0000
  H   H377      1.0  0.13094  0.41341  0.77470  1.0000
  H   H378      1.0  0.14782  0.42314  0.79064  1.0000
  H   H379      1.0  0.13390  0.47554  0.76346  1.0000
  H   H380      1.0  0.11642  0.46587  0.74813  1.0000
  C   C225      1.0  0.02401  0.43336  0.73280  1.0000
  C   C226      1.0  0.01290  0.41551  0.71291  1.0000
  C   C227      1.0  0.02192  0.42910  0.70485  1.0000
  C   C228      1.0  0.02757  0.43788  0.71470  1.0000
  H   H381      1.0  0.02430  0.43310  0.69088  1.0000
  H   H382      1.0  0.03419  0.44853  0.70828  1.0000
  C   C229      1.0  0.10418  0.49693  0.67557  1.0000
  C   C230      1.0  0.11863  0.49438  0.66202  1.0000
  C   C231      1.0  0.13249  0.50293  0.65938  1.0000
  C   C232      1.0  0.13166  0.51441  0.66993  1.0000
  C   C233      1.0  0.11692  0.51742  0.68306  1.0000
  C   C234      1.0  0.10331  0.50852  0.68602  1.0000
  H   H383      1.0  0.11931  0.48543  0.65392  1.0000
  H   H384      1.0  0.14376  0.50064  0.64920  1.0000
  H   H385      1.0  0.11616  0.52638  0.69119  1.0000
  H   H386      1.0  0.09205  0.51071  0.69634  1.0000
  C   C235      1.0  0.17208  0.57448  0.56438  1.0000
  C   C236      1.0  0.16678  0.55932  0.56452  1.0000
  C   C237      1.0  0.17534  0.54314  0.57240  1.0000
  C   C238      1.0  0.18861  0.54201  0.58114  1.0000
  C   C239      1.0  0.19346  0.55724  0.58170  1.0000
  C   C240      1.0  0.18536  0.57346  0.57307  1.0000
  H   H387      1.0  0.15645  0.56003  0.55789  1.0000
  H   H388      1.0  0.17185  0.53144  0.57148  1.0000
  H   H389      1.0  0.20395  0.55642  0.58813  1.0000
  H   H390      1.0  0.18937  0.58518  0.57306  1.0000
  C   C241      1.0  0.10907  0.54709  0.64285  1.0000
  C   C242      1.0  0.06694  0.40422  0.73139  1.0000
  C   C243      1.0  0.13209  0.61509  0.83159  1.0000
  C   C244      1.0  0.13742  0.62694  0.81659  1.0000
  C   C245      1.0  0.21494  0.64493  0.60129  1.0000
  H   H391      1.0  0.21761  0.61098  0.81787  1.0000
  C   C246      1.0  0.14010  0.63175  0.84877  1.0000
  C   C247      1.0  0.13341  0.61762  0.84770  1.0000
  H   H392      1.0  0.13611  0.62547  0.80416  1.0000
  H   H393      1.0  0.21729  0.35532  0.77751  1.0000
  H   H394      1.0  0.14104  0.63354  0.86121  1.0000
  H   H395      1.0  0.12908  0.60873  0.85942  1.0000
  C   C248      1.0  0.19017  0.55470  0.81059  1.0000
  C   C249      1.0  0.17911  0.56858  0.81756  1.0000
  C   C250      1.0  0.18088  0.57174  0.83305  1.0000
  C   C251      1.0  0.19322  0.56054  0.84216  1.0000
  C   C252      1.0  0.20407  0.54643  0.83544  1.0000
  C   C253      1.0  0.20274  0.54362  0.81953  1.0000
  H   H396      1.0  0.16907  0.57698  0.81112  1.0000
  H   H397      1.0  0.17227  0.58263  0.83822  1.0000
  H   H398      1.0  0.21317  0.53747  0.84266  1.0000
  H   H399      1.0  0.21084  0.53243  0.81459  1.0000
  C   C254      1.0  0.10423  0.52955  0.77513  1.0000
  C   C255      1.0  0.08787  0.54028  0.77394  1.0000
  C   C256      1.0  0.07554  0.53482  0.76795  1.0000
  C   C257      1.0  0.07951  0.51876  0.76276  1.0000
  C   C258      1.0  0.09613  0.50834  0.76332  1.0000
  C   C259      1.0  0.10832  0.51368  0.76959  1.0000
  H   H400      1.0  0.08444  0.55247  0.77826  1.0000
  H   H401      1.0  0.06272  0.54298  0.76758  1.0000
  H   H402      1.0  0.09940  0.49594  0.75944  1.0000
  H   H403      1.0  0.12087  0.50526  0.77051  1.0000
  C   C260      1.0  0.18526  0.63650  0.72783  1.0000
  C   C261      1.0  0.18111  0.62984  0.71546  1.0000
  C   C262      1.0  0.16563  0.62358  0.71915  1.0000
  C   C263      1.0  0.15466  0.62319  0.73552  1.0000
  C   C264      1.0  0.15830  0.63075  0.74757  1.0000
  C   C265      1.0  0.17334  0.63793  0.74346  1.0000
  H   H404      1.0  0.18998  0.62923  0.70313  1.0000
  H   H405      1.0  0.16257  0.61839  0.70958  1.0000
  H   H406      1.0  0.14956  0.63100  0.76005  1.0000
  S   S86       1.0  0.18844  0.64984  0.97546  1.0000
  C   C266      1.0  0.21542  0.58087  0.65944  1.0000
  H   H407      1.0  0.10381  0.40205  0.80092  1.0000
  H   H408      1.0  0.08392  0.54501  0.63895  1.0000
  H   H409      1.0  0.01984  0.33676  0.82309  1.0000
  C   C267      1.0  0.21686  0.55689  0.64611  1.0000
  C   C268      1.0  0.21111  0.57445  0.64701  1.0000
  S   S87       1.0  0.00448  0.40629  0.69984  1.0000
  C   C269      1.0  0.15011  0.45755  0.70445  1.0000
  C   C270      1.0  0.14344  0.47743  0.69991  1.0000
  C   C271      1.0  0.14389  0.48630  0.71423  1.0000
  H   H410      1.0  0.17110  0.53713  0.86159  1.0000
  H   H411      1.0  0.14295  0.45306  0.71785  1.0000
  H   H412      1.0  0.12252  0.56179  0.84871  1.0000
  H   H413      1.0  0.12981  0.48040  0.69796  1.0000
  H   H414      1.0  0.15192  0.48329  0.68801  1.0000
  Fe  Fe42      1.0  0.22450  0.60759  0.67714  1.0000
  H   H415      1.0  0.15733  0.48351  0.71677  1.0000
  H   H416      1.0  0.07110  0.34716  0.72615  1.0000
  H   H417      1.0  0.19131  0.57501  0.89382  1.0000
  H   H418      1.0  0.20192  0.49255  0.70586  1.0000
  H   H419      1.0  0.15077  0.62644  0.67981  1.0000
  H   H420      1.0  0.22754  0.61540  0.62416  1.0000
  C   C272      1.0  0.24251  0.47954  0.73650  1.0000
  H   H421      1.0  0.23658  0.53984  0.79607  1.0000
  H   H422      1.0  0.19202  0.60217  0.96973  1.0000
  H   H423      1.0  0.24373  0.50307  0.95321  1.0000
  H   H424      1.0  0.22013  0.46031  0.69799  1.0000
  C   C273      1.0  0.23210  0.39863  0.86324  1.0000
  H   H425      1.0  0.23026  0.60845  0.75516  1.0000
  H   H426      1.0  0.15258  0.56477  0.85812  1.0000
  H   H427      1.0  0.23095  0.48760  0.69005  1.0000
  H   H428      1.0  0.12120  0.55465  0.74630  1.0000
  Fe  Fe43      1.0  0.19562  0.64267  0.53904  1.0000
  C   C274      1.0  0.18411  0.59353  0.96806  1.0000
  S   S88       1.0  0.20513  0.64801  0.51023  1.0000
  C   C275      1.0  0.11238  0.56167  0.62669  1.0000
  C   C276      1.0  0.07365  0.37248  0.74332  1.0000
  H   H429      1.0  0.14962  0.53189  0.94670  1.0000
  C   C277      1.0  0.23713  0.62142  0.61350  1.0000
  C   C278      1.0  0.20867  0.43113  0.72001  1.0000
  C   C279      1.0  0.18916  0.64426  0.95571  1.0000
  H   H430      1.0  0.24192  0.37047  0.77896  1.0000
  H   H431      1.0  0.16922  0.56605  0.91300  1.0000
  H   H432      1.0  0.13088  0.57659  0.86454  1.0000
  H   H433      1.0  0.15390  0.32072  0.77006  1.0000
  H   H434      1.0  0.05328  0.40427  0.73079  1.0000
  C   C280      1.0  0.23375  0.57617  0.95936  1.0000
  N   N11       1.0  0.20532  0.61926  0.78508  1.0000
  C   C281      1.0  0.13769  0.56925  0.63240  1.0000
  C   C282      1.0  0.15552  0.57515  0.62580  1.0000
  C   C283      1.0  0.16066  0.58083  0.64007  1.0000
  H   H435      1.0  0.13908  0.55876  0.64406  1.0000
  H   H436      1.0  0.16607  0.56447  0.62155  1.0000
  H   H437      1.0  0.15498  0.58637  0.61475  1.0000
  H   H438      1.0  0.17354  0.58472  0.63513  1.0000
  H   H439      1.0  0.15084  0.59209  0.64419  1.0000
  H   H440      1.0  0.16169  0.57003  0.65146  1.0000
  C   C284      1.0  0.18441  0.36769  0.77262  1.0000
  C   C285      1.0  0.16748  0.38130  0.76999  1.0000
  C   C286      1.0  0.17166  0.39904  0.76063  1.0000
  H   H441      1.0  0.19153  0.36525  0.75953  1.0000
  H   H442      1.0  0.19296  0.37405  0.77665  1.0000
  H   H443      1.0  0.12786  0.58006  0.63748  1.0000
  H   H444      1.0  0.16062  0.37728  0.76185  1.0000
  H   H445      1.0  0.15843  0.38267  0.78255  1.0000
  H   H446      1.0  0.16021  0.40745  0.75552  1.0000
  H   H447      1.0  0.17467  0.40536  0.76982  1.0000
  H   H448      1.0  0.18291  0.39787  0.74952  1.0000
  H   H449      1.0  0.20477  0.57029  0.72869  1.0000
  H   H450      1.0  0.21147  0.55867  0.71100  1.0000
  H   H451      1.0  0.13909  0.54365  0.59145  1.0000
  C   C287      1.0  0.08954  0.54714  0.64921  1.0000
  H   H452      1.0  0.09172  0.54761  0.83078  1.0000
  H   H453      1.0  0.14611  0.57623  0.59592  1.0000
  H   H454      1.0  0.17936  0.33993  0.81244  1.0000
  H   H455      1.0  0.12330  0.46060  0.68554  1.0000
  H   H456      1.0  0.06540  0.44564  0.83247  1.0000
  H   H457      1.0  0.08500  0.55956  0.84809  1.0000
  C   C288      1.0  0.02841  0.32650  0.65828  1.0000
  H   H458      1.0  0.06585  0.42840  0.70035  1.0000
  H   H459      1.0  0.14383  0.53681  0.62932  1.0000
  C   C289      1.0  0.04790  0.47078  0.80515  1.0000
  H   H460      1.0  0.04768  0.34939  0.73295  1.0000
  H   H461      1.0  0.06646  0.46647  0.83444  1.0000
  C   C290      1.0  0.24371  0.42383  0.80816  1.0000
  C   C291      1.0  0.21157  0.49544  0.71185  1.0000
  C   C292      1.0  0.24298  0.63662  0.58267  1.0000
  C   C293      1.0  0.02263  0.35051  0.63234  1.0000
  H   H462      1.0  0.03069  0.33583  0.66500  1.0000
  H   H463      1.0  0.17614  0.64379  0.75272  1.0000
  H   H464      1.0  0.12370  0.48443  0.79578  1.0000
  H   H465      1.0  0.07670  0.42705  0.85802  1.0000
  H   H466      1.0  0.09574  0.41831  0.78376  1.0000
  Fe  Fe44      1.0  0.08716  0.33573  0.81142  1.0000
  S   S89       1.0  0.10957  0.34941  0.80852  1.0000
  H   H467      1.0  0.23257  0.62935  0.75687  1.0000
  H   H468      1.0  0.21902  0.45806  0.84272  1.0000
  H   H469      1.0  0.23098  0.61855  0.78921  1.0000
  C   C294      1.0  0.09347  0.41355  0.79799  1.0000
  H   H470      1.0  0.00925  0.34843  0.63342  1.0000
  H   H471      1.0  0.02183  0.36024  0.64012  1.0000
  H   H472      1.0  0.02785  0.35575  0.61853  1.0000
  H   H473      1.0  0.19298  0.64756  0.65538  1.0000
  C   C295      1.0  0.05941  0.39300  0.76259  1.0000
  C   C296      1.0  0.05926  0.40898  0.76988  1.0000
  C   C297      1.0  0.04397  0.41137  0.78516  1.0000
  H   H474      1.0  0.06127  0.38143  0.77319  1.0000
  H   H475      1.0  0.04597  0.39417  0.76053  1.0000
  H   H476      1.0  0.05808  0.42110  0.75998  1.0000
  H   H477      1.0  0.07145  0.40734  0.77459  1.0000
  H   H478      1.0  0.04476  0.39961  0.79567  1.0000
  H   H479      1.0  0.04435  0.42266  0.79033  1.0000
  H   H480      1.0  0.03135  0.41390  0.78090  1.0000
  H   H481      1.0  0.09975  0.43750  0.83390  1.0000
  H   H482      1.0  0.09530  0.45759  0.84068  1.0000
  H   H483      1.0  0.09270  0.43358  0.86558  1.0000
  H   H484      1.0  0.10754  0.42941  0.80474  1.0000
  H   H485      1.0  0.20661  0.59323  0.87023  1.0000
  C   C298      1.0  0.03470  0.48747  0.80051  1.0000
  H   H486      1.0  0.21966  0.56838  0.55258  1.0000
  H   H487      1.0  0.21924  0.55547  0.96849  1.0000
  C   C299      1.0  0.19804  0.64098  0.61409  1.0000
  H   H488      1.0  0.08269  0.38995  0.71079  1.0000
  H   H489      1.0  0.20214  0.33478  0.76942  1.0000
  N   N12       1.0  0.17931  0.50416  0.77479  1.0000
  C   C300      1.0  0.17381  0.50569  0.79361  1.0000
  C   C301      1.0  0.19269  0.51531  0.76581  1.0000
  C   C302      1.0  0.16341  0.51154  0.76660  1.0000
  C   C303      1.0  0.18634  0.48564  0.77222  1.0000
  C   C304      1.0  0.19467  0.47230  0.78673  1.0000
  C   C305      1.0  0.15745  0.49815  0.80393  1.0000
  C   C306      1.0  0.16681  0.51309  0.74667  1.0000
  C   C307      1.0  0.20960  0.51090  0.77313  1.0000
  C   C308      1.0  0.22232  0.52264  0.76260  1.0000
  C   C309      1.0  0.20187  0.45455  0.78169  1.0000
  C   C310      1.0  0.15637  0.49464  0.82346  1.0000
  C   C311      1.0  0.14985  0.51598  0.74026  1.0000
  H   H490      1.0  0.17078  0.51961  0.79467  1.0000
  H   H491      1.0  0.18469  0.49960  0.80060  1.0000
  H   H492      1.0  0.19704  0.51454  0.75187  1.0000
  H   H493      1.0  0.18668  0.52923  0.76611  1.0000
  H   H494      1.0  0.15708  0.52468  0.76943  1.0000
  H   H495      1.0  0.15329  0.50342  0.77241  1.0000
  H   H496      1.0  0.17578  0.48001  0.77052  1.0000
  H   H497      1.0  0.19613  0.48533  0.75985  1.0000
  H   H498      1.0  0.18476  0.47041  0.79884  1.0000
  H   H499      1.0  0.20540  0.47649  0.78974  1.0000
  H   H500      1.0  0.14543  0.50758  0.80105  1.0000
  H   H501      1.0  0.15732  0.48596  0.80033  1.0000
  H   H502      1.0  0.17554  0.50129  0.74258  1.0000
  H   H503      1.0  0.17299  0.52436  0.74009  1.0000
  H   H504      1.0  0.20668  0.51261  0.78675  1.0000
  H   H505      1.0  0.21653  0.49747  0.77239  1.0000
  H   H506      1.0  0.22673  0.52060  0.74905  1.0000
  H   H507      1.0  0.21600  0.53647  0.76248  1.0000
  S   S90       1.0  0.23700  0.64421  0.95846  1.0000
  H   H508      1.0  0.20691  0.44501  0.79257  1.0000
  H   H509      1.0  0.19146  0.44965  0.77880  1.0000
  H   H510      1.0  0.21262  0.45523  0.77016  1.0000
  H   H511      1.0  0.14426  0.48975  0.83040  1.0000
  H   H512      1.0  0.16773  0.48466  0.82722  1.0000
  H   H513      1.0  0.15600  0.50678  0.82751  1.0000
  H   H514      1.0  0.15255  0.51863  0.72587  1.0000
  H   H515      1.0  0.14403  0.50421  0.74510  1.0000
  H   H516      1.0  0.08924  0.35952  0.84131  1.0000
  C   C312      1.0  0.12821  0.57100  0.72083  1.0000
  H   H517      1.0  0.23828  0.50455  0.82262  1.0000
  H   H518      1.0  0.08245  0.55961  0.65309  1.0000
  H   H519      1.0  0.16253  0.36606  0.83394  1.0000
  H   H520      1.0  0.00464  0.35181  0.81081  1.0000
  C   C313      1.0  0.06649  0.47451  0.80240  1.0000
  H   H521      1.0  0.21346  0.52015  0.69405  1.0000
  H   H522      1.0  0.09060  0.40522  0.74854  1.0000
  H   H523      1.0  0.18368  0.35199  0.83542  1.0000
  H   H524      1.0  0.20089  0.63312  0.62672  1.0000
  H   H525      1.0  0.23977  0.53436  0.82398  1.0000
  H   H526      1.0  0.18403  0.56545  0.67485  1.0000
  H   H527      1.0  0.20334  0.58301  0.63810  1.0000
  N   N13       1.0  0.07270  0.39038  0.74621  1.0000
  H   H528      1.0  0.09391  0.37906  0.85821  1.0000
  H   H529      1.0  0.17462  0.37981  0.80370  1.0000
  C   C314      1.0  0.00994  0.41052  0.73100  1.0000
  H   H530      1.0  0.15630  0.54741  0.61042  1.0000
  H   H531      1.0  0.03869  0.49384  0.78675  1.0000
  H   H532      1.0  0.16239  0.58296  0.95496  1.0000
  C   C315      1.0  0.23061  0.55195  0.67061  1.0000
  C   C316      1.0  0.14267  0.54587  0.61668  1.0000
  H   H533      1.0  0.10801  0.45555  0.80881  1.0000
  H   H534      1.0  0.03451  0.32415  0.63066  1.0000
  C   C317      1.0  0.03452  0.33340  0.63860  1.0000
  H   H535      1.0  0.21104  0.54308  0.52514  1.0000
  C   C318      1.0  0.20339  0.55900  0.72422  1.0000
  H   H536      1.0  0.18309  0.54753  0.72194  1.0000
  H   H537      1.0  0.17968  0.64589  0.80191  1.0000
  H   H538      1.0  0.22712  0.55473  0.49663  1.0000
  H   H539      1.0  0.08569  0.36842  0.73383  1.0000
  C   C319      1.0  0.12181  0.59454  0.60314  1.0000
  H   H540      1.0  0.11472  0.49983  0.90828  1.0000
  S   S91       1.0  0.20608  0.64124  0.72444  1.0000
  C   C320      1.0  0.23884  0.54644  0.50139  1.0000
  H   H541      1.0  0.21914  0.39811  0.86118  1.0000
  H   H542      1.0  0.12139  0.44886  0.70689  1.0000
  H   H543      1.0  0.15113  0.55843  0.73139  1.0000
  H   H544      1.0  0.10626  0.55997  0.61654  1.0000
  H   H545      1.0  0.22614  0.58038  0.53144  1.0000
  C   C321      1.0  0.24331  0.40634  0.84624  1.0000
  H   H546      1.0  0.03365  0.49664  0.80898  1.0000
  H   H547      1.0  0.17682  0.56082  0.73782  1.0000
  C   C322      1.0  0.18112  0.55456  0.68552  1.0000
  H   H548      1.0  0.16300  0.51835  0.87381  1.0000
  H   H549      1.0  0.13647  0.51568  0.88627  1.0000
  H   H550      1.0  0.15548  0.35294  0.78167  1.0000
  H   H551      1.0  0.21176  0.41675  0.72357  1.0000
  C   C323      1.0  0.18142  0.36674  0.80937  1.0000
  H   H552      1.0  0.20011  0.59782  0.80631  1.0000
  H   H553      1.0  0.15369  0.59470  0.91158  1.0000
  C   C324      1.0  0.19623  0.59046  0.75783  1.0000
  H   H554      1.0  0.15776  0.46895  0.63868  1.0000
  H   H555      1.0  0.16103  0.35550  0.80709  1.0000
  C   C325      1.0  0.17556  0.35257  0.80368  1.0000
  C   C326      1.0  0.17688  0.36477  0.82909  1.0000
  S   S92       1.0  0.22938  0.52038  0.86902  1.0000
  H   H556      1.0  0.22063  0.42502  0.83911  1.0000
  H   H557      1.0  0.11733  0.61996  0.58640  1.0000
  H   H558      1.0  0.14962  0.46849  0.67013  1.0000
  C   C327      1.0  0.18660  0.56902  0.51579  1.0000
  H   H559      1.0  0.21848  0.44971  0.81545  1.0000
  C   C328      1.0  0.22483  0.61241  0.78212  1.0000
  C   C329      1.0  0.00370  0.33670  0.75949  1.0000
  H   H560      1.0  0.23872  0.38521  0.86818  1.0000
  C   C330      1.0  0.18419  0.55986  0.72451  1.0000
  N   N14       1.0  0.18190  0.35076  0.78493  1.0000
  H   H561      1.0  0.12481  0.59975  0.61318  1.0000
  C   C331      1.0  0.14779  0.53448  0.85403  1.0000
  C   C332      1.0  0.18166  0.53935  0.67754  1.0000
  H   H562      1.0  0.22555  0.59257  0.61044  1.0000
  Fe  Fe45      1.0  0.21117  0.61924  0.51324  1.0000
  C   C333      1.0  0.19288  0.61274  0.83563  1.0000
  H   H563      1.0  0.04780  0.46212  0.79659  1.0000
  H   H564      1.0  0.22756  0.57990  0.84535  1.0000
  H   H565      1.0  0.10458  0.57400  0.63051  1.0000
  H   H566      1.0  0.23010  0.40649  0.87321  1.0000
  H   H567      1.0  0.08921  0.37962  0.77553  1.0000
  H   H568      1.0  0.23568  0.37329  0.80983  1.0000
  H   H569      1.0  0.13970  0.50055  0.71015  1.0000
  H   H570      1.0  0.10292  0.56696  0.73669  1.0000
  H   H571      1.0  0.17418  0.58729  0.71697  1.0000
  C   C334      1.0  0.01971  0.32705  0.76335  1.0000
  C   C335      1.0  0.16850  0.34407  0.77965  1.0000
  H   H572      1.0  0.22270  0.48781  0.81117  1.0000
  H   H573      1.0  0.10755  0.59477  0.60609  1.0000
  C   C336      1.0  0.15286  0.59121  0.69553  1.0000
  H   H574      1.0  0.12710  0.57133  0.59312  1.0000
  H   H575      1.0  0.08757  0.53649  0.66068  1.0000
  C   C337      1.0  0.13697  0.53657  0.60513  1.0000
  C   C338      1.0  0.24069  0.55244  0.79054  1.0000
  S   S93       1.0  0.20926  0.60307  0.65975  1.0000
  H   H576      1.0  0.11412  0.54884  0.65366  1.0000
  H   H577      1.0  0.19769  0.58046  0.53048  1.0000
  H   H578      1.0  0.13826  0.62555  0.90500  1.0000
  C   C339      1.0  0.17665  0.57557  0.71127  1.0000
  H   H579      1.0  0.14537  0.58112  0.73061  1.0000
  H   H580      1.0  0.12871  0.56090  0.71363  1.0000
  C   C340      1.0  0.12892  0.44812  0.69348  1.0000
  H   H581      1.0  0.21816  0.51878  0.71500  1.0000
  H   H582      1.0  0.09786  0.53328  0.88582  1.0000
  C   C341      1.0  0.08143  0.44466  0.80128  1.0000
  H   H583      1.0  0.14450  0.51228  0.59605  1.0000
  Fe  Fe46      1.0  0.22421  0.62411  0.70686  1.0000
  C   C342      1.0  0.21495  0.60248  0.60512  1.0000
  C   C343      1.0  0.20204  0.63886  0.78117  1.0000
  H   H584      1.0  0.23711  0.45903  0.80444  1.0000
  C   C344      1.0  0.22814  0.38229  0.80086  1.0000
  H   H585      1.0  0.12301  0.53564  0.60933  1.0000
  C   C345      1.0  0.15656  0.45496  0.67405  1.0000
  C   C346      1.0  0.12592  0.60700  0.58587  1.0000
  S   S94       1.0  0.22755  0.63372  0.67832  1.0000
  C   C347      1.0  0.14757  0.51807  0.60566  1.0000
  H   H586      1.0  0.19562  0.36637  0.80513  1.0000
  H   H587      1.0  0.20873  0.46361  0.71907  1.0000
  C   C348      1.0  0.19891  0.33767  0.78270  1.0000
  C   C349      1.0  0.21572  0.48116  0.82369  1.0000
  H   H588      1.0  0.20090  0.57979  0.91813  1.0000
  C   C350      1.0  0.23589  0.53645  0.54551  1.0000
  H   H589      1.0  0.17178  0.59177  0.67069  1.0000
  S   S95       1.0  0.08356  0.33364  0.78546  1.0000
  H   H590      1.0  0.18715  0.57758  0.69956  1.0000
  S   S96       1.0  0.21829  0.59896  0.70584  1.0000
  C   C351      1.0  0.22882  0.42620  0.67550  1.0000
  H   H591      1.0  0.16168  0.32520  0.80375  1.0000
  H   H592      1.0  0.10491  0.42804  0.67636  1.0000
  H   H593      1.0  0.12607  0.62096  0.92707  1.0000
  C   C352      1.0  0.14679  0.57110  0.72298  1.0000
  H   H594      1.0  0.09663  0.44562  0.68780  1.0000
  H   H595      1.0  0.05682  0.37788  0.72412  1.0000
  H   H596      1.0  0.16419  0.43238  0.66131  1.0000
  H   H597      1.0  0.21767  0.41996  0.68012  1.0000
  H   H598      1.0  0.19594  0.52113  0.71272  1.0000
  C   C353      1.0  0.24285  0.55377  0.51555  1.0000
  H   H599      1.0  0.20320  0.63180  0.81499  1.0000
  H   H600      1.0  0.13754  0.57765  0.89236  1.0000
  H   H601      1.0  0.19188  0.55067  0.69275  1.0000
  H   H602      1.0  0.23055  0.42111  0.80932  1.0000
  C   C354      1.0  0.00599  0.34039  0.82160  1.0000
  H   H603      1.0  0.12063  0.53587  0.83797  1.0000
  C   C355      1.0  0.19704  0.61375  0.77319  1.0000
  H   H604      1.0  0.17881  0.61859  0.83589  1.0000
  C   C356      1.0  0.22573  0.56348  0.95719  1.0000
  H   H605      1.0  0.18116  0.37503  0.83284  1.0000
  C   C357      1.0  0.05781  0.36999  0.73725  1.0000
  C   C358      1.0  0.22686  0.46363  0.83025  1.0000
  C   C359      1.0  0.14360  0.64129  0.81771  1.0000
  C   C360      1.0  0.20242  0.57106  0.52166  1.0000
  H   H606      1.0  0.10194  0.56529  0.82966  1.0000
  H   H607      1.0  0.14534  0.54144  0.88662  1.0000
  H   H608      1.0  0.15030  0.54572  0.84330  1.0000
  C   C361      1.0  0.24019  0.55658  0.77132  1.0000
  H   H609      1.0  0.13763  0.42125  0.71969  1.0000
  C   C362      1.0  0.22633  0.56088  0.94059  1.0000
  H   H610      1.0  0.12151  0.47525  0.81865  1.0000
  H   H611      1.0  0.20127  0.62030  0.75956  1.0000
  H   H612      1.0  0.10649  0.55694  0.86741  1.0000
  C   C363      1.0  0.10824  0.43922  0.67945  1.0000
  H   H613      1.0  0.17039  0.59752  0.97478  1.0000
  H   H614      1.0  0.11466  0.49824  0.81136  1.0000
  C   C364      1.0  0.07439  0.45494  0.82909  1.0000
  C   C365      1.0  0.11538  0.48528  0.80876  1.0000
  S   S97       1.0  0.20704  0.45270  0.65854  1.0000
  H   H615      1.0  0.16555  0.62014  0.91567  1.0000
  H   H616      1.0  0.16602  0.62296  0.65997  1.0000
  C   C366      1.0  0.14829  0.57433  0.88141  1.0000
  H   H617      1.0  0.15931  0.56494  0.88653  1.0000
  H   H618      1.0  0.17618  0.60305  0.68517  1.0000
  H   H619      1.0  0.06474  0.48592  0.80834  1.0000
  C   C367      1.0  0.09815  0.37877  0.76282  1.0000
  H   H620      1.0  0.01260  0.41578  0.75488  1.0000
  H   H621      1.0  0.09185  0.50995  0.91112  1.0000
  H   H622      1.0  0.02162  0.48441  0.80225  1.0000
  H   H623      1.0  0.04326  0.46463  0.81881  1.0000
  H   H624      1.0  0.17217  0.34387  0.76552  1.0000
  H   H625      1.0  0.07153  0.44765  0.86494  1.0000
  C   C368      1.0  0.14183  0.56677  0.86933  1.0000
  C   C369      1.0  0.13558  0.54967  0.87885  1.0000
  H   H626      1.0  0.17957  0.52261  0.83499  1.0000
  H   H627      1.0  0.10384  0.53096  0.85656  1.0000
  H   H628      1.0  0.15309  0.58631  0.87407  1.0000
  S   S98       1.0  0.00060  0.35769  0.70374  1.0000
  H   H629      1.0  0.22806  0.57426  0.68132  1.0000
  H   H630      1.0  0.14323  0.44621  0.65836  1.0000
  H   H631      1.0  0.11139  0.44862  0.66716  1.0000
  H   H632      1.0  0.16183  0.51791  0.60253  1.0000
  N   N15       1.0  0.16022  0.57417  0.70642  1.0000
  H   H633      1.0  0.16412  0.45545  0.70530  1.0000
  H   H634      1.0  0.14645  0.60092  0.70394  1.0000
  C   C370      1.0  0.10424  0.50800  0.90141  1.0000
  C   C371      1.0  0.22650  0.54557  0.65799  1.0000
  H   H635      1.0  0.14545  0.52495  0.84760  1.0000
  H   H636      1.0  0.12364  0.55350  0.88852  1.0000
  N   N16       1.0  0.13179  0.53956  0.86747  1.0000
  H   H637      1.0  0.17894  0.45562  0.64141  1.0000
  H   H638      1.0  0.06854  0.44094  0.80386  1.0000
  C   C372      1.0  0.12378  0.43294  0.68857  1.0000
  H   H639      1.0  0.23091  0.56265  0.79651  1.0000
  S   S99       1.0  0.21576  0.47873  0.89515  1.0000
  S   S100      1.0  0.16793  0.64339  0.53780  1.0000
  C   C373      1.0  0.08914  0.44718  0.83974  1.0000
  C   C374      1.0  0.09703  0.48290  0.80942  1.0000
  C   C375      1.0  0.08196  0.43838  0.85820  1.0000
  H   H640      1.0  0.08923  0.48358  0.82264  1.0000
  Fe  Fe47      1.0  0.22103  0.53449  0.91333  1.0000
  C   C376      1.0  0.17821  0.51550  0.84866  1.0000
  C   C377      1.0  0.20499  0.62971  0.93200  1.0000
  H   H641      1.0  0.15819  0.53825  0.92383  1.0000
  H   H642      1.0  0.21078  0.64365  0.78674  1.0000
  H   H643      1.0  0.21626  0.62085  0.92653  1.0000
  C   C378      1.0  0.09727  0.46574  0.80408  1.0000
  C   C379      1.0  0.09390  0.42755  0.80733  1.0000
  H   H644      1.0  0.10143  0.46798  0.78969  1.0000
  H   H645      1.0  0.09096  0.49413  0.80038  1.0000
  H   H646      1.0  0.08966  0.42239  0.82135  1.0000
  H   H647      1.0  0.08064  0.40947  0.80238  1.0000
  H   H648      1.0  0.01398  0.32780  0.66119  1.0000
  C   C380      1.0  0.15204  0.41966  0.71630  1.0000
  H   H649      1.0  0.19117  0.51202  0.85243  1.0000
  H   H650      1.0  0.17382  0.50333  0.84966  1.0000
  H   H651      1.0  0.10993  0.53215  0.90204  1.0000
  C   C381      1.0  0.15675  0.44593  0.65933  1.0000
  H   H652      1.0  0.13438  0.42580  0.67992  1.0000
  C   C382      1.0  0.20384  0.61763  0.81756  1.0000
  H   H653      1.0  0.08541  0.44849  0.78690  1.0000
  Fe  Fe48      1.0  0.21909  0.50570  0.89529  1.0000
  H   H654      1.0  0.06128  0.34239  0.74892  1.0000
  C   C383      1.0  0.16579  0.60000  0.68039  1.0000
  H   H655      1.0  0.15818  0.42049  0.68867  1.0000
  N   N17       1.0  0.08007  0.45973  0.80959  1.0000
  C   C384      1.0  0.15823  0.42894  0.69737  1.0000
  C   C385      1.0  0.10889  0.52556  0.89204  1.0000
  C   C386      1.0  0.12637  0.52316  0.87866  1.0000
  S   S101      1.0  0.23529  0.60393  0.49916  1.0000
  H   H656      1.0  0.12568  0.51429  0.87049  1.0000
  N   N18       1.0  0.14819  0.44714  0.69222  1.0000
  H   H657      1.0  0.20570  0.60741  0.61616  1.0000
  H   H658      1.0  0.07853  0.41406  0.68602  1.0000
  C   C387      1.0  0.23688  0.46489  0.73129  1.0000
  H   H659      1.0  0.21424  0.58752  0.58658  1.0000
  H   H660      1.0  0.21142  0.57680  0.51015  1.0000
  C   C388      1.0  0.15645  0.61718  0.67090  1.0000
  C   C389      1.0  0.22482  0.43831  0.71898  1.0000
  H   H661      1.0  0.04798  0.33586  0.63599  1.0000
  C   C390      1.0  0.15989  0.53800  0.93704  1.0000
  H   H662      1.0  0.12011  0.42330  0.70052  1.0000
  N   N19       1.0  0.17307  0.58332  0.92761  1.0000
  H   H663      1.0  0.21407  0.58758  0.77429  1.0000
  H   H664      1.0  0.21285  0.48952  0.83339  1.0000
  H   H665      1.0  0.20306  0.47937  0.82204  1.0000
  C   C391      1.0  0.11565  0.38216  0.76383  1.0000
  N   N20       1.0  0.23015  0.55277  0.53284  1.0000
  H   H666      1.0  0.18519  0.55669  0.92605  1.0000
  H   H667      1.0  0.15614  0.42512  0.72552  1.0000
  C   C392      1.0  0.16303  0.55926  0.69737  1.0000
  H   H668      1.0  0.24320  0.63859  0.48859  1.0000
  H   H669      1.0  0.14233  0.58967  0.68978  1.0000
  H   H670      1.0  0.20333  0.55082  0.54450  1.0000
  C   C393      1.0  0.21515  0.34261  0.78559  1.0000
  H   H671      1.0  0.17717  0.56351  0.52705  1.0000
  C   C394      1.0  0.17220  0.56551  0.92578  1.0000
  C   C395      1.0  0.14511  0.64377  0.83374  1.0000
  C   C396      1.0  0.17533  0.58196  0.94588  1.0000
  H   H672      1.0  0.04538  0.37386  0.74624  1.0000
  H   H673      1.0  0.24049  0.64328  0.92216  1.0000
  H   H674      1.0  0.17982  0.58190  0.50963  1.0000
  C   C397      1.0  0.15990  0.40024  0.71911  1.0000
  H   H675      1.0  0.17341  0.64366  0.78304  1.0000
  C   C398      1.0  0.22272  0.61704  0.59124  1.0000
  C   C399      1.0  0.11602  0.56734  0.73849  1.0000
  C   C400      1.0  0.21167  0.55351  0.53137  1.0000
  H   H676      1.0  0.23586  0.43140  0.71043  1.0000
  H   H677      1.0  0.23642  0.56413  0.82098  1.0000
  H   H678      1.0  0.13652  0.63940  0.91977  1.0000
  C   C401      1.0  0.13778  0.62575  0.91873  1.0000
  H   H679      1.0  0.23339  0.63925  0.89689  1.0000
  H   H680      1.0  0.19403  0.60254  0.59256  1.0000
  H   H681      1.0  0.19451  0.59847  0.83968  1.0000
  H   H682      1.0  0.20798  0.49087  0.72607  1.0000
  H   H683      1.0  0.21731  0.58966  0.88815  1.0000
  H   H684      1.0  0.18948  0.58003  0.97417  1.0000
  C   C402      1.0  0.20530  0.59328  0.59740  1.0000
  H   H685      1.0  0.23385  0.43237  0.84927  1.0000
  H   H686      1.0  0.17028  0.45569  0.67365  1.0000
  H   H687      1.0  0.22715  0.53663  0.55854  1.0000
  S   S102      1.0  0.19522  0.63649  0.90088  1.0000
  H   H688      1.0  0.20549  0.64384  0.76693  1.0000
  H   H689      1.0  0.19123  0.63411  0.60845  1.0000
  H   H690      1.0  0.18277  0.61600  0.80587  1.0000
  H   H691      1.0  0.20843  0.54706  0.73311  1.0000
  H   H692      1.0  0.23460  0.57015  0.91329  1.0000
  H   H693      1.0  0.20524  0.59554  0.74592  1.0000
  H   H694      1.0  0.16010  0.55524  0.95294  1.0000
  H   H695      1.0  0.17439  0.39802  0.71688  1.0000
  H   H696      1.0  0.20268  0.61001  0.88222  1.0000
  H   H697      1.0  0.17238  0.42907  0.69571  1.0000
  H   H698      1.0  0.15487  0.39399  0.73263  1.0000
  C   C403      1.0  0.22171  0.45818  0.71168  1.0000
  H   H699      1.0  0.18258  0.59666  0.75654  1.0000
  H   H700      1.0  0.12113  0.37225  0.77427  1.0000
  H   H701      1.0  0.16113  0.54712  0.70704  1.0000
  H   H702      1.0  0.22659  0.55804  0.76973  1.0000
  H   H703      1.0  0.16509  0.44867  0.63142  1.0000
  H   H704      1.0  0.15288  0.56153  0.68950  1.0000
  C   C404      1.0  0.15448  0.61473  0.92448  1.0000
  C   C405      1.0  0.16517  0.45543  0.64168  1.0000
  H   H705      1.0  0.14590  0.61509  0.66558  1.0000
  H   H706      1.0  0.18313  0.56894  0.95061  1.0000
  H   H707      1.0  0.14495  0.59125  0.93407  1.0000
  C   C406      1.0  0.19733  0.61226  0.80361  1.0000
  H   H708      1.0  0.23191  0.50427  0.56716  1.0000
  C   C407      1.0  0.15620  0.59543  0.92420  1.0000
  H   H709      1.0  0.19790  0.57628  0.75896  1.0000
  H   H710      1.0  0.13479  0.48192  0.72634  1.0000
  C   C408      1.0  0.20038  0.59403  0.77382  1.0000
  N   N21       1.0  0.23548  0.46744  0.71257  1.0000
  H   H711      1.0  0.20459  0.43487  0.70729  1.0000
  H   H712      1.0  0.19510  0.53483  0.67070  1.0000
  H   H713      1.0  0.19907  0.59216  0.94248  1.0000
  H   H714      1.0  0.15609  0.39408  0.71025  1.0000
  N   N22       1.0  0.22941  0.62967  0.59761  1.0000
  C   C409      1.0  0.07884  0.40332  0.71325  1.0000
  H   H715      1.0  0.04212  0.32671  0.77336  1.0000
  H   H716      1.0  0.17306  0.54352  0.66798  1.0000
  H   H717      1.0  0.19718  0.61765  0.84512  1.0000
  H   H718      1.0  0.19016  0.60172  0.91513  1.0000
  H   H719      1.0  0.17749  0.52828  0.68758  1.0000
  H   H720      1.0  0.22386  0.51817  0.53853  1.0000
  C   C410      1.0  0.20346  0.63252  0.94867  1.0000
  C   C411      1.0  0.23026  0.48627  0.70421  1.0000
  H   H721      1.0  0.17745  0.59632  0.89101  1.0000
  H   H722      1.0  0.17959  0.60851  0.94329  1.0000
  C   C412      1.0  0.15045  0.32122  0.78405  1.0000
  C   C413      1.0  0.18503  0.59495  0.94876  1.0000
  C   C414      1.0  0.18951  0.58852  0.89543  1.0000
  S   S103      1.0  0.23967  0.50983  0.90749  1.0000
  C   C415      1.0  0.18878  0.58866  0.91463  1.0000
  H   H723      1.0  0.15358  0.61626  0.93786  1.0000
  H   H724      1.0  0.23400  0.51964  0.76854  1.0000
  C   C416      1.0  0.23470  0.61534  0.76291  1.0000
  C   C417      1.0  0.23455  0.57155  0.92614  1.0000
  H   H725      1.0  0.22787  0.59831  0.78784  1.0000
  H   H726      1.0  0.10048  0.36527  0.76091  1.0000
  H   H727      1.0  0.17286  0.52992  0.93897  1.0000
  H   H728      1.0  0.19765  0.43602  0.73004  1.0000
  H   H729      1.0  0.18258  0.61808  0.77614  1.0000
  C   C418      1.0  0.22502  0.56956  0.67136  1.0000
  C   C419      1.0  0.20974  0.51509  0.70818  1.0000
  C   C420      1.0  0.23445  0.42513  0.83915  1.0000
  H   H730      1.0  0.11379  0.39512  0.76692  1.0000
  H   H731      1.0  0.24385  0.56747  0.50948  1.0000
  H   H732      1.0  0.05777  0.41001  0.69895  1.0000
  H   H733      1.0  0.12516  0.38149  0.75138  1.0000
  H   H734      1.0  0.07490  0.36271  0.75552  1.0000
  C   C421      1.0  0.23168  0.38073  0.78345  1.0000
  H   H735      1.0  0.00226  0.37294  0.77399  1.0000
  H   H736      1.0  0.11445  0.57768  0.74579  1.0000
  Fe  Fe49      1.0  0.17812  0.64654  0.50906  1.0000
  H   H737      1.0  0.22777  0.43504  0.73217  1.0000
  H   H738      1.0  0.24241  0.49134  0.55101  1.0000
  S   S104      1.0  0.23247  0.52331  0.65794  1.0000
  H   H739      1.0  0.23900  0.46584  0.83269  1.0000
  H   H740      1.0  0.19769  0.32517  0.79192  1.0000
  C   C422      1.0  0.00073  0.32509  0.81788  1.0000
  C   C423      1.0  0.23120  0.45153  0.81706  1.0000
  H   H741      1.0  0.13815  0.33092  0.78651  1.0000
  C   C424      1.0  0.23667  0.51903  0.54059  1.0000
  C   C425      1.0  0.23254  0.64301  0.86258  1.0000
  H   H742      1.0  0.23631  0.53314  0.50623  1.0000
  H   H743      1.0  0.20027  0.58266  0.60748  1.0000
  H   H744      1.0  0.23985  0.63142  0.61903  1.0000
  H   H745      1.0  0.23333  0.61005  0.58221  1.0000
  H   H746      1.0  0.23794  0.54325  0.67994  1.0000
  H   H747      1.0  0.00335  0.39986  0.73736  1.0000
  C   C426      1.0  0.24177  0.50367  0.55492  1.0000
  H   H748      1.0  0.22564  0.63271  0.87101  1.0000
  H   H749      1.0  0.23354  0.57770  0.97225  1.0000
  C   C427      1.0  0.24182  0.45045  0.65840  1.0000
  H   H750      1.0  0.22638  0.64869  0.85111  1.0000
  H   H751      1.0  0.99774  0.34398  0.83383  1.0000
  C   C428      1.0  0.24276  0.58620  0.94492  1.0000
  C   C429      1.0  0.24292  0.58394  0.92829  1.0000
  H   H752      1.0  0.14687  0.65077  0.80610  1.0000
  H   H753      1.0  0.23179  0.49116  0.73675  1.0000
  H   H754      1.0  0.23707  0.64254  0.57097  1.0000
  H   H755      1.0  0.23512  0.47110  0.76450  1.0000
  H   H756      1.0  0.23874  0.44296  0.78469  1.0000
  C   C430      1.0  0.17742  0.64965  0.92967  1.0000
  H   H757      1.0  0.24080  0.46299  0.64973  1.0000
  C   C431      1.0  0.24163  0.57927  0.84470  1.0000
  C   C432      1.0  0.16527  0.32579  0.78954  1.0000
  H   H758      1.0  0.23583  0.58979  0.55892  1.0000
  C   C433      1.0  0.24014  0.64971  0.88833  1.0000
  H   H759      1.0  0.01029  0.32095  0.80649  1.0000
  H   H760      1.0  0.02870  0.32715  0.69299  1.0000
  N   N23       1.0  0.24301  0.43407  0.82154  1.0000
  H   H761      1.0  0.23967  0.49395  0.70466  1.0000
  H   H762      1.0  0.24338  0.57901  0.85787  1.0000
  H   H763      1.0  0.24314  0.33315  0.78315  1.0000
  H   H764      1.0  0.24331  0.41428  0.77730  1.0000
  H   H765      1.0  0.99458  0.46970  0.71980  1.0000
  H   H766      1.0  0.09581  0.77176  0.04729  1.0000
  Fe  Fe50      1.0  0.02081  0.74807  0.13313  1.0000
  C   C434      1.0  0.14453  0.85228  0.98089  1.0000
  S   S105      1.0  0.04523  0.73040  0.13988  1.0000
  H   H767      1.0  0.16941  0.65256  0.43763  1.0000
  S   S106      1.0  0.01618  0.79044  0.07727  1.0000
  S   S107      1.0  0.01716  0.77696  0.12538  1.0000
  H   H768      1.0  0.15096  0.73906  0.09344  1.0000
  H   H769      1.0  0.11404  0.65688  0.16634  1.0000
  Fe  Fe51      1.0  0.09415  0.77200  0.99916  1.0000
  S   S108      1.0  0.10220  0.79502  0.00290  1.0000
  S   S109      1.0  0.07382  0.75813  0.01847  1.0000
  H   H770      1.0  0.23795  0.66656  0.38901  1.0000
  H   H771      1.0  0.01813  0.81048  0.14083  1.0000
  Fe  Fe52      1.0  0.12922  0.77896  0.99979  1.0000
  S   S110      1.0  0.14784  0.78157  0.01479  1.0000
  H   H772      1.0  0.00638  0.68409  0.15053  1.0000
  H   H773      1.0  0.11478  0.80161  0.03336  1.0000
  S   S111      1.0  0.12092  0.75513  0.99851  1.0000
  H   H774      1.0  0.01150  0.85737  0.14190  1.0000
  S   S112      1.0  0.15804  0.85995  0.99006  1.0000
  H   H775      1.0  0.07248  0.75205  0.07261  1.0000
  H   H776      1.0  0.13027  0.71539  0.02651  1.0000
  H   H777      1.0  0.08476  0.86836  0.39406  1.0000
  S   S113      1.0  0.22528  0.72574  0.43530  1.0000
  H   H778      1.0  0.10372  0.81423  0.04965  1.0000
  H   H779      1.0  0.07075  0.83997  0.23982  1.0000
  H   H780      1.0  0.14131  0.82455  0.39350  1.0000
  H   H781      1.0  0.13972  0.78609  0.39919  1.0000
  C   C435      1.0  0.04168  0.72906  0.42589  1.0000
  H   H782      1.0  0.99762  0.72000  0.44342  1.0000
  Fe  Fe53      1.0  0.17352  0.82756  0.43166  1.0000
  S   S114      1.0  0.16941  0.85652  0.42334  1.0000
  S   S115      1.0  0.15647  0.81478  0.45542  1.0000
  Fe  Fe54      1.0  0.20558  0.82179  0.40318  1.0000
  S   S116      1.0  0.20409  0.85020  0.39252  1.0000
  S   S117      1.0  0.22859  0.80175  0.39435  1.0000
  Fe  Fe55      1.0  0.19867  0.85295  0.42050  1.0000
  S   S118      1.0  0.21719  0.86247  0.43168  1.0000
  Fe  Fe56      1.0  0.17515  0.85093  0.39625  1.0000
  S   S119      1.0  0.15757  0.86440  0.37672  1.0000
  S   S120      1.0  0.20200  0.82424  0.43051  1.0000
  S   S121      1.0  0.17729  0.82224  0.40508  1.0000
  H   H783      1.0  0.13562  0.78644  0.34023  1.0000
  C   C436      1.0  0.11887  0.71931  0.03668  1.0000
  Fe  Fe57      1.0  0.10041  0.72617  0.23667  1.0000
  S   S122      1.0  0.10121  0.73358  0.26134  1.0000
  S   S123      1.0  0.11572  0.73336  0.20969  1.0000
  C   C437      1.0  0.04397  0.74586  0.41753  1.0000
  Fe  Fe58      1.0  0.08207  0.84449  0.30274  1.0000
  S   S124      1.0  0.11048  0.84072  0.28951  1.0000
  S   S125      1.0  0.06207  0.86907  0.29720  1.0000
  Fe  Fe59      1.0  0.08612  0.80834  0.32419  1.0000
  S   S126      1.0  0.11432  0.80107  0.31223  1.0000
  S   S127      1.0  0.07256  0.79007  0.34562  1.0000
  Fe  Fe60      1.0  0.11627  0.82706  0.31591  1.0000
  S   S128      1.0  0.14070  0.82400  0.32672  1.0000
  Fe  Fe61      1.0  0.10637  0.81511  0.28712  1.0000
  S   S129      1.0  0.11670  0.80619  0.26157  1.0000
  S   S130      1.0  0.08822  0.83338  0.32943  1.0000
  S   S131      1.0  0.07774  0.81986  0.29879  1.0000
  H   H784      1.0  0.07379  0.77418  0.07103  1.0000
  H   H785      1.0  0.03126  0.75479  0.34738  1.0000
  C   C438      1.0  0.13433  0.81370  0.39941  1.0000
  S   S132      1.0  0.20200  0.72800  0.07778  1.0000
  S   S133      1.0  0.13201  0.75662  0.43393  1.0000
  H   H786      1.0  0.11980  0.78583  0.06258  1.0000
  H   H787      1.0  0.20820  0.86914  0.01687  1.0000
  H   H788      1.0  0.15887  0.79526  0.39529  1.0000
  H   H789      1.0  0.06091  0.76158  0.25374  1.0000
  H   H790      1.0  0.03833  0.69770  0.31528  1.0000
  C   C439      1.0  0.04720  0.67803  0.23827  1.0000
  H   H791      1.0  0.11497  0.76725  0.34449  1.0000
  C   C440      1.0  0.14901  0.72847  0.08819  1.0000
  H   H792      1.0  0.12391  0.78396  0.19881  1.0000
  C   C441      1.0  0.06231  0.76145  0.09625  1.0000
  H   H793      1.0  0.04023  0.77627  0.25863  1.0000
  H   H794      1.0  0.06291  0.74826  0.10455  1.0000
  C   C442      1.0  0.10520  0.75403  0.26091  1.0000
  C   C443      1.0  0.11180  0.76458  0.24540  1.0000
  C   C444      1.0  0.11544  0.78056  0.24567  1.0000
  C   C445      1.0  0.11218  0.78615  0.26137  1.0000
  C   C446      1.0  0.10554  0.77563  0.27680  1.0000
  C   C447      1.0  0.10213  0.75959  0.27658  1.0000
  H   H795      1.0  0.11448  0.76022  0.23331  1.0000
  H   H796      1.0  0.12086  0.78855  0.23372  1.0000
  H   H797      1.0  0.10337  0.77971  0.28894  1.0000
  H   H798      1.0  0.09716  0.75143  0.28862  1.0000
  C   C448      1.0  0.15316  0.85312  0.36265  1.0000
  C   C449      1.0  0.14020  0.86121  0.35277  1.0000
  C   C450      1.0  0.13571  0.85231  0.34220  1.0000
  C   C451      1.0  0.14468  0.83543  0.34084  1.0000
  C   C452      1.0  0.15804  0.82757  0.35023  1.0000
  C   C453      1.0  0.16212  0.83626  0.36122  1.0000
  H   H799      1.0  0.13356  0.87443  0.35335  1.0000
  H   H800      1.0  0.12566  0.85868  0.33475  1.0000
  H   H801      1.0  0.16526  0.81463  0.34908  1.0000
  H   H802      1.0  0.17234  0.82994  0.36845  1.0000
  C   C454      1.0  0.21296  0.87539  0.44756  1.0000
  C   C455      1.0  0.22517  0.87254  0.45819  1.0000
  H   H803      1.0  0.00535  0.83476  0.27994  1.0000
  C   C456      1.0  0.02375  0.67239  0.18889  1.0000
  H   H804      1.0  0.01550  0.75311  0.04532  1.0000
  C   C457      1.0  0.19816  0.88864  0.44951  1.0000
  N   N24       1.0  0.00936  0.83388  0.12310  1.0000
  H   H805      1.0  0.07147  0.66736  0.22285  1.0000
  C   C458      1.0  0.13940  0.68744  0.47595  1.0000
  H   H806      1.0  0.18880  0.89117  0.44125  1.0000
  C   C459      1.0  0.22545  0.74781  0.42689  1.0000
  S   S134      1.0  0.07467  0.73381  0.22857  1.0000
  H   H807      1.0  0.03818  0.82044  0.17473  1.0000
  C   C460      1.0  0.22699  0.78157  0.40803  1.0000
  C   C461      1.0  0.21086  0.77641  0.41407  1.0000
  C   C462      1.0  0.21007  0.75950  0.42355  1.0000
  H   H808      1.0  0.09654  0.78833  0.07067  1.0000
  C   C463      1.0  0.17720  0.69778  0.15074  1.0000
  H   H809      1.0  0.19919  0.78509  0.41057  1.0000
  H   H810      1.0  0.19774  0.75523  0.42731  1.0000
  C   C464      1.0  0.04683  0.76059  0.32179  1.0000
  C   C465      1.0  0.04981  0.76977  0.34690  1.0000
  C   C466      1.0  0.06338  0.77787  0.33673  1.0000
  C   C467      1.0  0.06927  0.77656  0.31934  1.0000
  C   C468      1.0  0.06106  0.76781  0.31190  1.0000
  H   H811      1.0  0.04150  0.75812  0.24909  1.0000
  H   H812      1.0  0.08005  0.78243  0.31163  1.0000
  H   H813      1.0  0.06552  0.76684  0.29841  1.0000
  H   H814      1.0  0.11607  0.73855  0.41029  1.0000
  C   C469      1.0  0.10708  0.73869  0.05887  1.0000
  H   H815      1.0  0.09137  0.80379  0.04116  1.0000
  C   C470      1.0  0.09455  0.75461  0.08250  1.0000
  H   H816      1.0  0.09684  0.76326  0.09002  1.0000
  Fe  Fe62      1.0  0.10569  0.75281  0.45001  1.0000
  S   S135      1.0  0.14095  0.68923  0.19503  1.0000
  H   H817      1.0  0.09536  0.74284  0.05277  1.0000
  S   S136      1.0  0.07929  0.76210  0.18312  1.0000
  C   C471      1.0  0.07489  0.72796  0.35648  1.0000
  C   C472      1.0  0.15058  0.79734  0.45071  1.0000
  C   C473      1.0  0.16111  0.78903  0.43748  1.0000
  C   C474      1.0  0.15559  0.77622  0.43260  1.0000
  C   C475      1.0  0.13942  0.77177  0.44090  1.0000
  C   C476      1.0  0.12928  0.77952  0.45470  1.0000
  C   C477      1.0  0.13499  0.79209  0.45979  1.0000
  H   H818      1.0  0.17357  0.79241  0.43108  1.0000
  H   H819      1.0  0.16372  0.76996  0.42223  1.0000
  C   C478      1.0  0.14553  0.79768  0.39262  1.0000
  H   H820      1.0  0.03124  0.70713  0.42561  1.0000
  H   H821      1.0  0.06477  0.77027  0.10342  1.0000
  C   C479      1.0  0.15987  0.76128  0.02215  1.0000
  C   C480      1.0  0.15990  0.74697  0.01557  1.0000
  C   C481      1.0  0.16744  0.73032  0.02334  1.0000
  C   C482      1.0  0.17517  0.72810  0.03751  1.0000
  C   C483      1.0  0.17615  0.74257  0.04327  1.0000
  C   C484      1.0  0.16848  0.75919  0.03560  1.0000
  H   H822      1.0  0.15388  0.74865  0.00471  1.0000
  H   H823      1.0  0.16691  0.71915  0.01867  1.0000
  H   H824      1.0  0.18207  0.74096  0.05411  1.0000
  H   H825      1.0  0.16855  0.77034  0.04053  1.0000
  H   H826      1.0  0.04541  0.77055  0.36044  1.0000
  H   H827      1.0  0.11881  0.76868  0.04199  1.0000
  H   H828      1.0  0.20555  0.70170  0.01349  1.0000
  H   H829      1.0  0.14656  0.76402  0.34433  1.0000
  C   C485      1.0  0.04822  0.68797  0.30860  1.0000
  C   C486      1.0  0.04161  0.76105  0.33944  1.0000
  H   H830      1.0  0.07475  0.82138  0.17850  1.0000
  H   H831      1.0  0.05451  0.83347  0.18819  1.0000
  C   C487      1.0  0.02378  0.87942  0.26046  1.0000
  H   H832      1.0  0.12133  0.73254  0.09774  1.0000
  C   C488      1.0  0.04717  0.85967  0.27405  1.0000
  C   C489      1.0  0.04735  0.87218  0.28320  1.0000
  C   C490      1.0  0.03563  0.88810  0.28099  1.0000
  C   C491      1.0  0.02412  0.89176  0.26960  1.0000
  H   H833      1.0  0.08652  0.84635  0.22042  1.0000
  H   H834      1.0  0.03572  0.89788  0.28785  1.0000
  H   H835      1.0  0.01556  0.90437  0.26768  1.0000
  C   C492      1.0  0.05463  0.73995  0.15128  1.0000
  C   C493      1.0  0.04538  0.75471  0.15788  1.0000
  C   C494      1.0  0.05318  0.76203  0.16717  1.0000
  C   C495      1.0  0.07010  0.75440  0.16996  1.0000
  C   C496      1.0  0.07934  0.73980  0.16313  1.0000
  C   C497      1.0  0.07158  0.73256  0.15384  1.0000
  H   H836      1.0  0.03211  0.76022  0.15624  1.0000
  H   H837      1.0  0.12590  0.74363  0.03426  1.0000
  H   H838      1.0  0.09248  0.73410  0.16508  1.0000
  H   H839      1.0  0.07861  0.72121  0.14866  1.0000
  C   C498      1.0  0.03342  0.78116  0.06194  1.0000
  C   C499      1.0  0.03726  0.76332  0.06238  1.0000
  C   C500      1.0  0.04984  0.75645  0.04908  1.0000
  C   C501      1.0  0.05900  0.76727  0.03544  1.0000
  C   C502      1.0  0.05564  0.78503  0.03534  1.0000
  C   C503      1.0  0.04274  0.79197  0.04844  1.0000
  H   H840      1.0  0.03014  0.75487  0.07264  1.0000
  H   H841      1.0  0.05236  0.74270  0.04924  1.0000
  H   H842      1.0  0.06252  0.79351  0.02483  1.0000
  H   H843      1.0  0.03979  0.80580  0.04793  1.0000
  H   H844      1.0  0.12502  0.78861  0.17571  1.0000
  H   H845      1.0  0.14077  0.77662  0.36119  1.0000
  C   C504      1.0  0.08244  0.78625  0.40016  1.0000
  H   H846      1.0  0.11532  0.77085  0.18921  1.0000
  C   C505      1.0  0.07563  0.76094  0.07919  1.0000
  H   H847      1.0  0.04890  0.76626  0.09359  1.0000
  N   N25       1.0  0.20367  0.77909  0.09361  1.0000
  C   C506      1.0  0.22046  0.78274  0.08146  1.0000
  C   C507      1.0  0.20750  0.76173  0.10562  1.0000
  C   C508      1.0  0.19169  0.77754  0.08266  1.0000
  C   C509      1.0  0.19465  0.79326  0.10375  1.0000
  C   C510      1.0  0.20656  0.80311  0.10840  1.0000
  C   C511      1.0  0.21823  0.79899  0.06661  1.0000
  S   S137      1.0  0.09188  0.71161  0.19796  1.0000
  S   S138      1.0  0.22540  0.89549  0.99156  1.0000
  H   H848      1.0  0.18213  0.65714  0.41623  1.0000
  C   C512      1.0  0.19612  0.81448  0.12140  1.0000
  H   H849      1.0  0.18012  0.78124  0.46906  1.0000
  H   H850      1.0  0.10925  0.77983  0.36117  1.0000
  H   H851      1.0  0.10557  0.86133  0.44964  1.0000
  H   H852      1.0  0.02073  0.77469  0.01918  1.0000
  H   H853      1.0  0.19521  0.75803  0.11378  1.0000
  H   H854      1.0  0.02947  0.71736  0.21081  1.0000
  H   H855      1.0  0.19845  0.76774  0.07443  1.0000
  H   H856      1.0  0.18845  0.79002  0.07351  1.0000
  H   H857      1.0  0.18552  0.80345  0.09651  1.0000
  H   H858      1.0  0.18615  0.78788  0.11601  1.0000
  H   H859      1.0  0.21239  0.81179  0.09668  1.0000
  H   H860      1.0  0.21752  0.79429  0.11398  1.0000
  H   H861      1.0  0.06688  0.81105  0.26557  1.0000
  H   H862      1.0  0.20758  0.80957  0.07093  1.0000
  H   H863      1.0  0.23231  0.82483  0.34093  1.0000
  H   H864      1.0  0.10901  0.71815  0.38639  1.0000
  H   H865      1.0  0.18446  0.74706  0.46661  1.0000
  H   H866      1.0  0.21167  0.76863  0.12842  1.0000
  H   H867      1.0  0.10226  0.83629  0.47392  1.0000
  H   H868      1.0  0.22054  0.66144  0.06012  1.0000
  H   H869      1.0  0.02707  0.85180  0.11489  1.0000
  H   H870      1.0  0.18528  0.82403  0.11609  1.0000
  H   H871      1.0  0.19068  0.80637  0.13382  1.0000
  H   H872      1.0  0.20485  0.82172  0.12406  1.0000
  C   C513      1.0  0.13039  0.66167  0.00488  1.0000
  H   H873      1.0  0.00244  0.78117  0.23084  1.0000
  H   H874      1.0  0.99998  0.86833  0.29599  1.0000
  H   H875      1.0  0.08502  0.79092  0.41076  1.0000
  H   H876      1.0  0.10599  0.73223  0.35810  1.0000
  H   H877      1.0  0.13852  0.83328  0.00410  1.0000
  C   C514      1.0  0.20810  0.89639  0.47218  1.0000
  H   H878      1.0  0.18706  0.75018  0.98470  1.0000
  H   H879      1.0  0.06171  0.72460  0.36055  1.0000
  Fe  Fe63      1.0  0.22175  0.67951  0.08890  1.0000
  H   H880      1.0  0.04043  0.67928  0.30668  1.0000
  H   H881      1.0  0.21640  0.73771  0.37704  1.0000
  H   H882      1.0  0.23424  0.97492  0.43805  1.0000
  N   N26       1.0  0.10888  0.75305  0.06662  1.0000
  C   C515      1.0  0.03968  0.81295  0.11871  1.0000
  C   C516      1.0  0.05217  0.79904  0.12873  1.0000
  H   H883      1.0  0.03710  0.85981  0.06687  1.0000
  H   H884      1.0  0.03825  0.67415  0.34409  1.0000
  H   H885      1.0  0.04557  0.72343  0.43823  1.0000
  H   H886      1.0  0.16986  0.78768  0.97998  1.0000
  C   C517      1.0  0.11861  0.69845  0.99320  1.0000
  C   C518      1.0  0.18880  0.66822  0.43552  1.0000
  H   H887      1.0  0.09328  0.75358  0.35426  1.0000
  H   H888      1.0  0.13468  0.72638  0.05028  1.0000
  Fe  Fe64      1.0  0.11670  0.70588  0.20805  1.0000
  C   C519      1.0  0.04066  0.81487  0.28085  1.0000
  H   H889      1.0  0.13717  0.74948  0.06030  1.0000
  H   H890      1.0  0.01097  0.80312  0.24089  1.0000
  C   C520      1.0  0.24389  0.96743  0.42891  1.0000
  S   S139      1.0  0.19268  0.68941  0.09449  1.0000
  H   H891      1.0  0.17346  0.68504  0.98737  1.0000
  H   H892      1.0  0.13358  0.81093  0.41361  1.0000
  H   H893      1.0  0.06715  0.72958  0.29411  1.0000
  H   H894      1.0  0.03581  0.80675  0.10997  1.0000
  H   H895      1.0  0.04718  0.82299  0.11083  1.0000
  H   H896      1.0  0.12362  0.73143  0.14941  1.0000
  H   H897      1.0  0.02506  0.68411  0.12153  1.0000
  C   C521      1.0  0.17113  0.74928  0.47474  1.0000
  H   H898      1.0  0.14316  0.68568  0.11604  1.0000
  H   H899      1.0  0.09129  0.84255  0.42498  1.0000
  C   C522      1.0  0.02608  0.80458  0.29077  1.0000
  H   H900      1.0  0.99922  0.75509  0.03296  1.0000
  H   H901      1.0  0.18112  0.67206  0.44792  1.0000
  S   S140      1.0  0.01298  0.74474  0.10995  1.0000
  H   H902      1.0  0.09369  0.83493  0.24027  1.0000
  C   C523      1.0  0.10405  0.80243  0.04495  1.0000
  S   S141      1.0  0.23744  0.85378  0.06658  1.0000
  C   C524      1.0  0.08659  0.71657  0.30937  1.0000
  C   C525      1.0  0.13517  0.67583  0.11806  1.0000
  H   H903      1.0  0.21970  0.95865  0.46075  1.0000
  H   H904      1.0  0.20916  0.68669  0.44296  1.0000
  H   H905      1.0  0.18627  0.73133  0.44866  1.0000
  C   C526      1.0  0.00846  0.80200  0.18327  1.0000
  C   C527      1.0  0.18837  0.80649  0.99910  1.0000
  H   H906      1.0  0.03886  0.82136  0.34315  1.0000
  H   H907      1.0  0.05830  0.65869  0.34627  1.0000
  H   H908      1.0  0.99836  0.78635  0.02299  1.0000
  C   C528      1.0  0.10752  0.76963  0.05309  1.0000
  C   C529      1.0  0.18274  0.81975  0.01086  1.0000
  H   H909      1.0  0.01946  0.70537  0.12668  1.0000
  H   H910      1.0  0.21172  0.94159  0.41458  1.0000
  H   H911      1.0  0.00855  0.83863  0.15892  1.0000
  H   H912      1.0  0.23126  0.67441  0.44197  1.0000
  H   H913      1.0  0.18448  0.90956  0.46285  1.0000
  H   H914      1.0  0.22761  0.91984  0.44878  1.0000
  C   C530      1.0  0.02369  0.69423  0.16122  1.0000
  C   C531      1.0  0.14205  0.67210  0.15237  1.0000
  H   H915      1.0  0.08418  0.85623  0.45403  1.0000
  C   C532      1.0  0.13655  0.77423  0.35014  1.0000
  H   H916      1.0  0.05183  0.71963  0.27143  1.0000
  H   H917      1.0  0.20056  0.65843  0.46493  1.0000
  H   H918      1.0  0.20279  0.80236  0.99704  1.0000
  H   H919      1.0  0.18227  0.79524  0.00626  1.0000
  H   H920      1.0  0.10553  0.70436  0.15032  1.0000
  Fe  Fe65      1.0  0.08511  0.72940  0.47778  1.0000
  C   C533      1.0  0.11962  0.75189  0.37010  1.0000
  H   H921      1.0  0.21616  0.75166  0.39126  1.0000
  C   C534      1.0  0.02580  0.65940  0.24901  1.0000
  S   S142      1.0  0.09247  0.73208  0.44883  1.0000
  C   C535      1.0  0.04515  0.71285  0.28415  1.0000
  H   H922      1.0  0.22878  0.76251  0.35597  1.0000
  C   C536      1.0  0.03357  0.71983  0.41866  1.0000
  H   H923      1.0  0.03967  0.78469  0.22670  1.0000
  H   H924      1.0  0.06049  0.77072  0.22223  1.0000
  H   H925      1.0  0.18836  0.83149  0.00454  1.0000
  H   H926      1.0  0.16825  0.82368  0.01384  1.0000
  H   H927      1.0  0.18732  0.81401  0.02323  1.0000
  N   N27       1.0  0.16601  0.82089  0.27162  1.0000
  C   C537      1.0  0.16120  0.80699  0.28714  1.0000
  C   C538      1.0  0.16289  0.83779  0.27758  1.0000
  C   C539      1.0  0.15359  0.82323  0.25964  1.0000
  C   C540      1.0  0.18457  0.81630  0.26179  1.0000
  C   C541      1.0  0.19838  0.80504  0.27253  1.0000
  C   C542      1.0  0.16051  0.78955  0.28301  1.0000
  C   C543      1.0  0.15477  0.83832  0.24360  1.0000
  C   C544      1.0  0.17423  0.83854  0.29008  1.0000
  C   C545      1.0  0.16799  0.85546  0.29684  1.0000
  C   C546      1.0  0.21689  0.80405  0.26157  1.0000
  C   C547      1.0  0.16142  0.77479  0.29886  1.0000
  C   C548      1.0  0.14394  0.83731  0.23104  1.0000
  H   H928      1.0  0.14803  0.81170  0.29471  1.0000
  H   H929      1.0  0.17003  0.80424  0.29639  1.0000
  H   H930      1.0  0.16540  0.84856  0.26638  1.0000
  H   H931      1.0  0.14887  0.84137  0.28392  1.0000
  H   H932      1.0  0.13984  0.82526  0.26692  1.0000
  H   H933      1.0  0.15559  0.81123  0.25456  1.0000
  H   H934      1.0  0.18510  0.80901  0.25168  1.0000
  H   H935      1.0  0.18931  0.82836  0.25445  1.0000
  H   H936      1.0  0.19611  0.79158  0.27713  1.0000
  H   H937      1.0  0.19795  0.81007  0.28408  1.0000
  H   H938      1.0  0.14798  0.79077  0.27899  1.0000
  H   H939      1.0  0.17132  0.78587  0.27227  1.0000
  H   H940      1.0  0.16849  0.83803  0.23649  1.0000
  H   H941      1.0  0.14940  0.85103  0.24759  1.0000
  H   H942      1.0  0.17374  0.82776  0.30152  1.0000
  H   H943      1.0  0.18800  0.83819  0.28311  1.0000
  H   H944      1.0  0.16921  0.86682  0.28600  1.0000
  H   H945      1.0  0.15413  0.85669  0.30383  1.0000
  H   H946      1.0  0.17604  0.85553  0.30608  1.0000
  H   H947      1.0  0.22645  0.79561  0.26942  1.0000
  H   H948      1.0  0.21814  0.79847  0.25006  1.0000
  H   H949      1.0  0.22017  0.81715  0.25719  1.0000
  H   H950      1.0  0.15069  0.77802  0.30985  1.0000
  H   H951      1.0  0.15998  0.76276  0.29568  1.0000
  H   H952      1.0  0.17418  0.77232  0.30282  1.0000
  H   H953      1.0  0.12995  0.83817  0.23754  1.0000
  H   H954      1.0  0.14491  0.84826  0.21972  1.0000
  H   H955      1.0  0.14875  0.82494  0.22628  1.0000
  H   H956      1.0  0.14665  0.79964  0.37840  1.0000
  N   N28       1.0  0.07038  0.80284  0.21336  1.0000
  C   C549      1.0  0.07324  0.81990  0.21524  1.0000
  C   C550      1.0  0.05869  0.80588  0.20050  1.0000
  C   C551      1.0  0.06119  0.79431  0.23091  1.0000
  C   C552      1.0  0.08746  0.79062  0.20846  1.0000
  C   C553      1.0  0.09908  0.79646  0.19075  1.0000
  C   C554      1.0  0.08604  0.81868  0.22712  1.0000
  C   C555      1.0  0.05231  0.77932  0.23105  1.0000
  C   C556      1.0  0.06093  0.82081  0.18435  1.0000
  H   H957      1.0  0.02192  0.68475  0.25451  1.0000
  C   C557      1.0  0.11692  0.78420  0.18856  1.0000
  C   C558      1.0  0.08408  0.83608  0.23215  1.0000
  C   C559      1.0  0.04851  0.76821  0.24927  1.0000
  H   H958      1.0  0.06038  0.82808  0.21996  1.0000
  H   H959      1.0  0.07861  0.82763  0.20262  1.0000
  H   H960      1.0  0.05998  0.79365  0.19602  1.0000
  H   H961      1.0  0.04470  0.80928  0.20692  1.0000
  H   H962      1.0  0.05074  0.80403  0.23714  1.0000
  H   H963      1.0  0.07055  0.78887  0.23983  1.0000
  H   H964      1.0  0.09539  0.78778  0.21857  1.0000
  H   H965      1.0  0.08516  0.77777  0.20831  1.0000
  H   H966      1.0  0.10132  0.80970  0.18934  1.0000
  H   H967      1.0  0.09288  0.79605  0.18015  1.0000
  H   H968      1.0  0.08406  0.80890  0.23921  1.0000
  H   H969      1.0  0.09974  0.81496  0.22019  1.0000
  H   H970      1.0  0.15156  0.71613  0.09768  1.0000
  H   H971      1.0  0.12298  0.84930  0.39481  1.0000
  H   H972      1.0  0.04145  0.72226  0.29294  1.0000
  C   C560      1.0  0.10713  0.78637  0.05923  1.0000
  H   H973      1.0  0.09473  0.74181  0.09155  1.0000
  H   H974      1.0  0.14383  0.70668  0.13484  1.0000
  H   H975      1.0  0.12912  0.72068  0.08046  1.0000
  H   H976      1.0  0.02237  0.67188  0.20302  1.0000
  H   H977      1.0  0.10460  0.72709  0.06911  1.0000
  H   H978      1.0  0.11390  0.83360  0.42315  1.0000
  H   H979      1.0  0.13228  0.72735  0.39496  1.0000
  H   H980      1.0  0.11824  0.82027  0.38040  1.0000
  C   C561      1.0  0.11018  0.84972  0.39171  1.0000
  H   H981      1.0  0.11300  0.85052  0.37747  1.0000
  C   C562      1.0  0.11596  0.81812  0.39480  1.0000
  H   H982      1.0  0.12719  0.75962  0.07813  1.0000
  H   H983      1.0  0.13993  0.67733  0.09031  1.0000
  H   H984      1.0  0.01752  0.83948  0.29272  1.0000
  H   H985      1.0  0.11025  0.80625  0.39968  1.0000
  H   H986      1.0  0.08252  0.82503  0.45508  1.0000
  H   H987      1.0  0.20927  0.75658  0.01223  1.0000
  C   C563      1.0  0.05252  0.81907  0.17017  1.0000
  C   C564      1.0  0.12957  0.71038  0.13519  1.0000
  C   C565      1.0  0.12633  0.74923  0.07192  1.0000
  C   C566      1.0  0.09825  0.86701  0.39585  1.0000
  N   N29       1.0  0.10338  0.83348  0.40113  1.0000
  H   H988      1.0  0.08551  0.79552  0.38776  1.0000
  H   H989      1.0  0.08078  0.70711  0.27897  1.0000
  S   S143      1.0  0.05968  0.74892  0.47754  1.0000
  C   C567      1.0  0.10167  0.83189  0.42032  1.0000
  C   C568      1.0  0.02756  0.71016  0.28173  1.0000
  H   H990      1.0  0.07159  0.66890  0.31607  1.0000
  C   C569      1.0  0.02313  0.84689  0.09117  1.0000
  C   C570      1.0  0.03284  0.86128  0.08061  1.0000
  H   H991      1.0  0.11637  0.70758  0.04666  1.0000
  C   C571      1.0  0.03527  0.86324  0.26279  1.0000
  H   H992      1.0  0.10740  0.80342  0.42935  1.0000
  C   C572      1.0  0.14864  0.70289  0.98258  1.0000
  H   H993      1.0  0.09765  0.86778  0.40943  1.0000
  C   C573      1.0  0.12280  0.73258  0.04478  1.0000
  C   C574      1.0  0.13041  0.73195  0.08506  1.0000
  H   H994      1.0  0.15455  0.73926  0.14950  1.0000
  C   C575      1.0  0.09439  0.81534  0.45114  1.0000
  C   C576      1.0  0.09693  0.81478  0.43203  1.0000
  H   H995      1.0  0.06738  0.74580  0.37373  1.0000
  H   H996      1.0  0.12534  0.69951  0.40993  1.0000
  H   H997      1.0  0.05650  0.84754  0.27528  1.0000
  H   H998      1.0  0.10597  0.81860  0.45361  1.0000
  H   H999      1.0  0.09269  0.80247  0.45926  1.0000
  H   H1000     1.0  0.07535  0.84349  0.40460  1.0000
  H   H1001     1.0  0.22271  0.70240  0.99445  1.0000
  Fe  Fe66      1.0  0.01582  0.73827  0.33155  1.0000
  H   H1002     1.0  0.11679  0.77623  0.46118  1.0000
  H   H1003     1.0  0.08632  0.85217  0.37217  1.0000
  C   C577      1.0  0.08564  0.83423  0.39765  1.0000
  C   C578      1.0  0.24077  0.79685  0.34610  1.0000
  C   C579      1.0  0.01749  0.70346  0.18886  1.0000
  C   C580      1.0  0.23004  0.94800  0.46549  1.0000
  H   H1004     1.0  0.08165  0.82153  0.40309  1.0000
  H   H1005     1.0  0.09361  0.82963  0.37083  1.0000
  C   C581      1.0  0.08407  0.83888  0.37831  1.0000
  H   H1006     1.0  0.08455  0.81264  0.43013  1.0000
  H   H1007     1.0  0.06735  0.67178  0.18351  1.0000
  C   C582      1.0  0.03871  0.75296  0.40152  1.0000
  C   C583      1.0  0.02795  0.72708  0.40286  1.0000
  H   H1008     1.0  0.04593  0.77318  0.17266  1.0000
  S   S144      1.0  0.02561  0.71205  0.34652  1.0000
  C   C584      1.0  0.18227  0.81416  0.98160  1.0000
  S   S145      1.0  0.18258  0.70718  0.04840  1.0000
  H   H1009     1.0  0.06834  0.78580  0.40291  1.0000
  C   C585      1.0  0.13651  0.83865  0.99099  1.0000
  H   H1010     1.0  0.01336  0.65706  0.25694  1.0000
  N   N30       1.0  0.10246  0.74621  0.37856  1.0000
  C   C586      1.0  0.06578  0.83827  0.37658  1.0000
  H   H1011     1.0  0.05565  0.84736  0.38382  1.0000
  H   H1012     1.0  0.11922  0.69916  0.00655  1.0000
  Fe  Fe67      1.0  0.19803  0.70612  0.06810  1.0000
  H   H1013     1.0  0.21283  0.78852  0.45554  1.0000
  H   H1014     1.0  0.10755  0.76996  0.39563  1.0000
  C   C587      1.0  0.11875  0.76890  0.35610  1.0000
  H   H1015     1.0  0.12045  0.82093  0.99212  1.0000
  C   C588      1.0  0.11180  0.67103  0.16603  1.0000
  H   H1016     1.0  0.06319  0.82492  0.38155  1.0000
  H   H1017     1.0  0.06473  0.84216  0.36273  1.0000
  H   H1018     1.0  0.14419  0.66303  0.11970  1.0000
  H   H1019     1.0  0.12693  0.79823  0.47026  1.0000
  C   C589      1.0  0.09383  0.76829  0.39904  1.0000
  H   H1020     1.0  0.08461  0.77095  0.37535  1.0000
  Fe  Fe68      1.0  0.09000  0.73854  0.20154  1.0000
  H   H1021     1.0  0.07668  0.75554  0.39287  1.0000
  H   H1022     1.0  0.16625  0.70726  0.44152  1.0000
  H   H1023     1.0  0.13803  0.72527  0.17727  1.0000
  C   C590      1.0  0.01566  0.72753  0.27623  1.0000
  H   H1024     1.0  0.09168  0.75982  0.41211  1.0000
  C   C591      1.0  0.08885  0.76035  0.38597  1.0000
  H   H1025     1.0  0.12605  0.75387  0.37979  1.0000
  C   C592      1.0  0.16112  0.67791  0.42314  1.0000
  H   H1026     1.0  0.00965  0.70212  0.20238  1.0000
  C   C593      1.0  0.07848  0.73506  0.37068  1.0000
  C   C594      1.0  0.09582  0.74194  0.36462  1.0000
  C   C595      1.0  0.04969  0.66606  0.33703  1.0000
  C   C596      1.0  0.11997  0.71066  0.41657  1.0000
  C   C597      1.0  0.17214  0.71554  0.14435  1.0000
  H   H1027     1.0  0.01583  0.79693  0.32563  1.0000
  H   H1028     1.0  0.04356  0.82246  0.28890  1.0000
  C   C598      1.0  0.11949  0.69876  0.15051  1.0000
  H   H1029     1.0  0.02213  0.80049  0.28045  1.0000
  H   H1030     1.0  0.07857  0.72454  0.38237  1.0000
  H   H1031     1.0  0.15869  0.72717  0.07599  1.0000
  C   C599      1.0  0.10509  0.72985  0.39235  1.0000
  H   H1032     1.0  0.10729  0.72504  0.03058  1.0000
  C   C600      1.0  0.11902  0.72777  0.40329  1.0000
  H   H1033     1.0  0.12898  0.74139  0.36404  1.0000
  H   H1034     1.0  0.09251  0.72849  0.40169  1.0000
  H   H1035     1.0  0.17582  0.75881  0.09933  1.0000
  H   H1036     1.0  0.10682  0.70924  0.42449  1.0000
  C   C601      1.0  0.15842  0.72549  0.15431  1.0000
  S   S146      1.0  0.22655  0.69492  0.06191  1.0000
  C   C602      1.0  0.14910  0.71761  0.17012  1.0000
  H   H1037     1.0  0.03552  0.85391  0.25529  1.0000
  S   S147      1.0  0.05228  0.75897  0.42687  1.0000
  H   H1038     1.0  0.04049  0.76590  0.39488  1.0000
  S   S148      1.0  0.10333  0.69808  0.23598  1.0000
  C   C603      1.0  0.21128  0.65848  0.45328  1.0000
  H   H1039     1.0  0.12863  0.71030  0.42540  1.0000
  H   H1040     1.0  0.08642  0.73640  0.98868  1.0000
  C   C604      1.0  0.03105  0.74353  0.39407  1.0000
  Fe  Fe69      1.0  0.19915  0.71034  0.10394  1.0000
  C   C605      1.0  0.02368  0.82116  0.13123  1.0000
  Fe  Fe70      1.0  0.06813  0.75283  0.44833  1.0000
  C   C606      1.0  0.21861  0.79764  0.47621  1.0000
  H   H1041     1.0  0.08476  0.71608  0.35411  1.0000
  C   C607      1.0  0.15383  0.69980  0.17638  1.0000
  Fe  Fe71      1.0  0.23019  0.71525  0.07402  1.0000
  H   H1042     1.0  0.02718  0.83219  0.31642  1.0000
  C   C608      1.0  0.00171  0.79531  0.25000  1.0000
  H   H1043     1.0  0.01274  0.78581  0.03703  1.0000
  S   S149      1.0  0.08218  0.77391  0.44748  1.0000
  H   H1044     1.0  0.03807  0.67002  0.18360  1.0000
  H   H1045     1.0  0.03813  0.69194  0.15966  1.0000
  H   H1046     1.0  0.16593  0.72978  0.43115  1.0000
  H   H1047     1.0  0.07524  0.73778  0.34420  1.0000
  H   H1048     1.0  0.22721  0.77146  0.07518  1.0000
  H   H1049     1.0  0.16722  0.78077  0.10243  1.0000
  C   C609      1.0  0.03081  0.67502  0.24784  1.0000
  Fe  Fe72      1.0  0.07838  0.70634  0.22585  1.0000
  S   S150      1.0  0.18209  0.72576  0.12377  1.0000
  H   H1050     1.0  0.06851  0.65913  0.29432  1.0000
  H   H1051     1.0  0.01027  0.74713  0.20991  1.0000
  H   H1052     1.0  0.06850  0.69201  0.26541  1.0000
  C   C610      1.0  0.17389  0.77263  0.09266  1.0000
  H   H1053     1.0  0.08413  0.72801  0.31541  1.0000
  C   C611      1.0  0.10530  0.88264  0.38408  1.0000
  H   H1054     1.0  0.00749  0.77731  0.36624  1.0000
  C   C612      1.0  0.07495  0.66745  0.28269  1.0000
  H   H1055     1.0  0.16295  0.75816  0.46567  1.0000
  H   H1056     1.0  0.06405  0.79585  0.28552  1.0000
  H   H1057     1.0  0.00887  0.78581  0.16570  1.0000
  Fe  Fe73      1.0  0.00743  0.72183  0.36945  1.0000
  H   H1058     1.0  0.02964  0.70276  0.27142  1.0000
  H   H1059     1.0  0.21334  0.85283  0.04605  1.0000
  C   C613      1.0  0.16160  0.77483  0.08035  1.0000
  C   C614      1.0  0.99846  0.81496  0.19237  1.0000
  C   C615      1.0  0.02044  0.68401  0.14903  1.0000
  S   S151      1.0  0.01039  0.88589  0.24478  1.0000
  C   C616      1.0  0.05776  0.80304  0.27450  1.0000
  H   H1060     1.0  0.15150  0.67817  0.14158  1.0000
  C   C617      1.0  0.17379  0.71778  0.43768  1.0000
  C   C618      1.0  0.00656  0.83319  0.29361  1.0000
  H   H1061     1.0  0.05556  0.79366  0.26789  1.0000
  H   H1062     1.0  0.05939  0.71554  0.31396  1.0000
  H   H1063     1.0  0.14817  0.69010  0.46362  1.0000
  C   C619      1.0  0.99794  0.66561  0.30759  1.0000
  H   H1064     1.0  0.11014  0.73453  0.13379  1.0000
  H   H1065     1.0  0.00698  0.78010  0.29888  1.0000
  C   C620      1.0  0.12357  0.72953  0.13639  1.0000
  S   S152      1.0  0.22800  0.69898  0.10090  1.0000
  H   H1066     1.0  0.23070  0.73799  0.03107  1.0000
  C   C621      1.0  0.07044  0.71672  0.30270  1.0000
  H   H1067     1.0  0.08571  0.66347  0.19408  1.0000
  H   H1068     1.0  0.02209  0.79714  0.18400  1.0000
  H   H1069     1.0  0.23215  0.79778  0.44938  1.0000
  H   H1070     1.0  0.08947  0.70461  0.31924  1.0000
  C   C622      1.0  0.21325  0.71038  0.00334  1.0000
  H   H1071     1.0  0.15923  0.78837  0.07287  1.0000
  C   C623      1.0  0.23019  0.93298  0.44206  1.0000
  C   C624      1.0  0.01636  0.84887  0.11039  1.0000
  H   H1072     1.0  0.01248  0.71681  0.18200  1.0000
  H   H1073     1.0  0.09707  0.89478  0.38792  1.0000
  H   H1074     1.0  0.02779  0.67044  0.15150  1.0000
  C   C625      1.0  0.11973  0.67658  0.13406  1.0000
  H   H1075     1.0  0.20350  0.92492  0.43179  1.0000
  N   N31       1.0  0.05745  0.69672  0.29124  1.0000
  C   C626      1.0  0.16832  0.69003  0.16693  1.0000
  H   H1076     1.0  0.04543  0.78854  0.13688  1.0000
  H   H1077     1.0  0.08737  0.66922  0.28485  1.0000
  C   C627      1.0  0.22893  0.88307  0.01211  1.0000
  C   C628      1.0  0.21870  0.87098  0.02185  1.0000
  C   C629      1.0  0.00916  0.77816  0.02938  1.0000
  H   H1078     1.0  0.00347  0.73500  0.45286  1.0000
  C   C630      1.0  0.20391  0.93894  0.42796  1.0000
  C   C631      1.0  0.01670  0.65647  0.18828  1.0000
  C   C632      1.0  0.07366  0.70222  0.29226  1.0000
  N   N32       1.0  0.20535  0.65512  0.43844  1.0000
  H   H1079     1.0  0.22261  0.67039  0.41923  1.0000
  S   S153      1.0  0.00859  0.82429  0.20357  1.0000
  N   N33       1.0  0.12344  0.67962  0.15027  1.0000
  S   S154      1.0  0.05235  0.69817  0.23704  1.0000
  H   H1080     1.0  0.23167  0.65166  0.37973  1.0000
  H   H1081     1.0  0.09326  0.72368  0.00824  1.0000
  H   H1082     1.0  0.15167  0.86117  0.46463  1.0000
  H   H1083     1.0  0.24428  0.79707  0.35830  1.0000
  H   H1084     1.0  0.05067  0.68153  0.27636  1.0000
  H   H1085     1.0  0.21376  0.75138  0.09793  1.0000
  H   H1086     1.0  0.22284  0.93886  0.47564  1.0000
  S   S155      1.0  0.99872  0.84097  0.24552  1.0000
  H   H1087     1.0  0.22998  0.78396  0.08862  1.0000
  H   H1088     1.0  0.05135  0.71720  0.19830  1.0000
  C   C633      1.0  0.23525  0.74762  0.01942  1.0000
  H   H1089     1.0  0.22538  0.72882  0.39634  1.0000
  H   H1090     1.0  0.23590  0.77107  0.37033  1.0000
  H   H1091     1.0  0.19586  0.81398  0.46806  1.0000
  H   H1092     1.0  0.17849  0.83858  0.46080  1.0000
  H   H1093     1.0  0.24404  0.91457  0.46981  1.0000
  N   N34       1.0  0.24129  0.93880  0.45123  1.0000
  S   S156      1.0  0.03505  0.75207  0.31167  1.0000
  H   H1094     1.0  0.09811  0.71728  0.29854  1.0000
  C   C634      1.0  0.23392  0.65386  0.39186  1.0000
  H   H1095     1.0  0.21456  0.82395  0.46133  1.0000
  C   C635      1.0  0.21995  0.65703  0.42272  1.0000
  C   C636      1.0  0.02791  0.81830  0.32259  1.0000
  C   C637      1.0  0.21884  0.76039  0.11884  1.0000
  H   H1096     1.0  0.24247  0.85402  0.99482  1.0000
  C   C638      1.0  0.09180  0.67806  0.16765  1.0000
  H   H1097     1.0  0.02418  0.87423  0.08104  1.0000
  C   C639      1.0  0.21180  0.94429  0.44058  1.0000
  C   C640      1.0  0.14764  0.65206  0.15475  1.0000
  H   H1098     1.0  0.99717  0.81257  0.12449  1.0000
  H   H1099     1.0  0.17226  0.67630  0.17187  1.0000
  H   H1100     1.0  0.03206  0.83432  0.08983  1.0000
  C   C641      1.0  0.19578  0.89909  0.46172  1.0000
  H   H1101     1.0  0.08320  0.69104  0.29761  1.0000
  S   S157      1.0  0.99877  0.74860  0.35456  1.0000
  H   H1102     1.0  0.14886  0.77178  0.08796  1.0000
  H   H1103     1.0  0.21927  0.77588  0.03525  1.0000
  H   H1104     1.0  0.21209  0.95825  0.43603  1.0000
  H   H1105     1.0  0.10494  0.88321  0.37039  1.0000
  H   H1106     1.0  0.00244  0.74732  0.42250  1.0000
  H   H1107     1.0  0.18596  0.71394  0.42829  1.0000
  C   C642      1.0  0.05979  0.67744  0.32192  1.0000
  H   H1108     1.0  0.00915  0.78440  0.25823  1.0000
  C   C643      1.0  0.06242  0.68501  0.27827  1.0000
  H   H1109     1.0  0.00813  0.65479  0.31133  1.0000
  H   H1110     1.0  0.02044  0.70317  0.29393  1.0000
  C   C644      1.0  0.12623  0.83155  0.98417  1.0000
  H   H1111     1.0  0.08805  0.69082  0.17164  1.0000
  H   H1112     1.0  0.15364  0.68318  0.43480  1.0000
  H   H1113     1.0  0.22962  0.73267  0.12031  1.0000
  H   H1114     1.0  0.18676  0.70889  0.45915  1.0000
  H   H1115     1.0  0.02928  0.82743  0.13865  1.0000
  H   H1116     1.0  0.16658  0.68837  0.41319  1.0000
  C   C645      1.0  0.22644  0.82525  0.01053  1.0000
  H   H1117     1.0  0.06425  0.68639  0.32741  1.0000
  H   H1118     1.0  0.08679  0.87462  0.46099  1.0000
  H   H1119     1.0  0.18794  0.69005  0.14324  1.0000
  H   H1120     1.0  0.20608  0.75943  0.04296  1.0000
  H   H1121     1.0  0.13253  0.73722  0.12661  1.0000
  H   H1122     1.0  0.06350  0.79328  0.11952  1.0000
  S   S158      1.0  0.10066  0.74822  0.47894  1.0000
  C   C646      1.0  0.24176  0.74356  0.37543  1.0000
  H   H1123     1.0  0.24174  0.67210  0.02461  1.0000
  H   H1124     1.0  0.01013  0.81893  0.10404  1.0000
  C   C647      1.0  0.22272  0.88290  0.47049  1.0000
  H   H1125     1.0  0.23899  0.80963  0.07020  1.0000
  H   H1126     1.0  0.22169  0.92695  0.12342  1.0000
  N   N35       1.0  0.01509  0.69007  0.18013  1.0000
  C   C648      1.0  0.23395  0.73100  0.99804  1.0000
  H   H1127     1.0  0.11523  0.67210  0.17817  1.0000
  H   H1128     1.0  0.12174  0.70074  0.16281  1.0000
  H   H1129     1.0  0.21480  0.79549  0.05570  1.0000
  H   H1130     1.0  0.05807  0.80626  0.16642  1.0000
  H   H1131     1.0  0.03204  0.79230  0.29876  1.0000
  C   C649      1.0  0.20702  0.81594  0.47255  1.0000
  H   H1132     1.0  0.12688  0.70949  0.12281  1.0000
  C   C650      1.0  0.16193  0.72603  0.46718  1.0000
  H   H1133     1.0  0.03317  0.73055  0.18912  1.0000
  C   C651      1.0  0.21776  0.67570  0.44989  1.0000
  H   H1134     1.0  0.04541  0.70390  0.17707  1.0000
  H   H1135     1.0  0.15214  0.73581  0.46039  1.0000
  C   C652      1.0  0.24127  0.75353  0.42208  1.0000
  H   H1136     1.0  0.00039  0.73944  0.08097  1.0000
  C   C653      1.0  0.10999  0.71678  0.98435  1.0000
  H   H1137     1.0  0.05717  0.80470  0.13713  1.0000
  H   H1138     1.0  0.23246  0.77649  0.46301  1.0000
  H   H1139     1.0  0.00463  0.71101  0.10051  1.0000
  C   C654      1.0  0.02697  0.69194  0.13005  1.0000
  H   H1140     1.0  0.02838  0.80305  0.34876  1.0000
  H   H1141     1.0  0.01983  0.70831  0.15582  1.0000
  H   H1142     1.0  0.21286  0.72628  0.02092  1.0000
  H   H1143     1.0  0.11895  0.88193  0.38516  1.0000
  S   S159      1.0  0.00501  0.68031  0.33142  1.0000
  H   H1144     1.0  0.10850  0.68668  0.13002  1.0000
  C   C655      1.0  0.22283  0.71892  0.01186  1.0000
  H   H1145     1.0  0.12006  0.69130  0.09865  1.0000
  H   H1146     1.0  0.05503  0.82943  0.15856  1.0000
  C   C656      1.0  0.00048  0.70579  0.09114  1.0000
  C   C657      1.0  0.05870  0.66520  0.22997  1.0000
  H   H1147     1.0  0.22570  0.91745  0.10466  1.0000
  C   C658      1.0  0.22277  0.74181  0.12912  1.0000
  H   H1148     1.0  0.16727  0.76577  0.07127  1.0000
  H   H1149     1.0  0.22382  0.81488  0.02210  1.0000
  Fe  Fe74      1.0  0.00722  0.77371  0.10326  1.0000
  H   H1150     1.0  0.04504  0.65667  0.33229  1.0000
  H   H1151     1.0  0.16771  0.81667  0.98460  1.0000
  C   C659      1.0  0.17572  0.66261  0.42793  1.0000
  C   C660      1.0  0.21018  0.76966  0.03178  1.0000
  C   C661      1.0  0.21905  0.76188  0.01571  1.0000
  H   H1152     1.0  0.23711  0.96515  0.41962  1.0000
  H   H1153     1.0  0.23258  0.81822  0.04963  1.0000
  H   H1154     1.0  0.22283  0.77262  0.00504  1.0000
  H   H1155     1.0  0.04464  0.86051  0.08569  1.0000
  C   C662      1.0  0.12185  0.69600  0.47795  1.0000
  H   H1156     1.0  0.14664  0.70696  0.99516  1.0000
  H   H1157     1.0  0.11524  0.66410  0.13672  1.0000
  H   H1158     1.0  0.15012  0.67495  0.00428  1.0000
  H   H1159     1.0  0.00615  0.86101  0.11007  1.0000
  H   H1160     1.0  0.04069  0.81067  0.31711  1.0000
  H   H1161     1.0  0.11719  0.70526  0.46719  1.0000
  C   C663      1.0  0.00366  0.76166  0.04100  1.0000
  H   H1162     1.0  0.04109  0.69225  0.12759  1.0000
  H   H1163     1.0  0.02181  0.73446  0.26342  1.0000
  H   H1164     1.0  0.22675  0.66961  0.47430  1.0000
  H   H1165     1.0  0.01204  0.84773  0.08501  1.0000
  H   H1166     1.0  0.20411  0.72034  0.99603  1.0000
  H   H1167     1.0  0.12121  0.66812  0.10239  1.0000
  H   H1168     1.0  0.01356  0.65717  0.17563  1.0000
  H   H1169     1.0  0.11811  0.72645  0.98276  1.0000
  C   C664      1.0  0.14363  0.67334  0.99434  1.0000
  H   H1170     1.0  0.08300  0.71445  0.99627  1.0000
  H   H1171     1.0  0.01300  0.73581  0.28596  1.0000
  H   H1172     1.0  0.23733  0.81535  0.32200  1.0000
  H   H1173     1.0  0.08580  0.66531  0.25565  1.0000
  H   H1174     1.0  0.14405  0.67527  0.16414  1.0000
  H   H1175     1.0  0.23660  0.86224  0.45696  1.0000
  H   H1176     1.0  0.19839  0.77960  0.02925  1.0000
  H   H1177     1.0  0.21046  0.73768  0.13675  1.0000
  H   H1178     1.0  0.20287  0.94255  0.45350  1.0000
  C   C665      1.0  0.23493  0.80622  0.05960  1.0000
  H   H1179     1.0  0.19894  0.85061  0.47027  1.0000
  H   H1180     1.0  0.23145  0.76437  0.11243  1.0000
  H   H1181     1.0  0.08766  0.67962  0.15524  1.0000
  C   C666      1.0  0.17419  0.84328  0.47315  1.0000
  C   C667      1.0  0.09621  0.84943  0.47652  1.0000
  H   H1182     1.0  0.17122  0.86988  0.45868  1.0000
  N   N36       1.0  0.13657  0.69083  0.98396  1.0000
  H   H1183     1.0  0.23685  0.93440  0.10416  1.0000
  H   H1184     1.0  0.22494  0.74144  0.99093  1.0000
  C   C668      1.0  0.23508  0.86421  0.04512  1.0000
  H   H1185     1.0  0.02702  0.74923  0.38182  1.0000
  H   H1186     1.0  0.22358  0.69221  0.46397  1.0000
  C   C669      1.0  0.21718  0.65369  0.40581  1.0000
  H   H1187     1.0  0.99542  0.76992  0.06566  1.0000
  Fe  Fe75      1.0  0.07615  0.76807  0.47661  1.0000
  H   H1188     1.0  0.23127  0.74106  0.13822  1.0000
  H   H1189     1.0  0.04179  0.69073  0.19856  1.0000
  C   C670      1.0  0.02749  0.81675  0.34180  1.0000
  H   H1190     1.0  0.10920  0.68998  0.99493  1.0000
  H   H1191     1.0  0.21746  0.83758  0.01301  1.0000
  C   C671      1.0  0.22380  0.74029  0.38562  1.0000
  C   C672      1.0  0.17849  0.72105  0.45349  1.0000
  C   C673      1.0  0.01286  0.81107  0.32010  1.0000
  C   C674      1.0  0.03761  0.71796  0.19753  1.0000
  C   C675      1.0  0.03661  0.70291  0.19000  1.0000
  S   S160      1.0  0.01546  0.71597  0.39571  1.0000
  H   H1192     1.0  0.23109  0.70842  0.01962  1.0000
  H   H1193     1.0  0.19215  0.68046  0.42698  1.0000
  H   H1194     1.0  0.03638  0.82401  0.26932  1.0000
  C   C676      1.0  0.09304  0.86118  0.45924  1.0000
  C   C677      1.0  0.22165  0.86174  0.03838  1.0000
  H   H1195     1.0  0.19010  0.77928  0.98688  1.0000
  C   C678      1.0  0.09209  0.72312  0.99510  1.0000
  H   H1196     1.0  0.22699  0.79511  0.34922  1.0000
  C   C679      1.0  0.22434  0.78967  0.46003  1.0000
  H   H1197     1.0  0.12030  0.85778  0.47462  1.0000
  H   H1198     1.0  0.22375  0.82173  0.99925  1.0000
  C   C680      1.0  0.21828  0.68022  0.46682  1.0000
  H   H1199     1.0  0.00449  0.65565  0.19826  1.0000
  H   H1200     1.0  0.19033  0.94643  0.42803  1.0000
  H   H1201     1.0  0.01530  0.82480  0.34785  1.0000
  Fe  Fe76      1.0  0.00248  0.70489  0.34116  1.0000
  H   H1202     1.0  0.12140  0.66048  0.99718  1.0000
  C   C681      1.0  0.24140  0.81465  0.33427  1.0000
  C   C682      1.0  0.24005  0.76108  0.36218  1.0000
  C   C683      1.0  0.23186  0.92282  0.11239  1.0000
  C   C684      1.0  0.24210  0.77027  0.41242  1.0000
  C   C685      1.0  0.00099  0.79550  0.17298  1.0000
  H   H1203     1.0  0.24205  0.72319  0.98829  1.0000
  C   C686      1.0  0.08148  0.66584  0.18156  1.0000
  H   H1204     1.0  0.24080  0.89820  0.12783  1.0000
  C   C687      1.0  0.24229  0.88558  0.01891  1.0000
  H   H1205     1.0  0.17640  0.71539  0.98597  1.0000
  C   C688      1.0  0.12860  0.67830  0.10136  1.0000
  H   H1206     1.0  0.20485  0.68243  0.47477  1.0000
  H   H1207     1.0  0.23745  0.93140  0.42878  1.0000
  H   H1208     1.0  0.06756  0.65460  0.26583  1.0000
  N   N37       1.0  0.01030  0.81409  0.30175  1.0000
  H   H1209     1.0  0.20168  0.71749  0.47385  1.0000
  H   H1210     1.0  0.15195  0.67352  0.41782  1.0000
  H   H1211     1.0  0.15634  0.71415  0.47210  1.0000
  C   C689      1.0  0.16341  0.86161  0.46915  1.0000
  H   H1212     1.0  0.08341  0.65325  0.17764  1.0000
  H   H1213     1.0  0.01201  0.70209  0.08100  1.0000
  C   C690      1.0  0.23962  0.95652  0.47449  1.0000
  H   H1214     1.0  0.20688  0.66417  0.40067  1.0000
  H   H1215     1.0  0.00296  0.73179  0.06170  1.0000
  H   H1216     1.0  0.24325  0.84055  0.98067  1.0000
  H   H1217     1.0  0.24382  0.75385  0.02367  1.0000
  H   H1218     1.0  0.24298  0.83405  0.37259  1.0000
  C   C691      1.0  0.00086  0.82422  0.11496  1.0000
  H   H1219     1.0  0.24341  0.76217  0.98511  1.0000
  H   H1220     1.0  0.12234  0.66719  0.01623  1.0000
  C   C692      1.0  0.07953  0.65757  0.26789  1.0000
  H   H1221     1.0  0.15397  0.66578  0.98567  1.0000
  H   H1222     1.0  0.00053  0.81622  0.32863  1.0000
  H   H1223     1.0  0.00306  0.72513  0.27516  1.0000
  H   H1224     1.0  0.99876  0.78221  0.32114  1.0000
  H   H1225     1.0  0.00268  0.79321  0.37971  1.0000
  C   C693      1.0  0.99567  0.69114  0.18267  1.0000
  H   H1226     1.0  0.19732  0.76522  0.47799  1.0000
  C   C694      1.0  0.99819  0.75096  0.20451  1.0000
  C   C695      1.0  0.99727  0.78780  0.37139  1.0000
  H   H1227     1.0  0.23230  0.88065  0.47843  1.0000
  H   H1228     1.0  0.00175  0.75630  0.19040  1.0000
  C   C696      1.0  0.00206  0.84903  0.14946  1.0000
  H   H1229     1.0  0.99538  0.75556  0.39169  1.0000
  C   C697      1.0  0.99626  0.78696  0.30779  1.0000
  H   H1230     1.0  0.24440  0.84425  0.12775  1.0000
  H   H1231     1.0  0.99526  0.69400  0.09832  1.0000
  C   C698      1.0  0.99559  0.84085  0.13750  1.0000
  H   H1232     1.0  0.17263  0.65146  0.13639  1.0000
  C   C699      1.0  0.99459  0.80693  0.30215  1.0000
  C   C700      1.0  0.22949  0.83132  0.89104  1.0000
  H   H1233     1.0  0.17036  0.67799  0.67211  1.0000
  H   H1234     1.0  0.16640  0.70545  0.71692  1.0000
  H   H1235     1.0  0.17530  0.69422  0.56647  1.0000
  C   C701      1.0  0.18844  0.74449  0.54404  1.0000
  H   H1236     1.0  0.19639  0.86799  0.62979  1.0000
  H   H1237     1.0  0.21006  0.85388  0.49951  1.0000
  Fe  Fe77      1.0  0.19168  0.90215  0.94372  1.0000
  S   S161      1.0  0.18193  0.92182  0.92106  1.0000
  H   H1238     1.0  0.21249  0.78944  0.93993  1.0000
  S   S162      1.0  0.18781  0.87538  0.94465  1.0000
  H   H1239     1.0  0.19554  0.72672  0.66355  1.0000
  H   H1240     1.0  0.18380  0.90396  0.57432  1.0000
  H   H1241     1.0  0.17241  0.71985  0.50646  1.0000
  S   S163      1.0  0.23249  0.77634  0.56352  1.0000
  H   H1242     1.0  0.11423  0.71482  0.52016  1.0000
  H   H1243     1.0  0.18259  0.78018  0.49072  1.0000
  H   H1244     1.0  0.14547  0.71493  0.97301  1.0000
  S   S164      1.0  0.20543  0.91099  0.48609  1.0000
  C   C702      1.0  0.17943  0.68474  0.70265  1.0000
  H   H1245     1.0  0.19002  0.68027  0.71016  1.0000
  H   H1246     1.0  0.17958  0.68732  0.53696  1.0000
  H   H1247     1.0  0.12904  0.93204  0.63182  1.0000
  H   H1248     1.0  0.18487  0.80518  0.94201  1.0000
  Fe  Fe78      1.0  0.13738  0.79681  0.58439  1.0000
  S   S165      1.0  0.10867  0.80591  0.59380  1.0000
  S   S166      1.0  0.15366  0.77193  0.59606  1.0000
  Fe  Fe79      1.0  0.14020  0.82827  0.55596  1.0000
  S   S167      1.0  0.11174  0.83999  0.56271  1.0000
  S   S168      1.0  0.15759  0.84242  0.53387  1.0000
  Fe  Fe80      1.0  0.11550  0.83206  0.59039  1.0000
  S   S169      1.0  0.10577  0.85086  0.60907  1.0000
  Fe  Fe81      1.0  0.10775  0.81292  0.56527  1.0000
  S   S170      1.0  0.08550  0.80845  0.55548  1.0000
  S   S171      1.0  0.14419  0.82221  0.58324  1.0000
  S   S172      1.0  0.13604  0.80193  0.55632  1.0000
  H   H1249     1.0  0.17176  0.96281  0.81276  1.0000
  N   N38       1.0  0.05231  0.98270  0.73922  1.0000
  C   C703      1.0  0.14194  0.79866  0.50692  1.0000
  H   H1250     1.0  0.21815  0.84806  0.71077  1.0000
  C   C704      1.0  0.20726  0.90486  0.72721  1.0000
  H   H1251     1.0  0.16021  0.68168  0.55176  1.0000
  H   H1252     1.0  0.12192  0.81250  0.52418  1.0000
  H   H1253     1.0  0.18789  0.93617  0.55935  1.0000
  H   H1254     1.0  0.22668  0.82239  0.52456  1.0000
  Fe  Fe82      1.0  0.14602  0.90882  0.69235  1.0000
  S   S173      1.0  0.15983  0.88073  0.69430  1.0000
  S   S174      1.0  0.12823  0.91950  0.71523  1.0000
  Fe  Fe83      1.0  0.16487  0.91946  0.65588  1.0000
  S   S175      1.0  0.18030  0.89271  0.65474  1.0000
  S   S176      1.0  0.17058  0.94052  0.63268  1.0000
  Fe  Fe84      1.0  0.15507  0.88381  0.66731  1.0000
  S   S177      1.0  0.15294  0.86098  0.65676  1.0000
  Fe  Fe85      1.0  0.18398  0.89160  0.68144  1.0000
  S   S178      1.0  0.21118  0.88137  0.68737  1.0000
  S   S179      1.0  0.13914  0.91102  0.66654  1.0000
  S   S180      1.0  0.17066  0.91916  0.68149  1.0000
  Fe  Fe86      1.0  0.14992  0.69034  0.88638  1.0000
  S   S181      1.0  0.15591  0.69885  0.85730  1.0000
  S   S182      1.0  0.12834  0.70651  0.90319  1.0000
  Fe  Fe87      1.0  0.18391  0.69282  0.86016  1.0000
  S   S183      1.0  0.20920  0.91271  0.53327  1.0000
  H   H1255     1.0  0.18186  0.66595  0.60512  1.0000
  S   S184      1.0  0.17768  0.68587  0.88916  1.0000
  H   H1256     1.0  0.22491  0.91694  0.57828  1.0000
  C   C705      1.0  0.12458  0.67836  0.94550  1.0000
  H   H1257     1.0  0.19124  0.70424  0.65028  1.0000
  H   H1258     1.0  0.20844  0.79391  0.51175  1.0000
  H   H1259     1.0  0.13016  0.76429  0.56892  1.0000
  H   H1260     1.0  0.24076  0.95341  0.76103  1.0000
  S   S185      1.0  0.08855  0.70391  0.49669  1.0000
  C   C706      1.0  0.19021  0.84313  0.48059  1.0000
  H   H1261     1.0  0.17585  0.67315  0.70070  1.0000
  N   N39       1.0  0.20106  0.68909  0.67305  1.0000
  C   C707      1.0  0.21619  0.88983  0.70312  1.0000
  H   H1262     1.0  0.23069  0.74682  0.51960  1.0000
  H   H1263     1.0  0.19230  0.71047  0.54242  1.0000
  C   C708      1.0  0.21726  0.75227  0.52605  1.0000
  H   H1264     1.0  0.21748  0.93974  0.78886  1.0000
  C   C709      1.0  0.14896  0.74961  0.55066  1.0000
  H   H1265     1.0  0.16762  0.88528  0.62506  1.0000
  H   H1266     1.0  0.12512  0.87897  0.49018  1.0000
  S   S186      1.0  0.20922  0.86737  0.56476  1.0000
  H   H1267     1.0  0.19943  0.66208  0.68249  1.0000
  H   H1268     1.0  0.20685  0.83247  0.72663  1.0000
  H   H1269     1.0  0.15966  0.68500  0.72627  1.0000
  H   H1270     1.0  0.21124  0.85828  0.76781  1.0000
  H   H1271     1.0  0.21184  0.74308  0.63770  1.0000
  H   H1272     1.0  0.08910  0.86469  0.52756  1.0000
  H   H1273     1.0  0.13806  0.74778  0.48640  1.0000
  C   C710      1.0  0.20901  0.93462  0.85664  1.0000
  C   C711      1.0  0.13425  0.67212  0.50580  1.0000
  C   C712      1.0  0.11655  0.68050  0.50774  1.0000
  H   H1274     1.0  0.15541  0.91297  0.61914  1.0000
  H   H1275     1.0  0.06005  0.84796  0.52456  1.0000
  H   H1276     1.0  0.13899  0.66298  0.51660  1.0000
  H   H1277     1.0  0.10768  0.67783  0.52005  1.0000
  C   C713      1.0  0.17812  0.95577  0.63937  1.0000
  H   H1278     1.0  0.06907  0.84484  0.54366  1.0000
  H   H1279     1.0  0.21628  0.81089  0.93459  1.0000
  C   C714      1.0  0.13077  0.88025  0.51416  1.0000
  C   C715      1.0  0.12409  0.85372  0.50779  1.0000
  C   C716      1.0  0.17178  0.95895  0.65617  1.0000
  C   C717      1.0  0.21588  0.66993  0.54864  1.0000
  H   H1280     1.0  0.16089  0.95350  0.66442  1.0000
  H   H1281     1.0  0.07967  0.94721  0.69757  1.0000
  C   C718      1.0  0.07426  0.96481  0.77988  1.0000
  H   H1282     1.0  0.06148  0.96469  0.69321  1.0000
  H   H1283     1.0  0.16816  0.90009  0.90230  1.0000
  H   H1284     1.0  0.17446  0.91539  0.59134  1.0000
  H   H1285     1.0  0.21494  0.72793  0.54341  1.0000
  C   C719      1.0  0.18934  0.72284  0.57088  1.0000
  H   H1286     1.0  0.00141  0.97076  0.75397  1.0000
  H   H1287     1.0  0.08953  0.83420  0.51123  1.0000
  H   H1288     1.0  0.17381  0.70196  0.67857  1.0000
  C   C720      1.0  0.19152  0.96375  0.62844  1.0000
  H   H1289     1.0  0.20697  0.90601  0.62227  1.0000
  H   H1290     1.0  0.16952  0.87966  0.89665  1.0000
  C   C721      1.0  0.11930  0.85478  0.62134  1.0000
  C   C722      1.0  0.11265  0.86711  0.63205  1.0000
  C   C723      1.0  0.12297  0.86990  0.64244  1.0000
  C   C724      1.0  0.14000  0.86023  0.64230  1.0000
  C   C725      1.0  0.14671  0.84832  0.63127  1.0000
  C   C726      1.0  0.13653  0.84568  0.62077  1.0000
  H   H1291     1.0  0.09933  0.87430  0.63257  1.0000
  H   H1292     1.0  0.11752  0.87902  0.65102  1.0000
  H   H1293     1.0  0.15997  0.84119  0.63079  1.0000
  H   H1294     1.0  0.14195  0.83645  0.61241  1.0000
  C   C727      1.0  0.17563  0.77296  0.58720  1.0000
  C   C728      1.0  0.18898  0.76006  0.59342  1.0000
  C   C729      1.0  0.20654  0.76120  0.58643  1.0000
  C   C730      1.0  0.21071  0.77527  0.57324  1.0000
  C   C731      1.0  0.19735  0.78821  0.56724  1.0000
  C   C732      1.0  0.17986  0.78688  0.57398  1.0000
  H   H1295     1.0  0.18576  0.74929  0.60369  1.0000
  H   H1296     1.0  0.21685  0.75137  0.59142  1.0000
  H   H1297     1.0  0.20053  0.79912  0.55711  1.0000
  H   H1298     1.0  0.16970  0.79664  0.56878  1.0000
  C   C733      1.0  0.17265  0.84899  0.54186  1.0000
  C   C734      1.0  0.17827  0.86455  0.53374  1.0000
  C   C735      1.0  0.18967  0.87018  0.54065  1.0000
  C   C736      1.0  0.19537  0.86030  0.55571  1.0000
  C   C737      1.0  0.19010  0.84458  0.56352  1.0000
  C   C738      1.0  0.17899  0.83881  0.55644  1.0000
  H   H1299     1.0  0.17364  0.87239  0.52229  1.0000
  H   H1300     1.0  0.19375  0.88233  0.53447  1.0000
  H   H1301     1.0  0.19490  0.83675  0.57485  1.0000
  H   H1302     1.0  0.17565  0.82631  0.56209  1.0000
  C   C739      1.0  0.08222  0.80282  0.53692  1.0000
  C   C740      1.0  0.06555  0.80885  0.53300  1.0000
  C   C741      1.0  0.06159  0.80499  0.51876  1.0000
  C   C742      1.0  0.07397  0.79441  0.50842  1.0000
  C   C743      1.0  0.09082  0.78810  0.51224  1.0000
  C   C744      1.0  0.09498  0.79243  0.52643  1.0000
  H   H1303     1.0  0.05552  0.81665  0.54106  1.0000
  H   H1304     1.0  0.04862  0.81001  0.51595  1.0000
  H   H1305     1.0  0.10056  0.78003  0.50424  1.0000
  H   H1306     1.0  0.10779  0.78740  0.52952  1.0000
  C   C745      1.0  0.23788  0.89295  0.71778  1.0000
  H   H1307     1.0  0.17474  0.92330  0.84727  1.0000
  H   H1308     1.0  0.22642  0.68714  0.92115  1.0000
  H   H1309     1.0  0.13773  0.67720  0.93685  1.0000
  C   C746      1.0  0.18431  0.78588  0.97531  1.0000
  H   H1310     1.0  0.19615  0.94005  0.82235  1.0000
  S   S187      1.0  0.23621  0.84566  0.93939  1.0000
  C   C747      1.0  0.12324  0.95265  0.69550  1.0000
  C   C748      1.0  0.12283  0.94235  0.71214  1.0000
  C   C749      1.0  0.11738  0.95035  0.72657  1.0000
  C   C750      1.0  0.24230  0.82026  0.76502  1.0000
  H   H1311     1.0  0.16560  0.88893  0.56530  1.0000
  H   H1312     1.0  0.12750  0.94662  0.68430  1.0000
  H   H1313     1.0  0.11724  0.94245  0.73945  1.0000
  C   C751      1.0  0.21132  0.84006  0.50635  1.0000
  H   H1314     1.0  0.20009  0.71208  0.56707  1.0000
  C   C752      1.0  0.18112  0.65399  0.66357  1.0000
  H   H1315     1.0  0.18760  0.70847  0.68843  1.0000
  C   C753      1.0  0.18027  0.81229  0.95279  1.0000
  H   H1316     1.0  0.18306  0.68002  0.65032  1.0000
  H   H1317     1.0  0.22842  0.87302  0.62527  1.0000
  C   C754      1.0  0.19030  0.94049  0.90948  1.0000
  C   C755      1.0  0.18266  0.95105  0.89569  1.0000
  C   C756      1.0  0.18917  0.96572  0.88565  1.0000
  H   H1318     1.0  0.17368  0.83985  0.95411  1.0000
  C   C757      1.0  0.20316  0.95413  0.70406  1.0000
  H   H1319     1.0  0.19069  0.88694  0.86983  1.0000
  H   H1320     1.0  0.17167  0.94781  0.89271  1.0000
  H   H1321     1.0  0.06998  0.96600  0.79369  1.0000
  H   H1322     1.0  0.17260  0.94569  0.57656  1.0000
  H   H1323     1.0  0.12807  0.89465  0.51138  1.0000
  C   C758      1.0  0.13965  0.73577  0.93950  1.0000
  C   C759      1.0  0.15299  0.72354  0.93186  1.0000
  C   C760      1.0  0.14972  0.71459  0.92069  1.0000
  C   C761      1.0  0.13303  0.71775  0.91702  1.0000
  C   C762      1.0  0.11958  0.72975  0.92496  1.0000
  C   C763      1.0  0.12286  0.73877  0.93614  1.0000
  H   H1324     1.0  0.16592  0.72089  0.93466  1.0000
  H   H1325     1.0  0.16007  0.70512  0.91507  1.0000
  H   H1326     1.0  0.10658  0.73217  0.92232  1.0000
  H   H1327     1.0  0.11246  0.74814  0.94198  1.0000
  H   H1328     1.0  0.20816  0.72899  0.94210  1.0000
  H   H1329     1.0  0.17063  0.90323  0.87066  1.0000
  C   C764      1.0  0.22012  0.86820  0.78532  1.0000
  H   H1330     1.0  0.17580  0.72037  0.96310  1.0000
  S   S188      1.0  0.16809  0.66633  0.48702  1.0000
  H   H1331     1.0  0.18328  0.97356  0.87495  1.0000
  H   H1332     1.0  0.17521  0.75085  0.50020  1.0000
  H   H1333     1.0  0.13275  0.66316  0.96869  1.0000
  H   H1334     1.0  0.21698  0.68173  0.89433  1.0000
  H   H1335     1.0  0.14830  0.74102  0.54229  1.0000
  Fe  Fe88      1.0  0.17941  0.65909  0.88560  1.0000
  C   C765      1.0  0.22341  0.93773  0.66114  1.0000
  C   C766      1.0  0.16344  0.69405  0.71387  1.0000
  Fe  Fe89      1.0  0.22134  0.90576  0.50712  1.0000
  H   H1336     1.0  0.17397  0.72406  0.53455  1.0000
  C   C767      1.0  0.05955  0.97432  0.77011  1.0000
  H   H1337     1.0  0.20314  0.70713  0.51259  1.0000
  C   C768      1.0  0.23364  0.88695  0.70484  1.0000
  C   C769      1.0  0.10808  0.85630  0.48449  1.0000
  C   C770      1.0  0.14672  0.73680  0.49349  1.0000
  H   H1338     1.0  0.19946  0.71518  0.60276  1.0000
  H   H1339     1.0  0.21833  0.66796  0.93291  1.0000
  C   C771      1.0  0.24193  0.96563  0.57888  1.0000
  C   C772      1.0  0.18519  0.69691  0.68510  1.0000
  H   H1340     1.0  0.20905  0.93909  0.66586  1.0000
  H   H1341     1.0  0.20515  0.90446  0.87931  1.0000
  C   C773      1.0  0.23171  0.73158  0.87439  1.0000
  C   C774      1.0  0.16653  0.69271  0.54423  1.0000
  H   H1342     1.0  0.18896  0.75447  0.55103  1.0000
  H   H1343     1.0  0.19600  0.69409  0.93690  1.0000
  H   H1344     1.0  0.23063  0.79804  0.48024  1.0000
  C   C775      1.0  0.22572  0.97145  0.74277  1.0000
  H   H1345     1.0  0.11240  0.67885  0.97198  1.0000
  H   H1346     1.0  0.11634  0.69108  0.94097  1.0000
  H   H1347     1.0  0.24310  0.74497  0.84930  1.0000
  C   C776      1.0  0.17383  0.94087  0.56458  1.0000
  H   H1348     1.0  0.04833  0.96781  0.77628  1.0000
  C   C777      1.0  0.20898  0.80157  0.96276  1.0000
  H   H1349     1.0  0.14766  0.86988  0.95614  1.0000
  C   C778      1.0  0.17105  0.91041  0.58141  1.0000
  C   C779      1.0  0.16828  0.70332  0.55660  1.0000
  N   N40       1.0  0.15949  0.79097  0.64226  1.0000
  C   C780      1.0  0.14048  0.79966  0.64649  1.0000
  C   C781      1.0  0.16818  0.79158  0.65646  1.0000
  C   C782      1.0  0.16776  0.80039  0.62485  1.0000
  C   C783      1.0  0.16149  0.77230  0.64123  1.0000
  C   C784      1.0  0.15195  0.76086  0.65726  1.0000
  C   C785      1.0  0.12867  0.79851  0.63458  1.0000
  C   C786      1.0  0.18782  0.79449  0.61911  1.0000
  C   C787      1.0  0.17010  0.80986  0.65739  1.0000
  C   C788      1.0  0.17873  0.80898  0.67238  1.0000
  C   C789      1.0  0.15403  0.74261  0.65413  1.0000
  C   C790      1.0  0.10969  0.80705  0.64088  1.0000
  C   C791      1.0  0.19497  0.80701  0.60299  1.0000
  H   H1350     1.0  0.13927  0.81374  0.64580  1.0000
  H   H1351     1.0  0.13447  0.79462  0.66015  1.0000
  H   H1352     1.0  0.16065  0.78628  0.66936  1.0000
  H   H1353     1.0  0.18135  0.78295  0.65551  1.0000
  H   H1354     1.0  0.16478  0.81454  0.62435  1.0000
  H   H1355     1.0  0.16192  0.79885  0.61442  1.0000
  H   H1356     1.0  0.15708  0.77148  0.62962  1.0000
  H   H1357     1.0  0.17555  0.76586  0.63920  1.0000
  H   H1358     1.0  0.13772  0.76632  0.66021  1.0000
  H   H1359     1.0  0.15742  0.75966  0.66883  1.0000
  H   H1360     1.0  0.13294  0.80537  0.62112  1.0000
  H   H1361     1.0  0.12885  0.78489  0.63435  1.0000
  H   H1362     1.0  0.19090  0.78143  0.61591  1.0000
  H   H1363     1.0  0.19499  0.79396  0.62925  1.0000
  H   H1364     1.0  0.17832  0.81579  0.64534  1.0000
  H   H1365     1.0  0.15715  0.81869  0.65950  1.0000
  H   H1366     1.0  0.19208  0.80078  0.67070  1.0000
  H   H1367     1.0  0.17980  0.82228  0.67269  1.0000
  H   H1368     1.0  0.17072  0.80371  0.68496  1.0000
  H   H1369     1.0  0.14812  0.74317  0.64297  1.0000
  H   H1370     1.0  0.16805  0.73630  0.65138  1.0000
  H   H1371     1.0  0.14726  0.73458  0.66581  1.0000
  H   H1372     1.0  0.10446  0.80023  0.65411  1.0000
  H   H1373     1.0  0.10867  0.82090  0.64103  1.0000
  H   H1374     1.0  0.10146  0.80651  0.63203  1.0000
  H   H1375     1.0  0.20893  0.80171  0.59795  1.0000
  H   H1376     1.0  0.18754  0.80893  0.59265  1.0000
  H   H1377     1.0  0.19398  0.81979  0.60616  1.0000
  H   H1378     1.0  0.20753  0.88253  0.81809  1.0000
  C   C792      1.0  0.11039  0.69264  0.49388  1.0000
  H   H1379     1.0  0.23249  0.91528  0.86255  1.0000
  C   C793      1.0  0.23978  0.92336  0.79859  1.0000
  H   H1380     1.0  0.22839  0.81976  0.77112  1.0000
  H   H1381     1.0  0.22565  0.89482  0.89629  1.0000
  C   C794      1.0  0.17907  0.71588  0.58916  1.0000
  H   H1382     1.0  0.20675  0.73125  0.52414  1.0000
  C   C795      1.0  0.06527  0.97327  0.75070  1.0000
  H   H1383     1.0  0.20717  0.75299  0.89648  1.0000
  H   H1384     1.0  0.23753  0.66750  0.86319  1.0000
  H   H1385     1.0  0.19563  0.83315  0.94326  1.0000
  H   H1386     1.0  0.17356  0.93904  0.85919  1.0000
  S   S189      1.0  0.15099  0.66253  0.88524  1.0000
  H   H1387     1.0  0.23769  0.69130  0.65820  1.0000
  H   H1388     1.0  0.14964  0.93159  0.57337  1.0000
  H   H1389     1.0  0.18931  0.95683  0.83479  1.0000
  C   C796      1.0  0.22715  0.95238  0.80377  1.0000
  H   H1390     1.0  0.15367  0.73101  0.57382  1.0000
  H   H1391     1.0  0.23029  0.93119  0.59904  1.0000
  H   H1392     1.0  0.18114  0.80916  0.49654  1.0000
  H   H1393     1.0  0.11838  0.66798  0.94452  1.0000
  S   S190      1.0  0.18816  0.66540  0.85677  1.0000
  S   S191      1.0  0.14487  0.74714  0.95278  1.0000
  C   C797      1.0  0.19374  0.74403  0.92218  1.0000
  H   H1394     1.0  0.10041  0.83456  0.52735  1.0000
  H   H1395     1.0  0.14457  0.87560  0.55454  1.0000
  H   H1396     1.0  0.17030  0.72686  0.59484  1.0000
  H   H1397     1.0  0.17484  0.70567  0.49237  1.0000
  H   H1398     1.0  0.13225  0.91106  0.59486  1.0000
  C   C798      1.0  0.17685  0.88997  0.89531  1.0000
  H   H1399     1.0  0.22026  0.84210  0.78462  1.0000
  S   S192      1.0  0.20267  0.71060  0.84497  1.0000
  C   C799      1.0  0.19873  0.68936  0.92462  1.0000
  C   C800      1.0  0.12318  0.83841  0.96738  1.0000
  C   C801      1.0  0.21049  0.95998  0.90367  1.0000
  H   H1400     1.0  0.14542  0.90394  0.56865  1.0000
  C   C802      1.0  0.20991  0.73931  0.93029  1.0000
  H   H1401     1.0  0.22007  0.91645  0.83396  1.0000
  H   H1402     1.0  0.24196  0.66266  0.58702  1.0000
  H   H1403     1.0  0.21201  0.75080  0.93396  1.0000
  S   S193      1.0  0.23257  0.87844  0.51816  1.0000
  C   C803      1.0  0.21062  0.71481  0.87443  1.0000
  C   C804      1.0  0.19366  0.97624  0.65182  1.0000
  H   H1404     1.0  0.15832  0.70083  0.53488  1.0000
  C   C805      1.0  0.21795  0.79850  0.94415  1.0000
  H   H1405     1.0  0.17504  0.97078  0.67569  1.0000
  H   H1406     1.0  0.13058  0.72021  0.49055  1.0000
  S   S194      1.0  0.20617  0.86213  0.97868  1.0000
  H   H1407     1.0  0.21035  0.66701  0.66057  1.0000
  C   C806      1.0  0.22967  0.89001  0.64228  1.0000
  C   C807      1.0  0.13667  0.72168  0.50075  1.0000
  Fe  Fe90      1.0  0.20893  0.88942  0.97571  1.0000
  N   N41       1.0  0.18933  0.80335  0.96775  1.0000
  C   C808      1.0  0.12199  0.72521  0.51628  1.0000
  H   H1408     1.0  0.15816  0.95862  0.83401  1.0000
  C   C809      1.0  0.13189  0.81569  0.51239  1.0000
  C   C810      1.0  0.12067  0.87387  0.50422  1.0000
  C   C811      1.0  0.24002  0.85196  0.76235  1.0000
  H   H1409     1.0  0.18225  0.74802  0.93220  1.0000
  H   H1410     1.0  0.14790  0.74134  0.50489  1.0000
  H   H1411     1.0  0.24378  0.80003  0.94681  1.0000
  C   C812      1.0  0.16863  0.69574  0.97712  1.0000
  H   H1412     1.0  0.05736  0.86587  0.53495  1.0000
  H   H1413     1.0  0.14539  0.70917  0.50489  1.0000
  C   C813      1.0  0.17584  0.65226  0.94645  1.0000
  C   C814      1.0  0.20643  0.70458  0.49927  1.0000
  C   C815      1.0  0.19990  0.77652  0.86786  1.0000
  S   S195      1.0  0.21150  0.97145  0.80024  1.0000
  C   C816      1.0  0.12591  0.67665  0.96428  1.0000
  H   H1414     1.0  0.01197  0.95943  0.77203  1.0000
  H   H1415     1.0  0.12337  0.84881  0.52198  1.0000
  C   C817      1.0  0.02061  0.98341  0.75788  1.0000
  H   H1416     1.0  0.11304  0.73782  0.51291  1.0000
  H   H1417     1.0  0.12746  0.72534  0.52747  1.0000
  N   N42       1.0  0.17995  0.76533  0.89709  1.0000
  C   C818      1.0  0.18391  0.78047  0.88261  1.0000
  C   C819      1.0  0.16435  0.77120  0.91067  1.0000
  C   C820      1.0  0.19566  0.75854  0.90560  1.0000
  C   C821      1.0  0.17707  0.75077  0.89039  1.0000
  C   C822      1.0  0.16159  0.75497  0.88102  1.0000
  C   C823      1.0  0.14459  0.91784  0.61200  1.0000
  C   C824      1.0  0.14976  0.78635  0.90452  1.0000
  C   C825      1.0  0.13382  0.78876  0.91923  1.0000
  C   C826      1.0  0.16165  0.73985  0.87294  1.0000
  H   H1418     1.0  0.19871  0.83865  0.51529  1.0000
  H   H1419     1.0  0.18608  0.79087  0.88808  1.0000
  H   H1420     1.0  0.17261  0.78649  0.87620  1.0000
  H   H1421     1.0  0.15811  0.76005  0.91784  1.0000
  H   H1422     1.0  0.16854  0.77564  0.92062  1.0000
  H   H1423     1.0  0.22925  0.66252  0.62720  1.0000
  H   H1424     1.0  0.18911  0.74549  0.88166  1.0000
  H   H1425     1.0  0.17454  0.73966  0.90118  1.0000
  H   H1426     1.0  0.16213  0.76659  0.87046  1.0000
  H   H1427     1.0  0.14903  0.75699  0.89049  1.0000
  H   H1428     1.0  0.21061  0.76173  0.51612  1.0000
  C   C827      1.0  0.19148  0.70636  0.60153  1.0000
  H   H1429     1.0  0.15466  0.79868  0.90032  1.0000
  H   H1430     1.0  0.14532  0.78423  0.89354  1.0000
  H   H1431     1.0  0.13754  0.79127  0.93051  1.0000
  H   H1432     1.0  0.12379  0.80000  0.91472  1.0000
  H   H1433     1.0  0.12793  0.77702  0.92348  1.0000
  H   H1434     1.0  0.17361  0.73763  0.86276  1.0000
  H   H1435     1.0  0.16108  0.72776  0.88296  1.0000
  H   H1436     1.0  0.15006  0.74281  0.86689  1.0000
  H   H1437     1.0  0.18522  0.89388  0.60946  1.0000
  C   C828      1.0  0.14570  0.67571  0.48990  1.0000
  H   H1438     1.0  0.14694  0.93014  0.60298  1.0000
  H   H1439     1.0  0.21733  0.87577  0.83687  1.0000
  C   C829      1.0  0.18069  0.66782  0.78100  1.0000
  H   H1440     1.0  0.21019  0.97925  0.62641  1.0000
  H   H1441     1.0  0.19615  0.96186  0.61525  1.0000
  H   H1442     1.0  0.16709  0.67412  0.78617  1.0000
  H   H1443     1.0  0.18978  0.67309  0.78558  1.0000
  H   H1444     1.0  0.18303  0.67106  0.76661  1.0000
  N   N43       1.0  0.17909  0.73094  0.55654  1.0000
  C   C830      1.0  0.18248  0.93191  0.84920  1.0000
  H   H1445     1.0  0.15363  0.76131  0.54236  1.0000
  C   C831      1.0  0.18261  0.89777  0.87611  1.0000
  C   C832      1.0  0.16908  0.95266  0.82456  1.0000
  C   C833      1.0  0.18995  0.77245  0.96340  1.0000
  C   C834      1.0  0.18554  0.94561  0.83221  1.0000
  C   C835      1.0  0.20687  0.71926  0.65574  1.0000
  S   S196      1.0  0.13618  0.78702  0.97122  1.0000
  C   C836      1.0  0.19108  0.86660  0.61899  1.0000
  H   H1446     1.0  0.18123  0.75149  0.53353  1.0000
  S   S197      1.0  0.22930  0.90878  0.74603  1.0000
  S   S198      1.0  0.10988  0.82941  0.95912  1.0000
  H   H1447     1.0  0.15487  0.70875  0.56298  1.0000
  S   S199      1.0  0.09824  0.78024  0.96979  1.0000
  C   C837      1.0  0.21350  0.92416  0.58628  1.0000
  H   H1448     1.0  0.20348  0.69179  0.49993  1.0000
  H   H1449     1.0  0.16596  0.81230  0.95691  1.0000
  C   C838      1.0  0.20727  0.73761  0.53454  1.0000
  C   C839      1.0  0.16097  0.74010  0.56383  1.0000
  H   H1450     1.0  0.20545  0.97550  0.76544  1.0000
  S   S200      1.0  0.06758  0.79090  0.49038  1.0000
  H   H1451     1.0  0.03936  0.96091  0.75013  1.0000
  H   H1452     1.0  0.20752  0.93510  0.60895  1.0000
  H   H1453     1.0  0.19122  0.66526  0.62338  1.0000
  C   C840      1.0  0.20187  0.96814  0.71410  1.0000
  C   C841      1.0  0.18832  0.81596  0.50191  1.0000
  C   C842      1.0  0.18203  0.83143  0.94515  1.0000
  H   H1454     1.0  0.21709  0.69724  0.68618  1.0000
  C   C843      1.0  0.22041  0.90808  0.61567  1.0000
  C   C844      1.0  0.21827  0.92573  0.60276  1.0000
  Fe  Fe91      1.0  0.22262  0.88600  0.54388  1.0000
  C   C845      1.0  0.17877  0.71759  0.54672  1.0000
  C   C846      1.0  0.17440  0.95511  0.77032  1.0000
  H   H1455     1.0  0.19234  0.73202  0.91901  1.0000
  H   H1456     1.0  0.19830  0.76664  0.86143  1.0000
  H   H1457     1.0  0.20249  0.91732  0.58954  1.0000
  C   C847      1.0  0.14168  0.85920  0.96398  1.0000
  H   H1458     1.0  0.17784  0.82530  0.50850  1.0000
  H   H1459     1.0  0.16408  0.97905  0.75363  1.0000
  C   C848      1.0  0.23756  0.79131  0.94281  1.0000
  H   H1460     1.0  0.22975  0.96264  0.73347  1.0000
  C   C849      1.0  0.19646  0.80286  0.51663  1.0000
  C   C850      1.0  0.06102  0.98047  0.72092  1.0000
  H   H1461     1.0  0.17688  0.85193  0.92307  1.0000
  H   H1462     1.0  0.13811  0.84981  0.50172  1.0000
  H   H1463     1.0  0.17158  0.80069  0.53427  1.0000
  H   H1464     1.0  0.24386  0.79029  0.92919  1.0000
  H   H1465     1.0  0.22990  0.86428  0.79378  1.0000
  C   C851      1.0  0.07328  0.96070  0.69907  1.0000
  C   C852      1.0  0.13087  0.85237  0.95730  1.0000
  H   H1466     1.0  0.12856  0.85781  0.94431  1.0000
  H   H1467     1.0  0.16737  0.65638  0.92232  1.0000
  H   H1468     1.0  0.11648  0.92788  0.61837  1.0000
  C   C853      1.0  0.17801  0.88314  0.61351  1.0000
  C   C854      1.0  0.18332  0.79211  0.52820  1.0000
  H   H1469     1.0  0.18730  0.74645  0.96373  1.0000
  C   C855      1.0  0.21999  0.72071  0.88338  1.0000
  H   H1470     1.0  0.14506  0.87554  0.51017  1.0000
  C   C856      1.0  0.21741  0.67878  0.92151  1.0000
  H   H1471     1.0  0.19594  0.73243  0.57302  1.0000
  H   H1472     1.0  0.23597  0.97659  0.58510  1.0000
  H   H1473     1.0  0.20040  0.69494  0.59677  1.0000
  C   C857      1.0  0.21048  0.90969  0.84406  1.0000
  H   H1474     1.0  0.21119  0.78879  0.48631  1.0000
  H   H1475     1.0  0.21890  0.92454  0.88073  1.0000
  H   H1476     1.0  0.18939  0.78292  0.53859  1.0000
  H   H1477     1.0  0.17937  0.78459  0.52070  1.0000
  H   H1478     1.0  0.12210  0.76336  0.55048  1.0000
  H   H1479     1.0  0.17099  0.70687  0.58874  1.0000
  H   H1480     1.0  0.21840  0.75899  0.53595  1.0000
  H   H1481     1.0  0.18461  0.85527  0.62355  1.0000
  H   H1482     1.0  0.21858  0.71782  0.66117  1.0000
  C   C858      1.0  0.22712  0.93858  0.79644  1.0000
  H   H1483     1.0  0.13354  0.87899  0.59280  1.0000
  C   C859      1.0  0.08348  0.85863  0.51998  1.0000
  H   H1484     1.0  0.22902  0.85515  0.73411  1.0000
  C   C860      1.0  0.17604  0.83805  0.92785  1.0000
  H   H1485     1.0  0.20213  0.86419  0.60796  1.0000
  H   H1486     1.0  0.12495  0.91053  0.63485  1.0000
  N   N44       1.0  0.20042  0.82545  0.48739  1.0000
  H   H1487     1.0  0.19871  0.73188  0.63110  1.0000
  H   H1488     1.0  0.18953  0.90129  0.71300  1.0000
  H   H1489     1.0  0.16224  0.83692  0.92947  1.0000
  H   H1490     1.0  0.20874  0.92216  0.64303  1.0000
  H   H1491     1.0  0.12432  0.74460  0.56771  1.0000
  C   C861      1.0  0.13028  0.75581  0.56006  1.0000
  H   H1492     1.0  0.16197  0.74992  0.57076  1.0000
  C   C862      1.0  0.21909  0.67954  0.55911  1.0000
  C   C863      1.0  0.20430  0.94497  0.91342  1.0000
  H   H1493     1.0  0.22504  0.83395  0.48151  1.0000
  H   H1494     1.0  0.22247  0.82597  0.70809  1.0000
  H   H1495     1.0  0.20955  0.95821  0.69034  1.0000
  H   H1496     1.0  0.21602  0.89091  0.64978  1.0000
  H   H1497     1.0  0.18404  0.95062  0.77895  1.0000
  H   H1498     1.0  0.18385  0.70178  0.61457  1.0000
  C   C864      1.0  0.21949  0.83434  0.71778  1.0000
  S   S201      1.0  0.24345  0.73810  0.88632  1.0000
  C   C865      1.0  0.19945  0.97374  0.63474  1.0000
  C   C866      1.0  0.23056  0.84139  0.74125  1.0000
  H   H1499     1.0  0.18452  0.83059  0.91803  1.0000
  C   C867      1.0  0.22311  0.92150  0.63828  1.0000
  H   H1500     1.0  0.16814  0.75911  0.97473  1.0000
  H   H1501     1.0  0.11469  0.82061  0.49476  1.0000
  H   H1502     1.0  0.22618  0.94923  0.65099  1.0000
  N   N45       1.0  0.16450  0.73259  0.48199  1.0000
  Fe  Fe92      1.0  0.23456  0.92018  0.53263  1.0000
  H   H1503     1.0  0.16058  0.98195  0.70972  1.0000
  H   H1504     1.0  0.11736  0.97854  0.68047  1.0000
  C   C868      1.0  0.20303  0.97034  0.88967  1.0000
  C   C869      1.0  0.16975  0.88124  0.59901  1.0000
  C   C870      1.0  0.06830  0.96152  0.71830  1.0000
  N   N46       1.0  0.11269  0.84544  0.50135  1.0000
  H   H1505     1.0  0.19702  0.91188  0.82298  1.0000
  H   H1506     1.0  0.21465  0.94115  0.84339  1.0000
  H   H1507     1.0  0.22372  0.81559  0.49836  1.0000
  C   C871      1.0  0.21587  0.82814  0.49297  1.0000
  C   C872      1.0  0.20303  0.89898  0.71422  1.0000
  H   H1508     1.0  0.18610  0.92081  0.88260  1.0000
  H   H1509     1.0  0.12453  0.88840  0.56457  1.0000
  H   H1510     1.0  0.22171  0.73430  0.92109  1.0000
  H   H1511     1.0  0.18980  0.89692  0.84211  1.0000
  H   H1512     1.0  0.22067  0.70398  0.49426  1.0000
  H   H1513     1.0  0.18033  0.87511  0.58944  1.0000
  H   H1514     1.0  0.18837  0.88416  0.90151  1.0000
  H   H1515     1.0  0.15299  0.86487  0.58376  1.0000
  H   H1516     1.0  0.22610  0.89102  0.81823  1.0000
  H   H1517     1.0  0.18994  0.95217  0.70430  1.0000
  H   H1518     1.0  0.10816  0.97455  0.73554  1.0000
  C   C873      1.0  0.23404  0.73658  0.85634  1.0000
  C   C874      1.0  0.23434  0.96254  0.56633  1.0000
  C   C875      1.0  0.24189  0.66327  0.62887  1.0000
  H   H1519     1.0  0.16465  0.92257  0.55588  1.0000
  H   H1520     1.0  0.14608  0.95886  0.77365  1.0000
  C   C876      1.0  0.23104  0.69056  0.55237  1.0000
  H   H1521     1.0  0.19893  0.73138  0.48861  1.0000
  H   H1522     1.0  0.23683  0.97585  0.76280  1.0000
  Fe  Fe93      1.0  0.21490  0.86631  0.94991  1.0000
  C   C877      1.0  0.19348  0.91168  0.87387  1.0000
  C   C878      1.0  0.16361  0.92636  0.56837  1.0000
  H   H1523     1.0  0.16149  0.87145  0.60528  1.0000
  C   C879      1.0  0.14382  0.87749  0.58103  1.0000
  H   H1524     1.0  0.16859  0.95186  0.55480  1.0000
  H   H1525     1.0  0.19696  0.91175  0.73588  1.0000
  C   C880      1.0  0.13492  0.87668  0.56682  1.0000
  C   C881      1.0  0.18251  0.67237  0.66375  1.0000
  C   C882      1.0  0.15617  0.95522  0.78177  1.0000
  H   H1526     1.0  0.20963  0.85944  0.91816  1.0000
  N   N47       1.0  0.24047  0.66273  0.89860  1.0000
  C   C883      1.0  0.15391  0.89259  0.57539  1.0000
  H   H1527     1.0  0.21292  0.66195  0.90759  1.0000
  S   S202      1.0  0.23401  0.72794  0.56797  1.0000
  H   H1528     1.0  0.24394  0.84542  0.56087  1.0000
  C   C884      1.0  0.12769  0.92230  0.62504  1.0000
  H   H1529     1.0  0.14776  0.78988  0.51776  1.0000
  C   C885      1.0  0.14305  0.90452  0.60196  1.0000
  H   H1530     1.0  0.13801  0.89365  0.61173  1.0000
  N   N48       1.0  0.15933  0.89748  0.58975  1.0000
  N   N49       1.0  0.19880  0.92169  0.85571  1.0000
  H   H1531     1.0  0.17669  0.94549  0.76203  1.0000
  H   H1532     1.0  0.17314  0.65471  0.62642  1.0000
  H   H1533     1.0  0.21232  0.67865  0.57245  1.0000
  C   C886      1.0  0.06648  0.85397  0.53147  1.0000
  H   H1534     1.0  0.21021  0.93699  0.92409  1.0000
  C   C887      1.0  0.22204  0.85424  0.77507  1.0000
  C   C888      1.0  0.17958  0.96908  0.66243  1.0000
  C   C889      1.0  0.24397  0.82311  0.89865  1.0000
  C   C890      1.0  0.19321  0.96284  0.73347  1.0000
  C   C891      1.0  0.22169  0.67132  0.90479  1.0000
  H   H1535     1.0  0.20002  0.80978  0.52497  1.0000
  H   H1536     1.0  0.13367  0.82986  0.48588  1.0000
  H   H1537     1.0  0.15548  0.94210  0.78986  1.0000
  H   H1538     1.0  0.22709  0.73373  0.83334  1.0000
  H   H1539     1.0  0.23383  0.69736  0.56077  1.0000
  H   H1540     1.0  0.20000  0.94938  0.73839  1.0000
  H   H1541     1.0  0.19683  0.70071  0.91389  1.0000
  H   H1542     1.0  0.22199  0.72369  0.62928  1.0000
  H   H1543     1.0  0.06866  0.95917  0.75057  1.0000
  H   H1544     1.0  0.12878  0.86512  0.57094  1.0000
  C   C892      1.0  0.09664  0.84232  0.51503  1.0000
  C   C893      1.0  0.23094  0.92117  0.65401  1.0000
  C   C894      1.0  0.19909  0.67206  0.67031  1.0000
  H   H1545     1.0  0.18523  0.77761  0.95107  1.0000
  C   C895      1.0  0.23349  0.84068  0.92060  1.0000
  C   C896      1.0  0.17637  0.71889  0.49256  1.0000
  H   H1546     1.0  0.19940  0.76940  0.90900  1.0000
  C   C897      1.0  0.21395  0.88690  0.82633  1.0000
  H   H1547     1.0  0.21735  0.84033  0.74931  1.0000
  H   H1548     1.0  0.15256  0.80114  0.49547  1.0000
  H   H1549     1.0  0.20120  0.70699  0.88149  1.0000
  Fe  Fe94      1.0  0.17926  0.87375  0.97323  1.0000
  H   H1550     1.0  0.07771  0.97810  0.74553  1.0000
  S   S203      1.0  0.21954  0.89300  0.94690  1.0000
  H   H1551     1.0  0.07998  0.86824  0.50844  1.0000
  H   H1552     1.0  0.21225  0.77187  0.87279  1.0000
  C   C898      1.0  0.23489  0.68068  0.66944  1.0000
  H   H1553     1.0  0.05859  0.95317  0.72478  1.0000
  C   C899      1.0  0.21916  0.84925  0.91282  1.0000
  H   H1554     1.0  0.13303  0.79211  0.50359  1.0000
  H   H1555     1.0  0.16459  0.66089  0.95199  1.0000
  H   H1556     1.0  0.16516  0.94215  0.82085  1.0000
  C   C900      1.0  0.23619  0.68302  0.52439  1.0000
  S   S204      1.0  0.23626  0.69549  0.60874  1.0000
  C   C901      1.0  0.12312  0.82803  0.49766  1.0000
  H   H1557     1.0  0.18915  0.68126  0.92572  1.0000
  H   H1558     1.0  0.21384  0.69523  0.64604  1.0000
  H   H1559     1.0  0.22944  0.93722  0.67217  1.0000
  H   H1560     1.0  0.15317  0.96462  0.79046  1.0000
  C   C902      1.0  0.21000  0.73010  0.63733  1.0000
  C   C903      1.0  0.22476  0.67141  0.53135  1.0000
  C   C904      1.0  0.20207  0.79284  0.85392  1.0000
  H   H1561     1.0  0.17981  0.96163  0.73317  1.0000
  H   H1562     1.0  0.14132  0.82149  0.51582  1.0000
  C   C905      1.0  0.21337  0.71913  0.85639  1.0000
  H   H1563     1.0  0.19014  0.79816  0.84831  1.0000
  H   H1564     1.0  0.21592  0.67505  0.69283  1.0000
  H   H1565     1.0  0.21327  0.78960  0.84331  1.0000
  H   H1566     1.0  0.21717  0.66278  0.87655  1.0000
  H   H1567     1.0  0.20016  0.94522  0.86278  1.0000
  H   H1568     1.0  0.17502  0.98148  0.76903  1.0000
  H   H1569     1.0  0.15917  0.86750  0.48083  1.0000
  S   S205      1.0  0.18111  0.90117  0.97240  1.0000
  C   C906      1.0  0.20777  0.96893  0.75437  1.0000
  H   H1570     1.0  0.22139  0.84461  0.52678  1.0000
  Fe  Fe95      1.0  0.12559  0.76464  0.96972  1.0000
  C   C907      1.0  0.11751  0.97074  0.69336  1.0000
  C   C908      1.0  0.23910  0.69282  0.53486  1.0000
  S   S206      1.0  0.22711  0.82512  0.87270  1.0000
  H   H1571     1.0  0.20935  0.95486  0.76032  1.0000
  H   H1572     1.0  0.20474  0.80289  0.85945  1.0000
  S   S207      1.0  0.20083  0.65619  0.55761  1.0000
  C   C909      1.0  0.22426  0.92732  0.86656  1.0000
  C   C910      1.0  0.23123  0.65719  0.87243  1.0000
  C   C911      1.0  0.18359  0.77233  0.48104  1.0000
  H   H1573     1.0  0.13152  0.70252  0.95816  1.0000
  H   H1574     1.0  0.03037  0.97589  0.73325  1.0000
  H   H1575     1.0  0.20440  0.76834  0.96071  1.0000
  H   H1576     1.0  0.22179  0.88077  0.77643  1.0000
  C   C912      1.0  0.17595  0.97353  0.75945  1.0000
  C   C913      1.0  0.11212  0.96850  0.72438  1.0000
  N   N50       1.0  0.19230  0.97471  0.74556  1.0000
  C   C914      1.0  0.22465  0.90171  0.72916  1.0000
  Fe  Fe96      1.0  0.15956  0.67055  0.85627  1.0000
  C   C915      1.0  0.22499  0.73020  0.84734  1.0000
  H   H1577     1.0  0.20601  0.85112  0.89212  1.0000
  H   H1578     1.0  0.21872  0.89883  0.85165  1.0000
  H   H1579     1.0  0.22442  0.93412  0.62921  1.0000
  C   C916      1.0  0.11166  0.97869  0.70779  1.0000
  H   H1580     1.0  0.22771  0.91034  0.66483  1.0000
  H   H1581     1.0  0.22257  0.97124  0.56300  1.0000
  H   H1582     1.0  0.21802  0.71704  0.89733  1.0000
  C   C917      1.0  0.21680  0.68577  0.68120  1.0000
  H   H1583     1.0  0.23551  0.66906  0.66446  1.0000
  H   H1584     1.0  0.23731  0.90116  0.90909  1.0000
  H   H1585     1.0  0.22812  0.95304  0.86635  1.0000
  H   H1586     1.0  0.15218  0.69834  0.70719  1.0000
  H   H1587     1.0  0.20951  0.93730  0.57855  1.0000
  C   C918      1.0  0.20141  0.90187  0.83394  1.0000
  C   C919      1.0  0.18532  0.65780  0.61744  1.0000
  C   C920      1.0  0.22720  0.96343  0.48996  1.0000
  H   H1588     1.0  0.08037  0.95598  0.72365  1.0000
  H   H1589     1.0  0.20683  0.87006  0.79361  1.0000
  S   S208      1.0  0.23183  0.94519  0.54209  1.0000
  H   H1590     1.0  0.23991  0.91290  0.79251  1.0000
  C   C921      1.0  0.21716  0.84459  0.89802  1.0000
  H   H1591     1.0  0.21289  0.81347  0.96377  1.0000
  H   H1592     1.0  0.12673  0.87562  0.52836  1.0000
  H   H1593     1.0  0.21591  0.85983  0.65536  1.0000
  H   H1594     1.0  0.22289  0.66371  0.52328  1.0000
  H   H1595     1.0  0.10669  0.87973  0.50787  1.0000
  C   C922      1.0  0.22531  0.83601  0.51723  1.0000
  H   H1596     1.0  0.21516  0.97049  0.71254  1.0000
  C   C923      1.0  0.20325  0.70139  0.65571  1.0000
  S   S209      1.0  0.15314  0.66219  0.83405  1.0000
  C   C924      1.0  0.17123  0.75959  0.48837  1.0000
  H   H1597     1.0  0.22115  0.96355  0.90694  1.0000
  C   C925      1.0  0.13632  0.68960  0.96581  1.0000
  H   H1598     1.0  0.23460  0.87904  0.91332  1.0000
  H   H1599     1.0  0.15785  0.76717  0.49225  1.0000
  H   H1600     1.0  0.21526  0.79093  0.97223  1.0000
  C   C926      1.0  0.03599  0.97507  0.74470  1.0000
  H   H1601     1.0  0.08265  0.96930  0.69199  1.0000
  C   C927      1.0  0.19624  0.71906  0.48740  1.0000
  H   H1602     1.0  0.18513  0.85083  0.49101  1.0000
  H   H1603     1.0  0.19333  0.70422  0.97108  1.0000
  C   C928      1.0  0.00656  0.97240  0.76479  1.0000
  H   H1604     1.0  0.23992  0.93640  0.71611  1.0000
  C   C929      1.0  0.23596  0.94041  0.86346  1.0000
  N   N51       1.0  0.23113  0.90655  0.62894  1.0000
  C   C930      1.0  0.23421  0.82961  0.72788  1.0000
  H   H1605     1.0  0.24388  0.88008  0.69613  1.0000
  H   H1606     1.0  0.22583  0.89779  0.60796  1.0000
  H   H1607     1.0  0.24019  0.86463  0.75308  1.0000
  H   H1608     1.0  0.21611  0.97348  0.48571  1.0000
  H   H1609     1.0  0.23987  0.77816  0.95109  1.0000
  C   C931      1.0  0.24176  0.94828  0.55813  1.0000
  H   H1610     1.0  0.16951  0.65452  0.65832  1.0000
  H   H1611     1.0  0.23523  0.81577  0.73440  1.0000
  H   H1612     1.0  0.19388  0.98020  0.70781  1.0000
  Fe  Fe97      1.0  0.10880  0.80205  0.97378  1.0000
  H   H1613     1.0  0.14974  0.68586  0.95850  1.0000
  H   H1614     1.0  0.23807  0.83817  0.50885  1.0000
  H   H1615     1.0  0.21105  0.94162  0.70962  1.0000
  C   C932      1.0  0.23683  0.89056  0.90297  1.0000
  C   C933      1.0  0.23029  0.85772  0.65044  1.0000
  C   C934      1.0  0.23506  0.87274  0.63573  1.0000
  H   H1616     1.0  0.16546  0.83500  0.48238  1.0000
  H   H1617     1.0  0.07765  0.95081  0.77931  1.0000
  H   H1618     1.0  0.24181  0.86689  0.85160  1.0000
  H   H1619     1.0  0.21086  0.65243  0.58909  1.0000
  H   H1620     1.0  0.23605  0.79876  0.79797  1.0000
  H   H1621     1.0  0.24273  0.68443  0.51090  1.0000
  H   H1622     1.0  0.08615  0.97046  0.77428  1.0000
  H   H1623     1.0  0.22196  0.95274  0.49978  1.0000
  H   H1624     1.0  0.99555  0.97891  0.77377  1.0000
  N   N52       1.0  0.24378  0.83741  0.75270  1.0000
  H   H1625     1.0  0.18592  0.82713  0.97690  1.0000
  H   H1626     1.0  0.24312  0.94257  0.84983  1.0000
  H   H1627     1.0  0.17186  0.69073  0.96500  1.0000
  C   C935      1.0  0.18265  0.75608  0.97225  1.0000
  H   H1628     1.0  0.23963  0.96136  0.81938  1.0000
  H   H1629     1.0  0.21970  0.65396  0.60641  1.0000
  C   C936      1.0  0.23955  0.95073  0.81373  1.0000
  H   H1630     1.0  0.08328  0.84897  0.48534  1.0000
  H   H1631     1.0  0.23456  0.84539  0.64562  1.0000
  H   H1632     1.0  0.17549  0.97781  0.91919  1.0000
  H   H1633     1.0  0.10129  0.86968  0.48585  1.0000
  H   H1634     1.0  0.10783  0.71670  0.97144  1.0000
  H   H1635     1.0  0.23435  0.96930  0.49629  1.0000
  H   H1636     1.0  0.23682  0.85649  0.66134  1.0000
  H   H1637     1.0  0.24290  0.68513  0.87762  1.0000
  H   H1638     1.0  0.23788  0.88830  0.65194  1.0000
  C   C937      1.0  0.17913  0.70986  0.97416  1.0000
  C   C938      1.0  0.23983  0.96695  0.75359  1.0000
  H   H1639     1.0  0.25019  0.99103  0.41145  1.0000
  C   C939      1.0  0.29080  0.21249  0.78072  1.0000
  Fe  Fe98      1.0  0.26752  0.99054  0.64508  1.0000
  Fe  Fe99      1.0  0.40814  0.28309  0.69693  1.0000
  S   S210      1.0  0.40608  0.27935  0.67128  1.0000
  S   S211      1.0  0.41691  0.25995  0.71661  1.0000
  Fe  Fe100     1.0  0.42314  0.29892  0.65995  1.0000
  S   S212      1.0  0.44840  0.29431  0.64095  1.0000
  C   C940      1.0  0.30085  0.21544  0.79301  1.0000
  S   S213      1.0  0.42689  0.30084  0.68555  1.0000
  H   H1640     1.0  0.34028  0.22761  0.82225  1.0000
  Fe  Fe101     1.0  0.38707  0.22637  0.80800  1.0000
  S   S214      1.0  0.37859  0.21779  0.83661  1.0000
  S   S215      1.0  0.37163  0.24920  0.79235  1.0000
  Fe  Fe102     1.0  0.42094  0.19962  0.80662  1.0000
  S   S216      1.0  0.41518  0.18867  0.83522  1.0000
  S   S217      1.0  0.44683  0.19073  0.78998  1.0000
  Fe  Fe103     1.0  0.38792  0.19078  0.83090  1.0000
  S   S218      1.0  0.37140  0.16998  0.84163  1.0000
  Fe  Fe104     1.0  0.40650  0.21661  0.83807  1.0000
  S   S219      1.0  0.41370  0.23327  0.85297  1.0000
  S   S220      1.0  0.39462  0.19964  0.80215  1.0000
  S   S221      1.0  0.41403  0.22712  0.80960  1.0000
  Fe  Fe105     1.0  0.28608  0.11441  0.80074  1.0000
  Fe  Fe106     1.0  0.32308  0.10995  0.78030  1.0000
  S   S222      1.0  0.32069  0.13793  0.76743  1.0000
  S   S223      1.0  0.34788  0.09074  0.77441  1.0000
  Fe  Fe107     1.0  0.30788  0.14272  0.79414  1.0000
  S   S224      1.0  0.31654  0.16478  0.80038  1.0000
  Fe  Fe108     1.0  0.29407  0.13644  0.76472  1.0000
  S   S225      1.0  0.31172  0.11452  0.80719  1.0000
  S   S226      1.0  0.29806  0.10779  0.77464  1.0000
  H   H1641     1.0  0.34141  0.98875  0.75781  1.0000
  C   C941      1.0  0.47554  0.16337  0.83346  1.0000
  H   H1642     1.0  0.30914  0.99370  0.75463  1.0000
  Fe  Fe109     1.0  0.38396  0.30256  0.67235  1.0000
  C   C942      1.0  0.40078  0.26485  0.88682  1.0000
  H   H1643     1.0  0.36219  0.15911  0.74112  1.0000
  C   C943      1.0  0.47292  0.06706  0.68493  1.0000
  S   S227      1.0  0.46700  0.22094  0.90241  1.0000
  H   H1644     1.0  0.47937  0.26817  0.63494  1.0000
  C   C944      1.0  0.27507  0.02001  0.75456  1.0000
  H   H1645     1.0  0.40627  0.24190  0.91411  1.0000
  C   C945      1.0  0.38928  0.13238  0.79383  1.0000
  H   H1646     1.0  0.41016  0.21464  0.93556  1.0000
  Fe  Fe110     1.0  0.34360  0.02418  0.73057  1.0000
  S   S228      1.0  0.35664  0.03751  0.70474  1.0000
  S   S229      1.0  0.32166  0.03680  0.74899  1.0000
  Fe  Fe111     1.0  0.35371  0.01482  0.69521  1.0000
  S   S230      1.0  0.34437  0.01881  0.67003  1.0000
  Fe  Fe112     1.0  0.38152  0.02086  0.71218  1.0000
  S   S231      1.0  0.40680  0.03133  0.70687  1.0000
  H   H1647     1.0  0.32149  0.22133  0.77100  1.0000
  H   H1648     1.0  0.26661  0.03961  0.73312  1.0000
  C   C946      1.0  0.24626  0.07476  0.82490  1.0000
  C   C947      1.0  0.41433  0.99767  0.78478  1.0000
  N   N53       1.0  0.47788  0.23446  0.70139  1.0000
  H   H1649     1.0  0.41764  0.12431  0.78573  1.0000
  H   H1650     1.0  0.27129  0.05702  0.78370  1.0000
  N   N54       1.0  0.41207  0.01188  0.76902  1.0000
  S   S232      1.0  0.24456  0.03763  0.79991  1.0000
  S   S233      1.0  0.27575  0.99780  0.61609  1.0000
  C   C948      1.0  0.25994  0.08248  0.81388  1.0000
  Fe  Fe113     1.0  0.44587  0.09706  0.73933  1.0000
  S   S234      1.0  0.44937  0.11683  0.71458  1.0000
  S   S235      1.0  0.42358  0.08218  0.74656  1.0000
  Fe  Fe114     1.0  0.45158  0.13428  0.73102  1.0000
  S   S236      1.0  0.43680  0.16188  0.72873  1.0000
  S   S237      1.0  0.44593  0.11543  0.75603  1.0000
  C   C949      1.0  0.47830  0.29619  0.75063  1.0000
  C   C950      1.0  0.41194  0.15103  0.78761  1.0000
  C   C951      1.0  0.41114  0.04598  0.71756  1.0000
  C   C952      1.0  0.42807  0.04953  0.71387  1.0000
  C   C953      1.0  0.43208  0.06082  0.72235  1.0000
  C   C954      1.0  0.41917  0.06870  0.73464  1.0000
  C   C955      1.0  0.40230  0.06513  0.73832  1.0000
  C   C956      1.0  0.39829  0.05387  0.72984  1.0000
  H   H1651     1.0  0.43820  0.04329  0.70458  1.0000
  H   H1652     1.0  0.44521  0.06314  0.71967  1.0000
  H   H1653     1.0  0.39233  0.07104  0.74796  1.0000
  H   H1654     1.0  0.38530  0.05112  0.73290  1.0000
  C   C957      1.0  0.32792  0.00832  0.66904  1.0000
  H   H1655     1.0  0.25377  0.10228  0.61011  1.0000
  C   C958      1.0  0.47879  0.25341  0.69499  1.0000
  S   S238      1.0  0.48081  0.12664  0.72793  1.0000
  C   C959      1.0  0.47869  0.24444  0.55720  1.0000
  C   C960      1.0  0.42416  0.10553  0.67993  1.0000
  C   C961      1.0  0.47224  0.08040  0.66757  1.0000
  H   H1656     1.0  0.42327  0.27442  0.88588  1.0000
  H   H1657     1.0  0.46176  0.21970  0.72262  1.0000
  H   H1658     1.0  0.46340  0.05855  0.68781  1.0000
  H   H1659     1.0  0.29123  0.22282  0.76882  1.0000
  H   H1660     1.0  0.38811  0.26252  0.89502  1.0000
  N   N55       1.0  0.38224  0.11906  0.78907  1.0000
  C   C962      1.0  0.35018  0.21544  0.78654  1.0000
  H   H1661     1.0  0.33839  0.31540  0.74629  1.0000
  C   C963      1.0  0.36380  0.11169  0.82009  1.0000
  C   C964      1.0  0.46053  0.29231  0.86978  1.0000
  H   H1662     1.0  0.46313  0.28019  0.87877  1.0000
  C   C965      1.0  0.34168  0.07398  0.76899  1.0000
  C   C966      1.0  0.35185  0.06662  0.75502  1.0000
  C   C967      1.0  0.34593  0.05476  0.74919  1.0000
  C   C968      1.0  0.32971  0.05036  0.75728  1.0000
  C   C969      1.0  0.31972  0.05733  0.77158  1.0000
  C   C970      1.0  0.32577  0.06907  0.77750  1.0000
  H   H1663     1.0  0.36381  0.07087  0.74815  1.0000
  H   H1664     1.0  0.35361  0.04951  0.73805  1.0000
  H   H1665     1.0  0.30722  0.05384  0.77797  1.0000
  H   H1666     1.0  0.31798  0.07449  0.78854  1.0000
  H   H1667     1.0  0.39846  0.99603  0.76139  1.0000
  H   H1668     1.0  0.44345  0.29264  0.92910  1.0000
  H   H1669     1.0  0.34215  0.09829  0.82573  1.0000
  C   C971      1.0  0.35781  0.16591  0.82956  1.0000
  C   C972      1.0  0.34324  0.15849  0.83840  1.0000
  C   C973      1.0  0.33121  0.15670  0.82936  1.0000
  C   C974      1.0  0.33386  0.16180  0.81129  1.0000
  C   C975      1.0  0.34900  0.16820  0.80235  1.0000
  C   C976      1.0  0.36089  0.17030  0.81143  1.0000
  H   H1670     1.0  0.34076  0.15493  0.85241  1.0000
  H   H1671     1.0  0.31940  0.15213  0.83648  1.0000
  H   H1672     1.0  0.35114  0.17225  0.78840  1.0000
  H   H1673     1.0  0.37228  0.17559  0.80442  1.0000
  C   C977      1.0  0.44441  0.18363  0.77222  1.0000
  C   C978      1.0  0.45702  0.17015  0.76595  1.0000
  C   C979      1.0  0.45470  0.16352  0.75255  1.0000
  C   C980      1.0  0.44006  0.17073  0.74496  1.0000
  C   C981      1.0  0.42779  0.18472  0.75072  1.0000
  C   C982      1.0  0.42986  0.19104  0.76449  1.0000
  H   H1674     1.0  0.46833  0.16444  0.77177  1.0000
  H   H1675     1.0  0.46420  0.15274  0.74821  1.0000
  H   H1676     1.0  0.41646  0.19034  0.74490  1.0000
  H   H1677     1.0  0.42027  0.20167  0.76906  1.0000
  C   C983      1.0  0.43108  0.22825  0.86422  1.0000
  C   C984      1.0  0.43433  0.21253  0.87593  1.0000
  C   C985      1.0  0.44598  0.21018  0.88706  1.0000
  C   C986      1.0  0.45469  0.22338  0.88640  1.0000
  C   C987      1.0  0.45190  0.23888  0.87426  1.0000
  C   C988      1.0  0.43997  0.24136  0.86343  1.0000
  H   H1678     1.0  0.42724  0.20251  0.87702  1.0000
  H   H1679     1.0  0.44790  0.19824  0.89655  1.0000
  H   H1680     1.0  0.45821  0.24929  0.87385  1.0000
  H   H1681     1.0  0.43705  0.25381  0.85495  1.0000
  H   H1682     1.0  0.45015  0.21825  0.82287  1.0000
  C   C989      1.0  0.40398  0.25756  0.73748  1.0000
  C   C990      1.0  0.38858  0.26951  0.74184  1.0000
  C   C991      1.0  0.37844  0.26696  0.75872  1.0000
  C   C992      1.0  0.38399  0.25266  0.77124  1.0000
  C   C993      1.0  0.39950  0.24094  0.76685  1.0000
  C   C994      1.0  0.40930  0.24320  0.74994  1.0000
  H   H1683     1.0  0.38462  0.28076  0.73230  1.0000
  H   H1684     1.0  0.36658  0.27621  0.76217  1.0000
  H   H1685     1.0  0.40391  0.22993  0.77641  1.0000
  H   H1686     1.0  0.42106  0.23379  0.74656  1.0000
  C   C995      1.0  0.45175  0.27425  0.63509  1.0000
  C   C996      1.0  0.43784  0.26881  0.63207  1.0000
  C   C997      1.0  0.44094  0.25361  0.62563  1.0000
  C   C998      1.0  0.45787  0.24362  0.62261  1.0000
  C   C999      1.0  0.47159  0.24860  0.62653  1.0000
  C   C1000     1.0  0.46861  0.26406  0.63248  1.0000
  H   H1687     1.0  0.42482  0.27674  0.63393  1.0000
  H   H1688     1.0  0.43027  0.24975  0.62271  1.0000
  H   H1689     1.0  0.46646  0.30795  0.80115  1.0000
  H   H1690     1.0  0.32482  0.28352  0.81219  1.0000
  Fe  Fe115     1.0  0.36449  0.98865  0.72648  1.0000
  C   C1001     1.0  0.41034  0.27424  0.89491  1.0000
  C   C1002     1.0  0.38832  0.08602  0.78999  1.0000
  C   C1003     1.0  0.26895  0.07591  0.79904  1.0000
  C   C1004     1.0  0.26416  0.06206  0.79512  1.0000
  H   H1691     1.0  0.27970  0.08135  0.79061  1.0000
  H   H1692     1.0  0.26477  0.00221  0.79513  1.0000
  N   N56       1.0  0.41298  0.26647  0.91326  1.0000
  S   S239      1.0  0.28075  0.14338  0.79052  1.0000
  N   N57       1.0  0.31046  0.10101  0.71403  1.0000
  C   C1005     1.0  0.32046  0.11232  0.71826  1.0000
  C   C1006     1.0  0.29665  0.11209  0.70403  1.0000
  C   C1007     1.0  0.30138  0.09150  0.73105  1.0000
  C   C1008     1.0  0.32234  0.08768  0.70409  1.0000
  C   C1009     1.0  0.33379  0.09485  0.68669  1.0000
  C   C1010     1.0  0.33448  0.10285  0.72924  1.0000
  C   C1011     1.0  0.28820  0.08097  0.72985  1.0000
  C   C1012     1.0  0.30061  0.12944  0.69204  1.0000
  C   C1013     1.0  0.43346  0.02898  0.77327  1.0000
  C   C1014     1.0  0.34659  0.08019  0.67878  1.0000
  C   C1015     1.0  0.34624  0.11492  0.72934  1.0000
  C   C1016     1.0  0.27966  0.07231  0.74784  1.0000
  H   H1693     1.0  0.31116  0.12204  0.72547  1.0000
  H   H1694     1.0  0.32713  0.12010  0.70641  1.0000
  H   H1695     1.0  0.29320  0.10443  0.69625  1.0000
  H   H1696     1.0  0.28429  0.11604  0.71313  1.0000
  H   H1697     1.0  0.29411  0.10088  0.73960  1.0000
  H   H1698     1.0  0.31109  0.08218  0.73824  1.0000
  H   H1699     1.0  0.33088  0.07790  0.71228  1.0000
  H   H1700     1.0  0.31452  0.07998  0.70076  1.0000
  H   H1701     1.0  0.34167  0.10350  0.68830  1.0000
  H   H1702     1.0  0.32536  0.10200  0.67723  1.0000
  H   H1703     1.0  0.32798  0.09846  0.74284  1.0000
  H   H1704     1.0  0.34309  0.09152  0.72420  1.0000
  H   H1705     1.0  0.29487  0.07052  0.72258  1.0000
  H   H1706     1.0  0.27754  0.08937  0.72343  1.0000
  H   H1707     1.0  0.29927  0.13906  0.70015  1.0000
  H   H1708     1.0  0.31398  0.12793  0.68401  1.0000
  H   H1709     1.0  0.39357  0.12181  0.76154  1.0000
  C   C1017     1.0  0.37525  0.21347  0.76057  1.0000
  H   H1710     1.0  0.28940  0.15059  0.67325  1.0000
  H   H1711     1.0  0.33962  0.07051  0.67751  1.0000
  H   H1712     1.0  0.35361  0.08555  0.66568  1.0000
  H   H1713     1.0  0.35646  0.07366  0.68695  1.0000
  H   H1714     1.0  0.33828  0.12658  0.73431  1.0000
  H   H1715     1.0  0.35573  0.10804  0.73783  1.0000
  H   H1716     1.0  0.35373  0.11901  0.71607  1.0000
  H   H1717     1.0  0.26921  0.06618  0.74681  1.0000
  H   H1718     1.0  0.28947  0.06213  0.75403  1.0000
  H   H1719     1.0  0.27377  0.08192  0.75631  1.0000
  N   N58       1.0  0.43825  0.27168  0.80235  1.0000
  C   C1018     1.0  0.44302  0.25408  0.81346  1.0000
  C   C1019     1.0  0.42392  0.28261  0.81330  1.0000
  C   C1020     1.0  0.43242  0.26973  0.78684  1.0000
  C   C1021     1.0  0.45378  0.28039  0.79588  1.0000
  C   C1022     1.0  0.45760  0.24088  0.80443  1.0000
  C   C1023     1.0  0.42491  0.28692  0.77522  1.0000
  C   C1024     1.0  0.40550  0.27797  0.81793  1.0000
  C   C1025     1.0  0.39156  0.29253  0.82495  1.0000
  C   C1026     1.0  0.33728  0.98567  0.77211  1.0000
  C   C1027     1.0  0.32054  0.21436  0.78467  1.0000
  H   H1720     1.0  0.43134  0.24811  0.81864  1.0000
  H   H1721     1.0  0.44700  0.25523  0.82518  1.0000
  H   H1722     1.0  0.42736  0.28169  0.82595  1.0000
  H   H1723     1.0  0.42264  0.29658  0.80717  1.0000
  H   H1724     1.0  0.42280  0.26103  0.79088  1.0000
  H   H1725     1.0  0.44355  0.26303  0.77808  1.0000
  H   H1726     1.0  0.46360  0.27417  0.78580  1.0000
  H   H1727     1.0  0.44961  0.29388  0.78910  1.0000
  H   H1728     1.0  0.45328  0.23761  0.79392  1.0000
  H   H1729     1.0  0.33624  0.99734  0.77735  1.0000
  H   H1730     1.0  0.41530  0.29604  0.78275  1.0000
  H   H1731     1.0  0.40138  0.27602  0.80669  1.0000
  H   H1732     1.0  0.40534  0.26590  0.82799  1.0000
  H   H1733     1.0  0.39528  0.29607  0.83566  1.0000
  H   H1734     1.0  0.38996  0.30424  0.81447  1.0000
  H   H1735     1.0  0.37884  0.28827  0.82986  1.0000
  H   H1736     1.0  0.43497  0.28463  0.59626  1.0000
  H   H1737     1.0  0.45448  0.28409  0.82183  1.0000
  C   C1028     1.0  0.32764  0.21152  0.81281  1.0000
  C   C1029     1.0  0.33934  0.21383  0.82426  1.0000
  C   C1030     1.0  0.33220  0.20752  0.84350  1.0000
  H   H1738     1.0  0.32614  0.20047  0.78394  1.0000
  H   H1739     1.0  0.35392  0.20111  0.78852  1.0000
  H   H1740     1.0  0.32916  0.19734  0.81383  1.0000
  H   H1741     1.0  0.31385  0.21591  0.81923  1.0000
  H   H1742     1.0  0.35271  0.20599  0.82110  1.0000
  H   H1743     1.0  0.42325  0.04049  0.77601  1.0000
  H   H1744     1.0  0.38051  0.22030  0.74739  1.0000
  H   H1745     1.0  0.45366  0.04244  0.77303  1.0000
  H   H1746     1.0  0.34138  0.20833  0.85129  1.0000
  H   H1747     1.0  0.31926  0.21563  0.84778  1.0000
  H   H1748     1.0  0.33090  0.19377  0.84605  1.0000
  H   H1749     1.0  0.47218  0.26823  0.81335  1.0000
  H   H1750     1.0  0.37532  0.19990  0.76012  1.0000
  C   C1031     1.0  0.28791  0.13713  0.67967  1.0000
  H   H1751     1.0  0.38246  0.14378  0.73672  1.0000
  H   H1752     1.0  0.33548  0.28992  0.82609  1.0000
  C   C1032     1.0  0.42877  0.27202  0.91537  1.0000
  H   H1753     1.0  0.42622  0.21069  0.94879  1.0000
  H   H1754     1.0  0.41648  0.29924  0.91771  1.0000
  C   C1033     1.0  0.24546  0.06187  0.61640  1.0000
  C   C1034     1.0  0.41179  0.10446  0.69766  1.0000
  C   C1035     1.0  0.41558  0.28337  0.76269  1.0000
  C   C1036     1.0  0.25103  0.07735  0.60785  1.0000
  H   H1755     1.0  0.44093  0.26565  0.90734  1.0000
  C   C1037     1.0  0.33987  0.30374  0.79912  1.0000
  C   C1038     1.0  0.33678  0.28753  0.81291  1.0000
  H   H1756     1.0  0.37754  0.00900  0.78443  1.0000
  H   H1757     1.0  0.25324  0.15184  0.62818  1.0000
  H   H1758     1.0  0.45320  0.27264  0.72450  1.0000
  H   H1759     1.0  0.34810  0.27670  0.81075  1.0000
  S   S240      1.0  0.42886  0.31285  0.83538  1.0000
  C   C1039     1.0  0.25034  0.05458  0.80594  1.0000
  C   C1040     1.0  0.49174  0.31692  0.92274  1.0000
  H   H1760     1.0  0.48365  0.27690  0.54268  1.0000
  C   C1041     1.0  0.39751  0.27529  0.86910  1.0000
  H   H1761     1.0  0.37416  0.27322  0.91721  1.0000
  H   H1762     1.0  0.40630  0.99509  0.72519  1.0000
  C   C1042     1.0  0.25099  0.03568  0.69080  1.0000
  C   C1043     1.0  0.47083  0.12604  0.62510  1.0000
  H   H1763     1.0  0.47290  0.13470  0.63269  1.0000
  S   S241      1.0  0.33855  0.00318  0.72065  1.0000
  H   H1764     1.0  0.40276  0.16333  0.78376  1.0000
  H   H1765     1.0  0.45063  0.05469  0.66928  1.0000
  H   H1766     1.0  0.40322  0.27918  0.76996  1.0000
  C   C1044     1.0  0.44195  0.29542  0.58968  1.0000
  H   H1767     1.0  0.36410  0.28625  0.94339  1.0000
  C   C1045     1.0  0.39747  0.27319  0.92638  1.0000
  H   H1768     1.0  0.30747  0.00690  0.76938  1.0000
  H   H1769     1.0  0.27322  0.11088  0.66916  1.0000
  H   H1770     1.0  0.46136  0.26289  0.58535  1.0000
  H   H1771     1.0  0.25659  0.04539  0.66332  1.0000
  H   H1772     1.0  0.46352  0.31489  0.67768  1.0000
  H   H1773     1.0  0.34136  0.30032  0.78638  1.0000
  C   C1046     1.0  0.46872  0.30583  0.86904  1.0000
  H   H1774     1.0  0.47808  0.30417  0.55139  1.0000
  H   H1775     1.0  0.48567  0.25341  0.66675  1.0000
  N   N59       1.0  0.27681  0.05079  0.67322  1.0000
  C   C1047     1.0  0.29002  0.05083  0.65638  1.0000
  C   C1048     1.0  0.28615  0.04249  0.68808  1.0000
  S   S242      1.0  0.46172  0.22547  0.61317  1.0000
  C   C1049     1.0  0.26642  0.06867  0.67527  1.0000
  C   C1050     1.0  0.27603  0.08412  0.66743  1.0000
  C   C1051     1.0  0.28235  0.05600  0.63972  1.0000
  H   H1776     1.0  0.46073  0.11596  0.66056  1.0000
  C   C1052     1.0  0.29985  0.05174  0.69019  1.0000
  C   C1053     1.0  0.30923  0.04107  0.70469  1.0000
  C   C1054     1.0  0.26700  0.09966  0.67597  1.0000
  C   C1055     1.0  0.29650  0.05898  0.62344  1.0000
  H   H1777     1.0  0.44928  0.28814  0.73812  1.0000
  H   H1778     1.0  0.29829  0.03771  0.65637  1.0000
  H   H1779     1.0  0.29938  0.05925  0.65489  1.0000
  H   H1780     1.0  0.27668  0.04182  0.70062  1.0000
  H   H1781     1.0  0.29265  0.02884  0.68709  1.0000
  H   H1782     1.0  0.27188  0.02661  0.67052  1.0000
  H   H1783     1.0  0.48970  0.30336  0.92573  1.0000
  H   H1784     1.0  0.44887  0.10024  0.68802  1.0000
  H   H1785     1.0  0.26092  0.06878  0.68926  1.0000
  H   H1786     1.0  0.27602  0.08827  0.65333  1.0000
  H   H1787     1.0  0.28982  0.08098  0.66874  1.0000
  H   H1788     1.0  0.27639  0.04549  0.63859  1.0000
  H   H1789     1.0  0.27223  0.06799  0.63989  1.0000
  C   C1056     1.0  0.47071  0.10775  0.63600  1.0000
  H   H1790     1.0  0.28797  0.02370  0.75198  1.0000
  H   H1791     1.0  0.31000  0.05365  0.67823  1.0000
  H   H1792     1.0  0.29330  0.06438  0.69389  1.0000
  H   H1793     1.0  0.31614  0.02832  0.70149  1.0000
  H   H1794     1.0  0.31898  0.04787  0.70606  1.0000
  H   H1795     1.0  0.29991  0.03910  0.71729  1.0000
  H   H1796     1.0  0.30132  0.99913  0.80260  1.0000
  H   H1797     1.0  0.42623  0.04643  0.66256  1.0000
  H   H1798     1.0  0.42882  0.29687  0.89644  1.0000
  H   H1799     1.0  0.30238  0.06999  0.62333  1.0000
  H   H1800     1.0  0.30689  0.04709  0.62277  1.0000
  H   H1801     1.0  0.29060  0.06210  0.61178  1.0000
  H   H1802     1.0  0.44606  0.24604  0.74841  1.0000
  Fe  Fe116     1.0  0.47517  0.10659  0.75197  1.0000
  H   H1803     1.0  0.46719  0.19844  0.85398  1.0000
  C   C1057     1.0  0.44403  0.29604  0.91489  1.0000
  H   H1804     1.0  0.37335  0.11502  0.76769  1.0000
  H   H1805     1.0  0.34537  0.10501  0.84400  1.0000
  H   H1806     1.0  0.32926  0.24884  0.76470  1.0000
  H   H1807     1.0  0.35774  0.11002  0.79591  1.0000
  C   C1058     1.0  0.47487  0.29477  0.80312  1.0000
  H   H1808     1.0  0.30503  0.00536  0.63997  1.0000
  H   H1809     1.0  0.46535  0.26153  0.69579  1.0000
  C   C1059     1.0  0.46526  0.23278  0.71874  1.0000
  H   H1810     1.0  0.29926  0.20514  0.80490  1.0000
  H   H1811     1.0  0.35467  0.26775  0.94547  1.0000
  N   N60       1.0  0.33094  0.22073  0.79400  1.0000
  H   H1812     1.0  0.44433  0.11576  0.64950  1.0000
  H   H1813     1.0  0.47012  0.21380  0.69471  1.0000
  N   N61       1.0  0.36151  0.24527  0.70466  1.0000
  C   C1060     1.0  0.34458  0.23981  0.70598  1.0000
  C   C1061     1.0  0.36618  0.25616  0.68678  1.0000
  C   C1062     1.0  0.37546  0.22921  0.70778  1.0000
  C   C1063     1.0  0.35975  0.25607  0.71788  1.0000
  C   C1064     1.0  0.34394  0.27157  0.71839  1.0000
  C   C1065     1.0  0.33655  0.23003  0.72411  1.0000
  C   C1066     1.0  0.39386  0.23243  0.70679  1.0000
  C   C1067     1.0  0.37283  0.24628  0.67158  1.0000
  C   C1068     1.0  0.37490  0.25888  0.65408  1.0000
  C   C1069     1.0  0.34419  0.28261  0.73094  1.0000
  C   C1070     1.0  0.31865  0.22677  0.72426  1.0000
  C   C1071     1.0  0.40750  0.21552  0.70745  1.0000
  H   H1814     1.0  0.34641  0.23108  0.69682  1.0000
  H   H1815     1.0  0.33451  0.25123  0.70174  1.0000
  H   H1816     1.0  0.35468  0.26633  0.68363  1.0000
  H   H1817     1.0  0.37623  0.26353  0.68631  1.0000
  H   H1818     1.0  0.37650  0.22053  0.69877  1.0000
  H   H1819     1.0  0.37183  0.22134  0.72092  1.0000
  H   H1820     1.0  0.35915  0.24788  0.73114  1.0000
  H   H1821     1.0  0.37169  0.26162  0.71538  1.0000
  H   H1822     1.0  0.33135  0.26707  0.72256  1.0000
  H   H1823     1.0  0.34418  0.28011  0.70545  1.0000
  H   H1824     1.0  0.34502  0.21718  0.72770  1.0000
  H   H1825     1.0  0.33473  0.23748  0.73432  1.0000
  H   H1826     1.0  0.39362  0.23780  0.71812  1.0000
  H   H1827     1.0  0.39826  0.24165  0.69482  1.0000
  H   H1828     1.0  0.38582  0.23775  0.67247  1.0000
  H   H1829     1.0  0.36362  0.23820  0.67157  1.0000
  H   H1830     1.0  0.36213  0.26746  0.65219  1.0000
  H   H1831     1.0  0.38437  0.26705  0.65322  1.0000
  H   H1832     1.0  0.37986  0.25150  0.64345  1.0000
  H   H1833     1.0  0.34500  0.27450  0.74401  1.0000
  H   H1834     1.0  0.35548  0.28921  0.72613  1.0000
  H   H1835     1.0  0.33204  0.29276  0.73192  1.0000
  H   H1836     1.0  0.30931  0.23926  0.72145  1.0000
  H   H1837     1.0  0.31971  0.21896  0.71447  1.0000
  H   H1838     1.0  0.31335  0.21948  0.73724  1.0000
  H   H1839     1.0  0.40350  0.20570  0.71909  1.0000
  H   H1840     1.0  0.40936  0.21024  0.69563  1.0000
  H   H1841     1.0  0.42022  0.21800  0.70816  1.0000
  H   H1842     1.0  0.49325  0.13536  0.84971  1.0000
  C   C1072     1.0  0.27896  0.00255  0.79050  1.0000
  S   S243      1.0  0.24890  0.04560  0.60438  1.0000
  C   C1073     1.0  0.25126  0.11493  0.74809  1.0000
  H   H1843     1.0  0.37212  0.26555  0.95650  1.0000
  C   C1074     1.0  0.36434  0.11814  0.80033  1.0000
  H   H1844     1.0  0.26570  0.02763  0.76383  1.0000
  H   H1845     1.0  0.33121  0.27358  0.77665  1.0000
  C   C1075     1.0  0.46645  0.14460  0.81244  1.0000
  C   C1076     1.0  0.46349  0.13187  0.80296  1.0000
  H   H1846     1.0  0.25763  0.02676  0.70103  1.0000
  C   C1077     1.0  0.38049  0.12387  0.77032  1.0000
  H   H1847     1.0  0.46783  0.15551  0.84464  1.0000
  H   H1848     1.0  0.46621  0.17041  0.82486  1.0000
  C   C1078     1.0  0.48436  0.13855  0.81819  1.0000
  C   C1079     1.0  0.44451  0.31043  0.84786  1.0000
  C   C1080     1.0  0.42838  0.29188  0.91053  1.0000
  H   H1849     1.0  0.29479  0.22820  0.79666  1.0000
  N   N62       1.0  0.49077  0.15148  0.82447  1.0000
  S   S244      1.0  0.47459  0.08625  0.73777  1.0000
  C   C1081     1.0  0.42126  0.23704  0.93399  1.0000
  H   H1850     1.0  0.44889  0.04470  0.75206  1.0000
  H   H1851     1.0  0.45567  0.14552  0.82399  1.0000
  H   H1852     1.0  0.47366  0.22220  0.55047  1.0000
  H   H1853     1.0  0.42846  0.00751  0.73223  1.0000
  H   H1854     1.0  0.26436  0.00620  0.82474  1.0000
  H   H1855     1.0  0.47319  0.13156  0.79058  1.0000
  S   S245      1.0  0.37986  0.99897  0.70030  1.0000
  H   H1856     1.0  0.47926  0.07365  0.65670  1.0000
  H   H1857     1.0  0.25304  0.10348  0.67508  1.0000
  H   H1858     1.0  0.29643  0.19962  0.77709  1.0000
  C   C1082     1.0  0.46356  0.28101  0.80983  1.0000
  C   C1083     1.0  0.35669  0.22290  0.76715  1.0000
  H   H1859     1.0  0.46460  0.11859  0.81109  1.0000
  H   H1860     1.0  0.37972  0.14486  0.79328  1.0000
  C   C1084     1.0  0.44673  0.08164  0.65487  1.0000
  H   H1861     1.0  0.48753  0.31467  0.68981  1.0000
  C   C1085     1.0  0.44752  0.22975  0.67267  1.0000
  H   H1862     1.0  0.28195  0.99369  0.75079  1.0000
  H   H1863     1.0  0.31373  0.27908  0.76483  1.0000
  H   H1864     1.0  0.40897  0.09120  0.70257  1.0000
  C   C1086     1.0  0.43974  0.06519  0.66544  1.0000
  H   H1865     1.0  0.41005  0.27743  0.86018  1.0000
  C   C1087     1.0  0.36926  0.14565  0.74523  1.0000
  C   C1088     1.0  0.49216  0.27743  0.55130  1.0000
  C   C1089     1.0  0.26030  0.14335  0.72290  1.0000
  C   C1090     1.0  0.42267  0.99710  0.74198  1.0000
  H   H1866     1.0  0.43064  0.26765  0.92900  1.0000
  H   H1867     1.0  0.35732  0.14520  0.77197  1.0000
  H   H1868     1.0  0.37304  0.09922  0.82294  1.0000
  H   H1869     1.0  0.41660  0.00288  0.79525  1.0000
  H   H1870     1.0  0.27851  0.02163  0.81496  1.0000
  C   C1091     1.0  0.26215  0.12453  0.75085  1.0000
  H   H1871     1.0  0.27968  0.01649  0.78565  1.0000
  C   C1092     1.0  0.44853  0.29459  0.85918  1.0000
  H   H1872     1.0  0.36182  0.13654  0.74366  1.0000
  S   S246      1.0  0.48315  0.25755  0.91641  1.0000
  H   H1873     1.0  0.45936  0.17852  0.86312  1.0000
  H   H1874     1.0  0.45640  0.28874  0.90833  1.0000
  H   H1875     1.0  0.40745  0.13910  0.76884  1.0000
  H   H1876     1.0  0.45023  0.13612  0.79985  1.0000
  H   H1877     1.0  0.31480  0.24312  0.80421  1.0000
  H   H1878     1.0  0.35559  0.13114  0.79890  1.0000
  H   H1879     1.0  0.41441  0.06996  0.78506  1.0000
  C   C1093     1.0  0.45255  0.31716  0.71130  1.0000
  S   S247      1.0  0.28339  0.14847  0.74019  1.0000
  H   H1880     1.0  0.34840  0.22155  0.75883  1.0000
  H   H1881     1.0  0.27806  0.01901  0.72745  1.0000
  H   H1882     1.0  0.44409  0.31011  0.91030  1.0000
  S   S248      1.0  0.26547  0.10012  0.81913  1.0000
  C   C1094     1.0  0.37076  0.14264  0.76415  1.0000
  C   C1095     1.0  0.26727  0.13836  0.73802  1.0000
  C   C1096     1.0  0.24896  0.09058  0.61681  1.0000
  H   H1883     1.0  0.27692  0.21268  0.78729  1.0000
  H   H1884     1.0  0.44238  0.28404  0.85969  1.0000
  H   H1885     1.0  0.38410  0.21323  0.76909  1.0000
  H   H1886     1.0  0.47904  0.16289  0.69116  1.0000
  H   H1887     1.0  0.45799  0.31455  0.76289  1.0000
  H   H1888     1.0  0.26792  0.09657  0.68985  1.0000
  H   H1889     1.0  0.25733  0.07895  0.59429  1.0000
  H   H1890     1.0  0.37786  0.15234  0.76506  1.0000
  H   H1891     1.0  0.35707  0.23680  0.76545  1.0000
  H   H1892     1.0  0.40891  0.25205  0.88484  1.0000
  C   C1097     1.0  0.27819  0.00767  0.82024  1.0000
  H   H1893     1.0  0.35829  0.21933  0.79353  1.0000
  C   C1098     1.0  0.40726  0.13589  0.78296  1.0000
  H   H1894     1.0  0.39855  0.09899  0.80458  1.0000
  H   H1895     1.0  0.37578  0.08438  0.79908  1.0000
  H   H1896     1.0  0.26671  0.12104  0.76288  1.0000
  C   C1099     1.0  0.39476  0.10184  0.79176  1.0000
  C   C1100     1.0  0.32583  0.24006  0.79332  1.0000
  C   C1101     1.0  0.45040  0.03549  0.76449  1.0000
  H   H1897     1.0  0.39979  0.01634  0.74704  1.0000
  C   C1102     1.0  0.26441  0.03941  0.67358  1.0000
  H   H1898     1.0  0.44263  0.23679  0.69726  1.0000
  C   C1103     1.0  0.34561  0.10883  0.82986  1.0000
  H   H1899     1.0  0.33678  0.24479  0.79547  1.0000
  H   H1900     1.0  0.46974  0.24604  0.79890  1.0000
  H   H1901     1.0  0.46244  0.23662  0.76145  1.0000
  C   C1104     1.0  0.47172  0.23550  0.73421  1.0000
  H   H1902     1.0  0.39674  0.05828  0.79221  1.0000
  H   H1903     1.0  0.30873  0.27463  0.78820  1.0000
  C   C1105     1.0  0.46200  0.22395  0.81723  1.0000
  H   H1904     1.0  0.44615  0.21612  0.67842  1.0000
  H   H1905     1.0  0.46559  0.28391  0.59914  1.0000
  C   C1106     1.0  0.40156  0.06923  0.79398  1.0000
  C   C1107     1.0  0.26844  0.02531  0.73758  1.0000
  H   H1906     1.0  0.45272  0.24221  0.71785  1.0000
  H   H1907     1.0  0.45303  0.25142  0.67935  1.0000
  Fe  Fe117     1.0  0.47807  0.10721  0.71395  1.0000
  C   C1108     1.0  0.45287  0.23757  0.68531  1.0000
  H   H1908     1.0  0.40343  0.28806  0.89381  1.0000
  C   C1109     1.0  0.32001  0.25175  0.77665  1.0000
  H   H1909     1.0  0.30704  0.24993  0.77593  1.0000
  H   H1910     1.0  0.43477  0.23740  0.66964  1.0000
  C   C1110     1.0  0.45731  0.23519  0.75054  1.0000
  H   H1911     1.0  0.32291  0.99664  0.69617  1.0000
  H   H1912     1.0  0.43842  0.30503  0.59822  1.0000
  H   H1913     1.0  0.39391  0.28757  0.92305  1.0000
  H   H1914     1.0  0.45275  0.22268  0.75425  1.0000
  C   C1111     1.0  0.31833  0.27093  0.77663  1.0000
  H   H1915     1.0  0.45982  0.27769  0.56537  1.0000
  H   H1916     1.0  0.25476  0.07199  0.66920  1.0000
  H   H1917     1.0  0.44040  0.08169  0.69034  1.0000
  H   H1918     1.0  0.39741  0.03841  0.76522  1.0000
  H   H1919     1.0  0.41090  0.24140  0.94474  1.0000
  H   H1920     1.0  0.39886  0.02896  0.78701  1.0000
  H   H1921     1.0  0.36669  0.04804  0.78483  1.0000
  H   H1922     1.0  0.36772  0.03025  0.80326  1.0000
  H   H1923     1.0  0.26395  0.15426  0.71306  1.0000
  H   H1924     1.0  0.45738  0.23006  0.66036  1.0000
  H   H1925     1.0  0.39094  0.12836  0.80753  1.0000
  C   C1112     1.0  0.30560  0.99397  0.76874  1.0000
  C   C1113     1.0  0.47099  0.22766  0.68930  1.0000
  S   S249      1.0  0.36838  0.00892  0.73883  1.0000
  H   H1926     1.0  0.38651  0.08750  0.77656  1.0000
  C   C1114     1.0  0.42816  0.01970  0.76145  1.0000
  H   H1927     1.0  0.42617  0.02942  0.74938  1.0000
  H   H1928     1.0  0.40728  0.10232  0.78211  1.0000
  H   H1929     1.0  0.43568  0.29362  0.76754  1.0000
  H   H1930     1.0  0.35227  0.30660  0.80011  1.0000
  H   H1931     1.0  0.41157  0.14871  0.80174  1.0000
  H   H1932     1.0  0.45888  0.29443  0.69861  1.0000
  C   C1115     1.0  0.39720  0.02605  0.77491  1.0000
  H   H1933     1.0  0.48476  0.25785  0.70360  1.0000
  H   H1934     1.0  0.46533  0.15742  0.80370  1.0000
  H   H1935     1.0  0.48947  0.15360  0.64905  1.0000
  H   H1936     1.0  0.39123  0.26804  0.86332  1.0000
  H   H1937     1.0  0.46797  0.09994  0.62798  1.0000
  C   C1116     1.0  0.43102  0.05826  0.65466  1.0000
  C   C1117     1.0  0.31909  0.99869  0.68392  1.0000
  H   H1938     1.0  0.43592  0.09078  0.64909  1.0000
  H   H1939     1.0  0.42538  0.15245  0.78059  1.0000
  H   H1940     1.0  0.47000  0.07403  0.69580  1.0000
  H   H1941     1.0  0.37402  0.02556  0.76570  1.0000
  C   C1118     1.0  0.36540  0.03429  0.78981  1.0000
  H   H1942     1.0  0.42848  0.24268  0.90608  1.0000
  C   C1119     1.0  0.32429  0.30467  0.68284  1.0000
  H   H1943     1.0  0.42531  0.11931  0.67485  1.0000
  C   C1120     1.0  0.29978  0.99429  0.66726  1.0000
  C   C1121     1.0  0.30509  0.99177  0.68303  1.0000
  N   N63       1.0  0.48643  0.26761  0.56940  1.0000
  H   H1944     1.0  0.48293  0.22504  0.73749  1.0000
  H   H1945     1.0  0.27415  0.13748  0.68672  1.0000
  H   H1946     1.0  0.43453  0.29012  0.72389  1.0000
  C   C1122     1.0  0.46173  0.28871  0.58635  1.0000
  H   H1947     1.0  0.42974  0.06785  0.67711  1.0000
  C   C1123     1.0  0.40733  0.00539  0.75525  1.0000
  H   H1948     1.0  0.36703  0.12147  0.82551  1.0000
  H   H1949     1.0  0.45659  0.07757  0.64359  1.0000
  C   C1124     1.0  0.30936  0.31028  0.69476  1.0000
  C   C1125     1.0  0.46708  0.27375  0.57618  1.0000
  H   H1950     1.0  0.47216  0.21456  0.81039  1.0000
  C   C1126     1.0  0.36704  0.27196  0.94447  1.0000
  H   H1951     1.0  0.43336  0.98836  0.74798  1.0000
  H   H1952     1.0  0.38875  0.28805  0.87033  1.0000
  H   H1953     1.0  0.46141  0.02448  0.76194  1.0000
  H   H1954     1.0  0.47207  0.28372  0.66988  1.0000
  H   H1955     1.0  0.40326  0.06673  0.80758  1.0000
  H   H1956     1.0  0.48549  0.18730  0.82897  1.0000
  H   H1957     1.0  0.48269  0.29410  0.81281  1.0000
  S   S250      1.0  0.35832  0.30245  0.66628  1.0000
  H   H1958     1.0  0.43558  0.02014  0.78569  1.0000
  H   H1959     1.0  0.32986  0.01764  0.64150  1.0000
  C   C1127     1.0  0.32300  0.01036  0.65312  1.0000
  H   H1960     1.0  0.48280  0.13471  0.67832  1.0000
  C   C1128     1.0  0.30887  0.00350  0.65223  1.0000
  H   H1961     1.0  0.35181  0.03335  0.79006  1.0000
  Fe  Fe118     1.0  0.48608  0.23831  0.89954  1.0000
  H   H1962     1.0  0.33568  0.12092  0.82747  1.0000
  H   H1963     1.0  0.29085  0.12937  0.66947  1.0000
  C   C1129     1.0  0.44843  0.28649  0.72527  1.0000
  H   H1964     1.0  0.41963  0.06805  0.65070  1.0000
  C   C1130     1.0  0.45687  0.10814  0.65316  1.0000
  H   H1965     1.0  0.47324  0.29346  0.71262  1.0000
  H   H1966     1.0  0.39923  0.11374  0.69653  1.0000
  H   H1967     1.0  0.43317  0.21244  0.92570  1.0000
  H   H1968     1.0  0.44047  0.05476  0.64292  1.0000
  C   C1131     1.0  0.44248  0.09398  0.68129  1.0000
  H   H1969     1.0  0.48133  0.18227  0.80006  1.0000
  H   H1970     1.0  0.48013  0.22764  0.67657  1.0000
  H   H1971     1.0  0.46703  0.22622  0.82784  1.0000
  H   H1972     1.0  0.41794  0.10157  0.67124  1.0000
  H   H1973     1.0  0.41237  0.29536  0.75299  1.0000
  H   H1974     1.0  0.48071  0.08929  0.66766  1.0000
  C   C1132     1.0  0.37838  0.02263  0.77823  1.0000
  H   H1975     1.0  0.48379  0.29280  0.79063  1.0000
  C   C1133     1.0  0.45947  0.29758  0.71085  1.0000
  C   C1134     1.0  0.48015  0.17767  0.84009  1.0000
  H   H1976     1.0  0.41757  0.10770  0.70719  1.0000
  C   C1135     1.0  0.42276  0.21752  0.93608  1.0000
  H   H1977     1.0  0.47074  0.28610  0.75453  1.0000
  N   N64       1.0  0.45444  0.09068  0.66442  1.0000
  H   H1978     1.0  0.48453  0.24072  0.62478  1.0000
  H   H1979     1.0  0.47597  0.24806  0.73126  1.0000
  C   C1136     1.0  0.47113  0.31224  0.75560  1.0000
  H   H1980     1.0  0.46454  0.25004  0.56051  1.0000
  C   C1137     1.0  0.27628  0.00028  0.76200  1.0000
  C   C1138     1.0  0.48927  0.25866  0.67639  1.0000
  S   S251      1.0  0.38450  0.30446  0.69914  1.0000
  H   H1981     1.0  0.45829  0.13161  0.62061  1.0000
  C   C1139     1.0  0.24923  0.13374  0.72016  1.0000
  H   H1982     1.0  0.42388  0.27309  0.75575  1.0000
  H   H1983     1.0  0.40097  0.27023  0.93936  1.0000
  H   H1984     1.0  0.48365  0.24951  0.54328  1.0000
  C   C1140     1.0  0.33974  0.31043  0.68095  1.0000
  H   H1985     1.0  0.43758  0.30181  0.57729  1.0000
  H   H1986     1.0  0.32397  0.29556  0.67529  1.0000
  Fe  Fe119     1.0  0.25049  0.01766  0.61818  1.0000
  H   H1987     1.0  0.25573  0.02142  0.73944  1.0000
  H   H1988     1.0  0.46805  0.29983  0.57952  1.0000
  H   H1989     1.0  0.29758  0.30544  0.69639  1.0000
  H   H1990     1.0  0.38240  0.25260  0.93028  1.0000
  H   H1991     1.0  0.43399  0.23897  0.93529  1.0000
  C   C1141     1.0  0.38031  0.26687  0.92857  1.0000
  C   C1142     1.0  0.49318  0.17321  0.79501  1.0000
  C   C1143     1.0  0.41705  0.24692  0.91609  1.0000
  H   H1992     1.0  0.47711  0.17790  0.70477  1.0000
  H   H1993     1.0  0.49442  0.30295  0.52126  1.0000
  S   S252      1.0  0.48401  0.30279  0.88220  1.0000
  H   H1994     1.0  0.43976  0.00988  0.75733  1.0000
  H   H1995     1.0  0.31295  0.31508  0.79933  1.0000
  H   H1996     1.0  0.28467  0.00332  0.83157  1.0000
  H   H1997     1.0  0.48406  0.10221  0.63866  1.0000
  H   H1998     1.0  0.48275  0.12683  0.82861  1.0000
  C   C1144     1.0  0.28773  0.99689  0.80646  1.0000
  H   H1999     1.0  0.45312  0.19217  0.84355  1.0000
  C   C1145     1.0  0.46394  0.18726  0.85079  1.0000
  C   C1146     1.0  0.49182  0.29693  0.54939  1.0000
  H   H2000     1.0  0.49139  0.04669  0.69763  1.0000
  H   H2001     1.0  0.26260  0.99808  0.76672  1.0000
  H   H2002     1.0  0.24772  0.10400  0.75798  1.0000
  N   N65       1.0  0.28672  0.99248  0.77613  1.0000
  C   C1147     1.0  0.41644  0.98668  0.73230  1.0000
  Fe  Fe120     1.0  0.48931  0.21015  0.61086  1.0000
  H   H2003     1.0  0.48167  0.12561  0.61355  1.0000
  C   C1148     1.0  0.48608  0.27838  0.67042  1.0000
  H   H2004     1.0  0.40203  0.99274  0.79048  1.0000
  H   H2005     1.0  0.48525  0.18371  0.68172  1.0000
  H   H2006     1.0  0.49008  0.28442  0.67925  1.0000
  H   H2007     1.0  0.49103  0.24607  0.76738  1.0000
  C   C1149     1.0  0.48520  0.17284  0.69318  1.0000
  C   C1150     1.0  0.24516  0.11917  0.73259  1.0000
  C   C1151     1.0  0.49109  0.05549  0.68479  1.0000
  H   H2008     1.0  0.48985  0.17240  0.84856  1.0000
  H   H2009     1.0  0.47454  0.21933  0.57292  1.0000
  C   C1152     1.0  0.49228  0.12948  0.66794  1.0000
  C   C1153     1.0  0.48054  0.22490  0.55944  1.0000
  S   S253      1.0  0.48964  0.09890  0.77432  1.0000
  H   H2010     1.0  0.48966  0.16505  0.78786  1.0000
  H   H2011     1.0  0.48601  0.24084  0.58200  1.0000
  C   C1154     1.0  0.48925  0.24867  0.56867  1.0000
  H   H2012     1.0  0.49394  0.28183  0.65719  1.0000
  H   H2013     1.0  0.49366  0.21164  0.71442  1.0000
  H   H2014     1.0  0.49326  0.26041  0.59462  1.0000
  Fe  Fe121     1.0  0.49360  0.27427  0.89119  1.0000
  H   H2015     1.0  0.49434  0.28205  0.58436  1.0000
  H   H2016     1.0  0.49431  0.04750  0.67473  1.0000
  S   S254      1.0  0.28193  0.98540  0.66712  1.0000
  H   H2017     1.0  0.44161  0.98501  0.77547  1.0000
  H   H2018     1.0  0.49433  0.13368  0.80735  1.0000
  C   C1155     1.0  0.43168  0.65058  0.26307  1.0000
  S   S255      1.0  0.26810  0.64457  0.42600  1.0000
  H   H2019     1.0  0.25242  0.60027  0.06600  1.0000
  H   H2020     1.0  0.24844  0.59454  0.46618  1.0000
  C   C1156     1.0  0.38710  0.63801  0.36794  1.0000
  H   H2021     1.0  0.29788  0.59434  0.05943  1.0000
  S   S256      1.0  0.26421  0.62331  0.98326  1.0000
  H   H2022     1.0  0.30133  0.62380  0.04274  1.0000
  C   C1157     1.0  0.29027  0.62239  0.05395  1.0000
  H   H2023     1.0  0.30694  0.60495  0.07111  1.0000
  H   H2024     1.0  0.43558  0.63666  0.26427  1.0000
  H   H2025     1.0  0.27763  0.64747  0.03097  1.0000
  H   H2026     1.0  0.28408  0.60331  0.07753  1.0000
  C   C1158     1.0  0.28540  0.63797  0.06326  1.0000
  H   H2027     1.0  0.29406  0.64505  0.37119  1.0000
  H   H2028     1.0  0.29480  0.63581  0.07181  1.0000
  H   H2029     1.0  0.38389  0.62604  0.36636  1.0000
  H   H2030     1.0  0.38496  0.63801  0.38198  1.0000
  H   H2031     1.0  0.27264  0.63704  0.07238  1.0000
  C   C1159     1.0  0.24550  0.61364  0.06462  1.0000
  C   C1160     1.0  0.25748  0.61664  0.44869  1.0000
  H   H2032     1.0  0.32096  0.63589  0.04953  1.0000
  H   H2033     1.0  0.35350  0.64336  0.36225  1.0000
  C   C1161     1.0  0.31815  0.65013  0.04860  1.0000
  C   C1162     1.0  0.29511  0.60522  0.06633  1.0000
  H   H2034     1.0  0.25066  0.54130  0.47562  1.0000
  H   H2035     1.0  0.27892  0.62153  0.04901  1.0000
  C   C1163     1.0  0.25977  0.63356  0.44680  1.0000
  H   H2036     1.0  0.24811  0.61600  0.08958  1.0000
  H   H2037     1.0  0.40117  0.63786  0.36218  1.0000
  H   H2038     1.0  0.32600  0.64235  0.36661  1.0000
  C   C1164     1.0  0.25014  0.60763  0.46486  1.0000
  H   H2039     1.0  0.26135  0.61049  0.43758  1.0000
  H   H2040     1.0  0.29994  0.64926  0.38944  1.0000
  C   C1165     1.0  0.24712  0.63249  0.47745  1.0000
  H   H2041     1.0  0.48978  0.64182  0.27579  1.0000
  H   H2042     1.0  0.28794  0.64944  0.98387  1.0000
  H   H2043     1.0  0.34577  0.65064  0.04396  1.0000
  C   C1166     1.0  0.25486  0.64141  0.46125  1.0000
  C   C1167     1.0  0.24471  0.61560  0.47920  1.0000
  H   H2044     1.0  0.24474  0.64343  0.39618  1.0000
  S   S257      1.0  0.46656  0.65066  0.25291  1.0000
  H   H2045     1.0  0.35409  0.65097  0.38050  1.0000
  H   H2046     1.0  0.39359  0.65009  0.19216  1.0000
  H   H2047     1.0  0.40413  0.65030  0.26995  1.0000
  H   H2048     1.0  0.34531  0.34214  0.62913  1.0000
  Fe  Fe122     1.0  0.42774  0.33531  0.81266  1.0000
  H   H2049     1.0  0.39166  0.32051  0.72070  1.0000
  Fe  Fe123     1.0  0.24776  0.61616  0.96823  1.0000
  H   H2050     1.0  0.25167  0.48410  0.75758  1.0000
  H   H2051     1.0  0.24847  0.54578  0.76517  1.0000
  C   C1168     1.0  0.28169  0.55302  0.96353  1.0000
  H   H2052     1.0  0.26722  0.62977  0.90638  1.0000
  Fe  Fe124     1.0  0.28281  0.35679  0.72271  1.0000
  S   S258      1.0  0.27265  0.36161  0.74980  1.0000
  S   S259      1.0  0.29017  0.32919  0.71885  1.0000
  Fe  Fe125     1.0  0.27674  0.39522  0.70630  1.0000
  S   S260      1.0  0.26652  0.40326  0.73192  1.0000
  S   S261      1.0  0.27887  0.41620  0.68216  1.0000
  Fe  Fe126     1.0  0.28838  0.38247  0.74075  1.0000
  S   S262      1.0  0.30340  0.38672  0.75853  1.0000
  H   H2053     1.0  0.26864  0.54176  0.78636  1.0000
  S   S263      1.0  0.30028  0.37620  0.71445  1.0000
  H   H2054     1.0  0.25367  0.57548  0.81137  1.0000
  H   H2055     1.0  0.26108  0.60668  0.63520  1.0000
  H   H2056     1.0  0.24867  0.59064  0.63591  1.0000
  H   H2057     1.0  0.25980  0.61542  0.76846  1.0000
  Fe  Fe127     1.0  0.30674  0.47582  0.76374  1.0000
  S   S264      1.0  0.32605  0.49298  0.75092  1.0000
  S   S265      1.0  0.29322  0.46790  0.74688  1.0000
  Fe  Fe128     1.0  0.31157  0.47474  0.79973  1.0000
  S   S266      1.0  0.33166  0.49162  0.79002  1.0000
  S   S267      1.0  0.29971  0.46477  0.82742  1.0000
  Fe  Fe129     1.0  0.31340  0.50741  0.77245  1.0000
  S   S268      1.0  0.30586  0.53657  0.76754  1.0000
  Fe  Fe130     1.0  0.34241  0.47545  0.76954  1.0000
  S   S269      1.0  0.37063  0.46513  0.75876  1.0000
  S   S270      1.0  0.29253  0.49172  0.78368  1.0000
  S   S271      1.0  0.32396  0.45715  0.78079  1.0000
  H   H2058     1.0  0.28565  0.56570  0.95753  1.0000
  H   H2059     1.0  0.44516  0.34220  0.64973  1.0000
  S   S272      1.0  0.27599  0.52627  0.86773  1.0000
  H   H2060     1.0  0.26637  0.37044  0.66559  1.0000
  H   H2061     1.0  0.48578  0.32429  0.91143  1.0000
  C   C1169     1.0  0.39079  0.32876  0.74391  1.0000
  Fe  Fe131     1.0  0.41869  0.37369  0.79720  1.0000
  S   S273      1.0  0.40238  0.35346  0.80948  1.0000
  S   S274      1.0  0.40673  0.39866  0.80661  1.0000
  Fe  Fe132     1.0  0.44647  0.34965  0.77632  1.0000
  H   H2062     1.0  0.28189  0.33219  0.67895  1.0000
  Fe  Fe133     1.0  0.40813  0.34810  0.78286  1.0000
  S   S275      1.0  0.38828  0.34021  0.77319  1.0000
  C   C1170     1.0  0.34581  0.33108  0.76039  1.0000
  H   H2063     1.0  0.33906  0.33320  0.82077  1.0000
  S   S276      1.0  0.42267  0.36963  0.77004  1.0000
  S   S277      1.0  0.44398  0.35580  0.80250  1.0000
  C   C1171     1.0  0.25912  0.42594  0.67500  1.0000
  Fe  Fe134     1.0  0.24822  0.52626  0.88163  1.0000
  C   C1172     1.0  0.45817  0.32819  0.68015  1.0000
  C   C1173     1.0  0.26759  0.64229  0.90936  1.0000
  H   H2064     1.0  0.27459  0.58319  0.87316  1.0000
  H   H2065     1.0  0.26557  0.36084  0.79614  1.0000
  H   H2066     1.0  0.25978  0.34141  0.67617  1.0000
  C   C1174     1.0  0.25278  0.56295  0.83843  1.0000
  H   H2067     1.0  0.32648  0.34169  0.65844  1.0000
  C   C1175     1.0  0.38017  0.44624  0.77196  1.0000
  C   C1176     1.0  0.39651  0.43675  0.76532  1.0000
  C   C1177     1.0  0.40430  0.42151  0.77555  1.0000
  C   C1178     1.0  0.39609  0.41614  0.79274  1.0000
  C   C1179     1.0  0.37983  0.42575  0.79943  1.0000
  C   C1180     1.0  0.37173  0.44060  0.78898  1.0000
  H   H2068     1.0  0.40329  0.44144  0.75238  1.0000
  H   H2069     1.0  0.41707  0.41443  0.77047  1.0000
  H   H2070     1.0  0.37356  0.42179  0.81280  1.0000
  H   H2071     1.0  0.35923  0.44797  0.79428  1.0000
  C   C1181     1.0  0.29433  0.48098  0.83969  1.0000
  C   C1182     1.0  0.30339  0.49460  0.83492  1.0000
  C   C1183     1.0  0.29824  0.50811  0.84410  1.0000
  C   C1184     1.0  0.28369  0.50828  0.85775  1.0000
  C   C1185     1.0  0.27485  0.49449  0.86281  1.0000
  C   C1186     1.0  0.28034  0.48070  0.85394  1.0000
  H   H2072     1.0  0.31444  0.49469  0.82422  1.0000
  H   H2073     1.0  0.30528  0.51862  0.84032  1.0000
  H   H2074     1.0  0.26372  0.49441  0.87351  1.0000
  H   H2075     1.0  0.27335  0.47015  0.85775  1.0000
  H   H2076     1.0  0.25364  0.64307  0.88330  1.0000
  H   H2077     1.0  0.24644  0.63715  0.85798  1.0000
  C   C1187     1.0  0.25911  0.59766  0.62792  1.0000
  H   H2078     1.0  0.28025  0.37539  0.79243  1.0000
  C   C1188     1.0  0.33130  0.51970  0.66823  1.0000
  H   H2079     1.0  0.28947  0.33550  0.79927  1.0000
  H   H2080     1.0  0.25622  0.57445  0.88678  1.0000
  H   H2081     1.0  0.29028  0.63021  0.92101  1.0000
  H   H2082     1.0  0.30891  0.33813  0.65107  1.0000
  C   C1189     1.0  0.30181  0.40911  0.75512  1.0000
  C   C1190     1.0  0.30212  0.41672  0.76864  1.0000
  C   C1191     1.0  0.29936  0.43483  0.76622  1.0000
  C   C1192     1.0  0.29671  0.44526  0.75018  1.0000
  C   C1193     1.0  0.29692  0.43755  0.73657  1.0000
  C   C1194     1.0  0.29946  0.41950  0.73903  1.0000
  H   H2083     1.0  0.30391  0.40869  0.78110  1.0000
  H   H2084     1.0  0.29878  0.44073  0.77690  1.0000
  H   H2085     1.0  0.29539  0.44550  0.72404  1.0000
  H   H2086     1.0  0.29971  0.41363  0.72840  1.0000
  N   N66       1.0  0.32638  0.33662  0.79034  1.0000
  H   H2087     1.0  0.27072  0.58067  0.72976  1.0000
  H   H2088     1.0  0.33430  0.55929  0.70190  1.0000
  C   C1195     1.0  0.32483  0.32828  0.70242  1.0000
  H   H2089     1.0  0.28393  0.52827  0.95760  1.0000
  C   C1196     1.0  0.35950  0.34765  0.81193  1.0000
  H   H2090     1.0  0.36340  0.35873  0.80174  1.0000
  Fe  Fe135     1.0  0.25578  0.62141  0.67763  1.0000
  H   H2091     1.0  0.32503  0.33744  0.70994  1.0000
  C   C1197     1.0  0.25469  0.41986  0.77684  1.0000
  C   C1198     1.0  0.40176  0.34383  0.71500  1.0000
  C   C1199     1.0  0.40602  0.35583  0.72208  1.0000
  C   C1200     1.0  0.40304  0.35405  0.74010  1.0000
  C   C1201     1.0  0.39481  0.34088  0.75096  1.0000
  H   H2092     1.0  0.33632  0.33811  0.73616  1.0000
  C   C1202     1.0  0.25108  0.64952  0.63943  1.0000
  H   H2093     1.0  0.41155  0.36651  0.71360  1.0000
  H   H2094     1.0  0.40623  0.36340  0.74554  1.0000
  H   H2095     1.0  0.46216  0.35387  0.66430  1.0000
  C   C1203     1.0  0.45964  0.33819  0.64785  1.0000
  C   C1204     1.0  0.25065  0.56313  0.81995  1.0000
  H   H2096     1.0  0.33543  0.53526  0.88811  1.0000
  H   H2097     1.0  0.32740  0.33909  0.62116  1.0000
  H   H2098     1.0  0.25729  0.46184  0.75521  1.0000
  H   H2099     1.0  0.34373  0.35478  0.78317  1.0000
  H   H2100     1.0  0.34685  0.50467  0.64902  1.0000
  C   C1205     1.0  0.25161  0.65041  0.58569  1.0000
  C   C1206     1.0  0.34191  0.34472  0.81071  1.0000
  H   H2101     1.0  0.43708  0.37714  0.71449  1.0000
  H   H2102     1.0  0.35302  0.34186  0.75703  1.0000
  H   H2103     1.0  0.27456  0.42332  0.63340  1.0000
  C   C1207     1.0  0.24962  0.43273  0.78898  1.0000
  C   C1208     1.0  0.26808  0.55479  0.73035  1.0000
  C   C1209     1.0  0.27304  0.53714  0.73727  1.0000
  C   C1210     1.0  0.28471  0.53160  0.74858  1.0000
  C   C1211     1.0  0.29118  0.54371  0.75340  1.0000
  C   C1212     1.0  0.28598  0.56146  0.74679  1.0000
  C   C1213     1.0  0.27454  0.56701  0.73508  1.0000
  H   H2104     1.0  0.26788  0.52769  0.73382  1.0000
  H   H2105     1.0  0.28872  0.51792  0.75349  1.0000
  H   H2106     1.0  0.29102  0.57085  0.75049  1.0000
  N   N67       1.0  0.46163  0.32980  0.69704  1.0000
  C   C1214     1.0  0.45316  0.34785  0.70019  1.0000
  C   C1215     1.0  0.25781  0.44198  0.66339  1.0000
  H   H2107     1.0  0.48821  0.34844  0.67775  1.0000
  C   C1216     1.0  0.45284  0.35091  0.71838  1.0000
  H   H2108     1.0  0.28287  0.57157  0.81039  1.0000
  H   H2109     1.0  0.33838  0.51472  0.90334  1.0000
  H   H2110     1.0  0.28926  0.56422  0.79015  1.0000
  C   C1217     1.0  0.34440  0.32695  0.74351  1.0000
  H   H2111     1.0  0.25407  0.48376  0.72741  1.0000
  C   C1218     1.0  0.27579  0.54608  0.90639  1.0000
  H   H2112     1.0  0.31562  0.54445  0.79975  1.0000
  C   C1219     1.0  0.27781  0.36224  0.79904  1.0000
  H   H2113     1.0  0.43936  0.35110  0.69846  1.0000
  H   H2114     1.0  0.45946  0.35777  0.69035  1.0000
  C   C1220     1.0  0.27763  0.35925  0.66574  1.0000
  C   C1221     1.0  0.27704  0.63818  0.92446  1.0000
  H   H2115     1.0  0.25841  0.48855  0.82015  1.0000
  H   H2116     1.0  0.24550  0.40559  0.68973  1.0000
  H   H2117     1.0  0.46532  0.34452  0.72262  1.0000
  C   C1222     1.0  0.44954  0.37020  0.71863  1.0000
  H   H2118     1.0  0.48494  0.32297  0.93409  1.0000
  S   S278      1.0  0.26019  0.37523  0.71225  1.0000
  H   H2119     1.0  0.26627  0.48148  0.69518  1.0000
  C   C1223     1.0  0.30073  0.52989  0.69561  1.0000
  C   C1224     1.0  0.46470  0.32173  0.85772  1.0000
  H   H2120     1.0  0.28783  0.56605  0.69189  1.0000
  H   H2121     1.0  0.46048  0.37608  0.70996  1.0000
  H   H2122     1.0  0.25086  0.46065  0.68851  1.0000
  N   N68       1.0  0.26109  0.54780  0.81206  1.0000
  H   H2123     1.0  0.25230  0.41085  0.81052  1.0000
  H   H2124     1.0  0.30818  0.34923  0.81027  1.0000
  H   H2125     1.0  0.32366  0.39006  0.65061  1.0000
  C   C1225     1.0  0.30032  0.58637  0.67553  1.0000
  H   H2126     1.0  0.35920  0.51577  0.65674  1.0000
  C   C1226     1.0  0.33631  0.54715  0.72807  1.0000
  H   H2127     1.0  0.30147  0.35245  0.67601  1.0000
  H   H2128     1.0  0.28603  0.56075  0.92830  1.0000
  H   H2129     1.0  0.30604  0.36591  0.63116  1.0000
  H   H2130     1.0  0.29660  0.58530  0.66364  1.0000
  H   H2131     1.0  0.33688  0.51309  0.69417  1.0000
  H   H2132     1.0  0.31059  0.64032  0.94361  1.0000
  H   H2133     1.0  0.24559  0.59111  0.83590  1.0000
  C   C1227     1.0  0.28539  0.41728  0.62390  1.0000
  C   C1228     1.0  0.31393  0.36464  0.64103  1.0000
  H   H2134     1.0  0.36979  0.33583  0.81045  1.0000
  H   H2135     1.0  0.33907  0.36095  0.66169  1.0000
  C   C1229     1.0  0.25437  0.60851  0.76151  1.0000
  C   C1230     1.0  0.25252  0.45961  0.70194  1.0000
  H   H2136     1.0  0.32813  0.53125  0.65804  1.0000
  N   N69       1.0  0.28558  0.53712  0.92079  1.0000
  C   C1231     1.0  0.28041  0.51978  0.92874  1.0000
  C   C1232     1.0  0.32017  0.34478  0.64717  1.0000
  H   H2137     1.0  0.26905  0.44808  0.65854  1.0000
  H   H2138     1.0  0.28213  0.54003  0.82620  1.0000
  H   H2139     1.0  0.34802  0.55228  0.72749  1.0000
  H   H2140     1.0  0.44220  0.34543  0.72813  1.0000
  H   H2141     1.0  0.28265  0.38566  0.64076  1.0000
  H   H2142     1.0  0.30980  0.39874  0.62333  1.0000
  H   H2143     1.0  0.34770  0.38592  0.66685  1.0000
  C   C1233     1.0  0.25188  0.50079  0.82479  1.0000
  H   H2144     1.0  0.26299  0.56409  0.78642  1.0000
  C   C1234     1.0  0.32424  0.31911  0.80161  1.0000
  H   H2145     1.0  0.28234  0.46128  0.67540  1.0000
  H   H2146     1.0  0.28796  0.44474  0.69380  1.0000
  C   C1235     1.0  0.31591  0.38201  0.66146  1.0000
  H   H2147     1.0  0.32095  0.51199  0.67127  1.0000
  H   H2148     1.0  0.26604  0.53741  0.48954  1.0000
  H   H2149     1.0  0.33194  0.35629  0.81383  1.0000
  H   H2150     1.0  0.27856  0.57309  0.90337  1.0000
  C   C1236     1.0  0.46598  0.34000  0.66341  1.0000
  H   H2151     1.0  0.28732  0.54736  0.97534  1.0000
  H   H2152     1.0  0.25597  0.40629  0.84930  1.0000
  S   S279      1.0  0.25282  0.61349  0.70671  1.0000
  C   C1237     1.0  0.30842  0.55550  0.80616  1.0000
  H   H2153     1.0  0.44868  0.37180  0.73201  1.0000
  H   H2154     1.0  0.28917  0.51168  0.93763  1.0000
  C   C1238     1.0  0.25926  0.55151  0.79340  1.0000
  H   H2155     1.0  0.30813  0.39075  0.67046  1.0000
  C   C1239     1.0  0.45266  0.32401  0.84707  1.0000
  H   H2156     1.0  0.31283  0.50186  0.70176  1.0000
  H   H2157     1.0  0.26786  0.34697  0.69237  1.0000
  H   H2158     1.0  0.34447  0.53150  0.68073  1.0000
  C   C1240     1.0  0.28019  0.54464  0.81260  1.0000
  H   H2159     1.0  0.26654  0.56248  0.83881  1.0000
  H   H2160     1.0  0.27599  0.36094  0.81328  1.0000
  H   H2161     1.0  0.47093  0.33226  0.85713  1.0000
  S   S280      1.0  0.43193  0.32805  0.78699  1.0000
  C   C1241     1.0  0.25418  0.53186  0.82232  1.0000
  H   H2162     1.0  0.32239  0.34991  0.76449  1.0000
  H   H2163     1.0  0.31483  0.56675  0.79993  1.0000
  C   C1242     1.0  0.32742  0.33660  0.77149  1.0000
  H   H2164     1.0  0.30392  0.57132  0.70047  1.0000
  C   C1243     1.0  0.28103  0.54855  0.93398  1.0000
  C   C1244     1.0  0.30097  0.51114  0.70639  1.0000
  H   H2165     1.0  0.27995  0.41064  0.61668  1.0000
  H   H2166     1.0  0.30927  0.55187  0.82008  1.0000
  N   N70       1.0  0.31711  0.53682  0.69294  1.0000
  H   H2167     1.0  0.28572  0.50349  0.69196  1.0000
  C   C1245     1.0  0.26194  0.51509  0.81493  1.0000
  H   H2168     1.0  0.46553  0.34658  0.63591  1.0000
  H   H2169     1.0  0.30880  0.51127  0.90233  1.0000
  C   C1246     1.0  0.31041  0.34985  0.79608  1.0000
  H   H2170     1.0  0.32768  0.55894  0.67665  1.0000
  C   C1247     1.0  0.24691  0.58649  0.54823  1.0000
  H   H2171     1.0  0.33693  0.32248  0.63740  1.0000
  C   C1248     1.0  0.34840  0.50848  0.66066  1.0000
  H   H2172     1.0  0.35863  0.35056  0.82480  1.0000
  Fe  Fe136     1.0  0.24712  0.58894  0.70325  1.0000
  H   H2173     1.0  0.35193  0.49649  0.67030  1.0000
  H   H2174     1.0  0.26721  0.55527  0.96749  1.0000
  H   H2175     1.0  0.33166  0.38559  0.68694  1.0000
  H   H2176     1.0  0.24590  0.63792  0.64518  1.0000
  H   H2177     1.0  0.25717  0.59437  0.76696  1.0000
  C   C1249     1.0  0.31501  0.55448  0.68110  1.0000
  H   H2178     1.0  0.25857  0.56600  0.53413  1.0000
  H   H2179     1.0  0.26104  0.61067  0.74764  1.0000
  H   H2180     1.0  0.26982  0.63068  0.93618  1.0000
  H   H2181     1.0  0.31135  0.55376  0.66902  1.0000
  H   H2182     1.0  0.27558  0.64943  0.89799  1.0000
  H   H2183     1.0  0.27831  0.65031  0.92755  1.0000
  C   C1250     1.0  0.39462  0.33002  0.72596  1.0000
  H   H2184     1.0  0.29498  0.56116  0.88884  1.0000
  H   H2185     1.0  0.27193  0.46481  0.71350  1.0000
  H   H2186     1.0  0.26084  0.43900  0.78726  1.0000
  H   H2187     1.0  0.28115  0.35566  0.65283  1.0000
  C   C1251     1.0  0.29919  0.40446  0.63317  1.0000
  C   C1252     1.0  0.32963  0.36863  0.67080  1.0000
  C   C1253     1.0  0.29318  0.36438  0.66998  1.0000
  H   H2188     1.0  0.32323  0.35993  0.68199  1.0000
  H   H2189     1.0  0.32558  0.37019  0.63359  1.0000
  H   H2190     1.0  0.48045  0.33601  0.66062  1.0000
  H   H2191     1.0  0.26132  0.51712  0.80111  1.0000
  C   C1254     1.0  0.31185  0.52445  0.89858  1.0000
  H   H2192     1.0  0.32192  0.52468  0.71868  1.0000
  H   H2193     1.0  0.28186  0.39657  0.65732  1.0000
  H   H2194     1.0  0.30271  0.53812  0.94799  1.0000
  H   H2195     1.0  0.28760  0.37183  0.68058  1.0000
  C   C1255     1.0  0.30104  0.56916  0.68864  1.0000
  H   H2196     1.0  0.27580  0.51030  0.81619  1.0000
  H   H2197     1.0  0.27238  0.56192  0.87235  1.0000
  H   H2198     1.0  0.33729  0.53414  0.73677  1.0000
  H   H2199     1.0  0.30047  0.51082  0.72023  1.0000
  H   H2200     1.0  0.26079  0.49414  0.93690  1.0000
  H   H2201     1.0  0.25311  0.59836  0.60336  1.0000
  C   C1256     1.0  0.29106  0.39014  0.64700  1.0000
  C   C1257     1.0  0.33167  0.52237  0.89263  1.0000
  C   C1258     1.0  0.29287  0.34823  0.79255  1.0000
  H   H2202     1.0  0.30457  0.41207  0.63944  1.0000
  N   N71       1.0  0.36299  0.40181  0.74776  1.0000
  C   C1259     1.0  0.38134  0.40282  0.74822  1.0000
  C   C1260     1.0  0.35333  0.39641  0.76609  1.0000
  C   C1261     1.0  0.36448  0.38755  0.73827  1.0000
  C   C1262     1.0  0.35309  0.41857  0.73861  1.0000
  C   C1263     1.0  0.35751  0.43571  0.73981  1.0000
  C   C1264     1.0  0.39413  0.40474  0.73034  1.0000
  C   C1265     1.0  0.34709  0.38326  0.73738  1.0000
  C   C1266     1.0  0.35001  0.40929  0.77825  1.0000
  C   C1267     1.0  0.34269  0.40128  0.79696  1.0000
  C   C1268     1.0  0.34494  0.45151  0.73211  1.0000
  C   C1269     1.0  0.41036  0.41085  0.73093  1.0000
  C   C1270     1.0  0.35000  0.37227  0.72378  1.0000
  H   H2203     1.0  0.38737  0.39093  0.75671  1.0000
  H   H2204     1.0  0.38131  0.41356  0.75435  1.0000
  H   H2205     1.0  0.34013  0.39450  0.76617  1.0000
  H   H2206     1.0  0.36046  0.38363  0.77228  1.0000
  H   H2207     1.0  0.37233  0.37529  0.74439  1.0000
  H   H2208     1.0  0.37153  0.39081  0.72462  1.0000
  H   H2209     1.0  0.35526  0.41876  0.72449  1.0000
  H   H2210     1.0  0.33872  0.41947  0.74343  1.0000
  H   H2211     1.0  0.37091  0.43689  0.73251  1.0000
  H   H2212     1.0  0.35684  0.43650  0.75333  1.0000
  H   H2213     1.0  0.39869  0.39201  0.72638  1.0000
  H   H2214     1.0  0.38772  0.41397  0.72011  1.0000
  H   H2215     1.0  0.33731  0.39520  0.73401  1.0000
  H   H2216     1.0  0.34160  0.37564  0.75007  1.0000
  H   H2217     1.0  0.36213  0.41332  0.77828  1.0000
  H   H2218     1.0  0.34016  0.42091  0.77419  1.0000
  H   H2219     1.0  0.35255  0.39025  0.80214  1.0000
  H   H2220     1.0  0.33958  0.41118  0.80513  1.0000
  H   H2221     1.0  0.33056  0.39673  0.79782  1.0000
  H   H2222     1.0  0.34491  0.45131  0.71852  1.0000
  H   H2223     1.0  0.33152  0.45183  0.73998  1.0000
  H   H2224     1.0  0.34909  0.46352  0.73222  1.0000
  H   H2225     1.0  0.41651  0.40267  0.74183  1.0000
  H   H2226     1.0  0.42007  0.41002  0.71862  1.0000
  H   H2227     1.0  0.40681  0.42456  0.73239  1.0000
  H   H2228     1.0  0.35469  0.37963  0.71063  1.0000
  H   H2229     1.0  0.35980  0.36014  0.72655  1.0000
  H   H2230     1.0  0.33748  0.36886  0.72389  1.0000
  H   H2231     1.0  0.25675  0.52861  0.83570  1.0000
  H   H2232     1.0  0.24967  0.59175  0.91702  1.0000
  H   H2233     1.0  0.46355  0.32455  0.64601  1.0000
  H   H2234     1.0  0.30768  0.54507  0.71753  1.0000
  C   C1271     1.0  0.26082  0.43682  0.82184  1.0000
  C   C1272     1.0  0.27677  0.42208  0.81751  1.0000
  C   C1273     1.0  0.34030  0.37755  0.67769  1.0000
  H   H2235     1.0  0.27277  0.51325  0.71001  1.0000
  H   H2236     1.0  0.26662  0.55285  0.93763  1.0000
  C   C1274     1.0  0.33323  0.33672  0.63275  1.0000
  C   C1275     1.0  0.29357  0.42566  0.82004  1.0000
  C   C1276     1.0  0.28098  0.56328  0.89528  1.0000
  H   H2237     1.0  0.44949  0.33633  0.83846  1.0000
  S   S281      1.0  0.40096  0.32197  0.65845  1.0000
  H   H2238     1.0  0.26580  0.49579  0.95687  1.0000
  H   H2239     1.0  0.26157  0.54917  0.91172  1.0000
  H   H2240     1.0  0.34792  0.53791  0.70457  1.0000
  H   H2241     1.0  0.31316  0.59040  0.67198  1.0000
  H   H2242     1.0  0.26383  0.44879  0.81241  1.0000
  H   H2243     1.0  0.28775  0.53391  0.80584  1.0000
  H   H2244     1.0  0.27901  0.42095  0.80381  1.0000
  H   H2245     1.0  0.27499  0.40927  0.82553  1.0000
  S   S282      1.0  0.27605  0.63546  0.65920  1.0000
  H   H2246     1.0  0.26528  0.61414  0.60316  1.0000
  S   S283      1.0  0.47224  0.34560  0.75706  1.0000
  C   C1277     1.0  0.28820  0.54061  0.95086  1.0000
  H   H2247     1.0  0.33053  0.64603  0.92993  1.0000
  H   H2248     1.0  0.28222  0.51225  0.91850  1.0000
  C   C1278     1.0  0.24733  0.56869  0.54488  1.0000
  H   H2249     1.0  0.29036  0.59665  0.68131  1.0000
  H   H2250     1.0  0.30462  0.41477  0.81729  1.0000
  H   H2251     1.0  0.29671  0.43770  0.81098  1.0000
  H   H2252     1.0  0.29227  0.42707  0.83358  1.0000
  H   H2253     1.0  0.32455  0.55607  0.73361  1.0000
  N   N72       1.0  0.30378  0.37488  0.65486  1.0000
  C   C1279     1.0  0.27035  0.57112  0.88105  1.0000
  H   H2254     1.0  0.34981  0.36757  0.68456  1.0000
  S   S284      1.0  0.40519  0.34634  0.69249  1.0000
  C   C1280     1.0  0.48098  0.32526  0.69711  1.0000
  H   H2255     1.0  0.28525  0.49139  0.71386  1.0000
  Fe  Fe137     1.0  0.25099  0.65110  0.97547  1.0000
  C   C1281     1.0  0.26120  0.52042  0.93864  1.0000
  Fe  Fe138     1.0  0.25176  0.38186  0.73859  1.0000
  H   H2256     1.0  0.27701  0.53720  0.89758  1.0000
  H   H2257     1.0  0.30976  0.54652  0.91015  1.0000
  C   C1282     1.0  0.49123  0.34029  0.69013  1.0000
  H   H2258     1.0  0.27146  0.58801  0.62557  1.0000
  C   C1283     1.0  0.31602  0.64944  0.93200  1.0000
  C   C1284     1.0  0.27146  0.34403  0.67917  1.0000
  H   H2259     1.0  0.30595  0.53160  0.88721  1.0000
  H   H2260     1.0  0.31184  0.64789  0.92057  1.0000
  S   S285      1.0  0.25579  0.59995  0.94712  1.0000
  H   H2261     1.0  0.31868  0.32839  0.77045  1.0000
  C   C1285     1.0  0.31973  0.53786  0.71034  1.0000
  C   C1286     1.0  0.33538  0.54598  0.70989  1.0000
  C   C1287     1.0  0.33298  0.52510  0.68465  1.0000
  H   H2262     1.0  0.25642  0.44552  0.70728  1.0000
  H   H2263     1.0  0.43822  0.32031  0.71144  1.0000
  H   H2264     1.0  0.24605  0.45245  0.73500  1.0000
  H   H2265     1.0  0.25929  0.58639  0.55192  1.0000
  H   H2266     1.0  0.31204  0.52617  0.92448  1.0000
  C   C1288     1.0  0.30944  0.32235  0.70433  1.0000
  H   H2267     1.0  0.29352  0.34975  0.77849  1.0000
  C   C1289     1.0  0.34214  0.34224  0.79233  1.0000
  Fe  Fe139     1.0  0.40331  0.32212  0.68528  1.0000
  H   H2268     1.0  0.25363  0.62585  0.57861  1.0000
  H   H2269     1.0  0.29139  0.42773  0.61452  1.0000
  C   C1290     1.0  0.30508  0.53406  0.91401  1.0000
  H   H2270     1.0  0.29605  0.46457  0.68822  1.0000
  H   H2271     1.0  0.35438  0.33302  0.78850  1.0000
  H   H2272     1.0  0.28932  0.53822  0.70241  1.0000
  C   C1291     1.0  0.28933  0.56026  0.80422  1.0000
  H   H2273     1.0  0.26085  0.43931  0.83470  1.0000
  H   H2274     1.0  0.26559  0.40918  0.78051  1.0000
  C   C1292     1.0  0.28517  0.50448  0.70547  1.0000
  H   H2275     1.0  0.33615  0.51540  0.88167  1.0000
  H   H2276     1.0  0.31253  0.36323  0.78970  1.0000
  C   C1293     1.0  0.26859  0.46736  0.70058  1.0000
  C   C1294     1.0  0.28468  0.45894  0.68875  1.0000
  H   H2277     1.0  0.29735  0.53069  0.68293  1.0000
  C   C1295     1.0  0.34005  0.32221  0.69082  1.0000
  H   H2278     1.0  0.48795  0.34891  0.69961  1.0000
  H   H2279     1.0  0.25633  0.54726  0.51749  1.0000
  H   H2280     1.0  0.25149  0.49843  0.83892  1.0000
  C   C1296     1.0  0.48087  0.32531  0.75084  1.0000
  H   H2281     1.0  0.25907  0.42659  0.76331  1.0000
  H   H2282     1.0  0.27655  0.64307  0.56844  1.0000
  H   H2283     1.0  0.44378  0.33057  0.68090  1.0000
  C   C1297     1.0  0.25776  0.50220  0.94688  1.0000
  H   H2284     1.0  0.35188  0.32689  0.68928  1.0000
  C   C1298     1.0  0.24463  0.41800  0.68091  1.0000
  S   S286      1.0  0.25300  0.59587  0.67422  1.0000
  H   H2285     1.0  0.25781  0.52780  0.94919  1.0000
  H   H2286     1.0  0.48320  0.31977  0.71055  1.0000
  S   S287      1.0  0.25405  0.56082  0.71566  1.0000
  H   H2287     1.0  0.25218  0.52657  0.92958  1.0000
  C   C1299     1.0  0.24686  0.47374  0.75457  1.0000
  C   C1300     1.0  0.25427  0.60771  0.61066  1.0000
  H   H2288     1.0  0.25733  0.64574  0.59748  1.0000
  H   H2289     1.0  0.24842  0.55161  0.84780  1.0000
  H   H2290     1.0  0.35389  0.31960  0.76719  1.0000
  H   H2291     1.0  0.35762  0.32412  0.73527  1.0000
  H   H2292     1.0  0.24532  0.39766  0.83708  1.0000
  H   H2293     1.0  0.45384  0.31831  0.72423  1.0000
  H   H2294     1.0  0.24927  0.53576  0.54733  1.0000
  C   C1301     1.0  0.25402  0.54614  0.48574  1.0000
  H   H2295     1.0  0.25477  0.50357  0.55731  1.0000
  H   H2296     1.0  0.24966  0.55899  0.55683  1.0000
  H   H2297     1.0  0.24683  0.51741  0.52876  1.0000
  H   H2298     1.0  0.32080  0.31990  0.81556  1.0000
  H   H2299     1.0  0.24554  0.59664  0.53633  1.0000
  H   H2300     1.0  0.24476  0.56882  0.76467  1.0000
  C   C1302     1.0  0.26673  0.65096  0.64288  1.0000
  H   H2301     1.0  0.38479  0.31832  0.75231  1.0000
  H   H2302     1.0  0.25664  0.55942  0.48012  1.0000
  S   S288      1.0  0.29421  0.68040  0.40650  1.0000
  S   S289      1.0  0.31119  0.70049  0.43614  1.0000
  H   H2303     1.0  0.38502  0.69058  0.22922  1.0000
  C   C1303     1.0  0.35622  0.65445  0.36610  1.0000
  Fe  Fe140     1.0  0.26418  0.83916  0.07154  1.0000
  S   S290      1.0  0.26775  0.82369  0.09798  1.0000
  H   H2304     1.0  0.37682  0.66394  0.18083  1.0000
  Fe  Fe141     1.0  0.30070  0.82365  0.05513  1.0000
  S   S291      1.0  0.30751  0.80690  0.07990  1.0000
  S   S292      1.0  0.31888  0.82216  0.02944  1.0000
  Fe  Fe142     1.0  0.28065  0.80125  0.08494  1.0000
  H   H2305     1.0  0.26448  0.86909  0.98459  1.0000
  Fe  Fe143     1.0  0.29444  0.83047  0.09133  1.0000
  S   S293      1.0  0.30320  0.83409  0.11455  1.0000
  S   S294      1.0  0.27487  0.81609  0.05922  1.0000
  S   S295      1.0  0.28976  0.84807  0.06583  1.0000
  Fe  Fe144     1.0  0.37910  0.85667  0.14661  1.0000
  S   S296      1.0  0.38109  0.83115  0.16549  1.0000
  S   S297      1.0  0.36667  0.86293  0.12278  1.0000
  Fe  Fe145     1.0  0.40353  0.86963  0.16274  1.0000
  S   S298      1.0  0.40743  0.84497  0.18243  1.0000
  S   S299      1.0  0.41580  0.89299  0.15919  1.0000
  Fe  Fe146     1.0  0.40957  0.83177  0.16073  1.0000
  S   S300      1.0  0.43093  0.80920  0.15483  1.0000
  Fe  Fe147     1.0  0.37854  0.84681  0.18550  1.0000
  S   S301      1.0  0.36360  0.84182  0.21310  1.0000
  S   S302      1.0  0.40805  0.85616  0.14056  1.0000
  S   S303      1.0  0.37424  0.87258  0.16712  1.0000
  Fe  Fe148     1.0  0.36216  0.73694  0.29733  1.0000
  S   S304      1.0  0.37064  0.76010  0.27835  1.0000
  S   S305      1.0  0.34944  0.74008  0.32484  1.0000
  Fe  Fe149     1.0  0.37941  0.71296  0.27176  1.0000
  S   S306      1.0  0.38893  0.73411  0.25083  1.0000
  S   S307      1.0  0.38615  0.68550  0.26788  1.0000
  Fe  Fe150     1.0  0.39625  0.74199  0.27203  1.0000
  S   S308      1.0  0.42197  0.75040  0.26641  1.0000
  Fe  Fe151     1.0  0.36245  0.75014  0.25890  1.0000
  S   S309      1.0  0.34868  0.76590  0.23741  1.0000
  S   S310      1.0  0.38857  0.71955  0.29258  1.0000
  S   S311      1.0  0.35201  0.72816  0.27829  1.0000
  Fe  Fe152     1.0  0.35855  0.72657  0.00032  1.0000
  S   S312      1.0  0.33110  0.72294  0.01295  1.0000
  S   S313      1.0  0.37479  0.72132  0.02136  1.0000
  C   C1304     1.0  0.39967  0.73280  0.15764  1.0000
  H   H2306     1.0  0.40380  0.86593  0.27677  1.0000
  S   S314      1.0  0.43569  0.73317  0.08377  1.0000
  S   S315      1.0  0.40879  0.76358  0.11560  1.0000
  H   H2307     1.0  0.38873  0.71245  0.45876  1.0000
  Fe  Fe153     1.0  0.43291  0.80146  0.34527  1.0000
  S   S316      1.0  0.43608  0.79116  0.32136  1.0000
  S   S317      1.0  0.40484  0.81413  0.35326  1.0000
  Fe  Fe154     1.0  0.47119  0.78698  0.34767  1.0000
  S   S318      1.0  0.47682  0.77555  0.32407  1.0000
  C   C1305     1.0  0.47300  0.70124  0.12107  1.0000
  Fe  Fe155     1.0  0.46114  0.80076  0.31266  1.0000
  S   S319      1.0  0.47143  0.81269  0.28502  1.0000
  Fe  Fe156     1.0  0.45130  0.76728  0.33546  1.0000
  S   S320      1.0  0.44627  0.74134  0.33616  1.0000
  S   S321      1.0  0.45698  0.81303  0.33552  1.0000
  S   S322      1.0  0.44653  0.77675  0.36007  1.0000
  C   C1306     1.0  0.27987  0.78789  0.42366  1.0000
  H   H2308     1.0  0.27343  0.86192  0.44243  1.0000
  H   H2309     1.0  0.31743  0.87740  0.06753  1.0000
  H   H2310     1.0  0.25955  0.77420  0.37775  1.0000
  S   S323      1.0  0.47918  0.89071  0.27086  1.0000
  Fe  Fe157     1.0  0.48798  0.91028  0.20566  1.0000
  S   S324      1.0  0.46808  0.92030  0.18817  1.0000
  H   H2311     1.0  0.26551  0.91489  0.09585  1.0000
  H   H2312     1.0  0.38630  0.75556  0.07077  1.0000
  H   H2313     1.0  0.29811  0.70790  0.98109  1.0000
  H   H2314     1.0  0.35235  0.80786  0.08185  1.0000
  H   H2315     1.0  0.34614  0.66176  0.33690  1.0000
  Fe  Fe158     1.0  0.35310  0.80018  0.44179  1.0000
  S   S325      1.0  0.32899  0.80996  0.43041  1.0000
  S   S326      1.0  0.37682  0.81220  0.43338  1.0000
  H   H2316     1.0  0.47381  0.87014  0.11202  1.0000
  C   C1307     1.0  0.29011  0.66221  0.98323  1.0000
  Fe  Fe159     1.0  0.33229  0.78239  0.42812  1.0000
  S   S327      1.0  0.32966  0.77417  0.40471  1.0000
  S   S328      1.0  0.35750  0.77334  0.43724  1.0000
  H   H2317     1.0  0.35349  0.78658  0.10762  1.0000
  C   C1308     1.0  0.27409  0.75306  0.32027  1.0000
  C   C1309     1.0  0.47381  0.86507  0.14798  1.0000
  H   H2318     1.0  0.38916  0.71197  0.22238  1.0000
  H   H2319     1.0  0.44905  0.72181  0.47325  1.0000
  H   H2320     1.0  0.35735  0.70423  0.24829  1.0000
  C   C1310     1.0  0.34411  0.67425  0.34115  1.0000
  H   H2321     1.0  0.24820  0.73226  0.36934  1.0000
  C   C1311     1.0  0.39749  0.81348  0.37554  1.0000
  C   C1312     1.0  0.40744  0.81750  0.38527  1.0000
  C   C1313     1.0  0.40092  0.81746  0.40301  1.0000
  C   C1314     1.0  0.38476  0.81285  0.41109  1.0000
  C   C1315     1.0  0.37502  0.80852  0.40136  1.0000
  C   C1316     1.0  0.38122  0.80914  0.38357  1.0000
  H   H2322     1.0  0.41996  0.82099  0.37904  1.0000
  H   H2323     1.0  0.40846  0.82090  0.41047  1.0000
  H   H2324     1.0  0.36258  0.80492  0.40744  1.0000
  H   H2325     1.0  0.37348  0.80608  0.37606  1.0000
  C   C1317     1.0  0.47414  0.83408  0.28197  1.0000
  C   C1318     1.0  0.27605  0.66926  0.06247  1.0000
  S   S329      1.0  0.48871  0.92498  0.22559  1.0000
  C   C1319     1.0  0.47820  0.86861  0.27580  1.0000
  C   C1320     1.0  0.46703  0.86187  0.29082  1.0000
  C   C1321     1.0  0.46499  0.84461  0.29390  1.0000
  N   N73       1.0  0.26879  0.84195  0.98353  1.0000
  C   C1322     1.0  0.30174  0.65883  0.04048  1.0000
  H   H2326     1.0  0.45958  0.87014  0.29981  1.0000
  H   H2327     1.0  0.45594  0.83968  0.30522  1.0000
  H   H2328     1.0  0.38913  0.73024  0.15267  1.0000
  S   S330      1.0  0.28787  0.81537  0.46761  1.0000
  C   C1323     1.0  0.39079  0.73134  0.02450  1.0000
  C   C1324     1.0  0.39672  0.72585  0.04026  1.0000
  C   C1325     1.0  0.40945  0.73322  0.04341  1.0000
  C   C1326     1.0  0.39775  0.74444  0.01191  1.0000
  H   H2329     1.0  0.39164  0.71561  0.05001  1.0000
  H   H2330     1.0  0.41398  0.72866  0.05552  1.0000
  C   C1327     1.0  0.43004  0.74675  0.28530  1.0000
  C   C1328     1.0  0.42480  0.73425  0.29968  1.0000
  C   C1329     1.0  0.43033  0.73218  0.31516  1.0000
  C   C1330     1.0  0.44100  0.74277  0.31630  1.0000
  C   C1331     1.0  0.44691  0.75482  0.30173  1.0000
  C   C1332     1.0  0.44148  0.75672  0.28617  1.0000
  H   H2331     1.0  0.41668  0.72600  0.29890  1.0000
  H   H2332     1.0  0.42608  0.72264  0.32633  1.0000
  H   H2333     1.0  0.45546  0.76281  0.30251  1.0000
  H   H2334     1.0  0.44552  0.76638  0.27505  1.0000
  C   C1333     1.0  0.40865  0.67629  0.26472  1.0000
  H   H2335     1.0  0.32638  0.88761  0.13149  1.0000
  S   S331      1.0  0.28300  0.70726  0.36240  1.0000
  H   H2336     1.0  0.27251  0.78644  0.35963  1.0000
  C   C1334     1.0  0.43924  0.67885  0.25626  1.0000
  C   C1335     1.0  0.42136  0.68658  0.25999  1.0000
  N   N74       1.0  0.25610  0.76401  0.34831  1.0000
  H   H2337     1.0  0.44902  0.68676  0.25244  1.0000
  H   H2338     1.0  0.41741  0.70048  0.25887  1.0000
  C   C1336     1.0  0.35723  0.82162  0.22022  1.0000
  C   C1337     1.0  0.35315  0.81366  0.20879  1.0000
  C   C1338     1.0  0.34939  0.79692  0.21450  1.0000
  C   C1339     1.0  0.35051  0.78783  0.23140  1.0000
  C   C1340     1.0  0.35380  0.79612  0.24303  1.0000
  C   C1341     1.0  0.35676  0.81313  0.23755  1.0000
  H   H2339     1.0  0.35296  0.82035  0.19553  1.0000
  H   H2340     1.0  0.34652  0.79069  0.20553  1.0000
  H   H2341     1.0  0.35401  0.78947  0.25626  1.0000
  H   H2342     1.0  0.35937  0.81947  0.24657  1.0000
  C   C1342     1.0  0.42352  0.79885  0.14248  1.0000
  C   C1343     1.0  0.43429  0.79450  0.12721  1.0000
  C   C1344     1.0  0.42928  0.78441  0.11842  1.0000
  C   C1345     1.0  0.41369  0.77832  0.12511  1.0000
  C   C1346     1.0  0.40240  0.78353  0.13980  1.0000
  C   C1347     1.0  0.40725  0.79398  0.14838  1.0000
  H   H2343     1.0  0.44646  0.79897  0.12210  1.0000
  H   H2344     1.0  0.43756  0.78134  0.10651  1.0000
  H   H2345     1.0  0.39014  0.77917  0.14474  1.0000
  H   H2346     1.0  0.39876  0.79757  0.16002  1.0000
  C   C1348     1.0  0.42917  0.89927  0.16990  1.0000
  C   C1349     1.0  0.42987  0.91687  0.16606  1.0000
  C   C1350     1.0  0.44154  0.92283  0.17222  1.0000
  C   C1351     1.0  0.45287  0.91136  0.18239  1.0000
  C   C1352     1.0  0.45215  0.89362  0.18662  1.0000
  C   C1353     1.0  0.44026  0.88758  0.18038  1.0000
  H   H2347     1.0  0.42152  0.92601  0.15790  1.0000
  H   H2348     1.0  0.44197  0.93649  0.16880  1.0000
  H   H2349     1.0  0.46123  0.88457  0.19400  1.0000
  H   H2350     1.0  0.44011  0.87391  0.18307  1.0000
  C   C1354     1.0  0.34968  0.85387  0.12059  1.0000
  C   C1355     1.0  0.34013  0.84406  0.13474  1.0000
  C   C1356     1.0  0.32610  0.83792  0.13258  1.0000
  C   C1357     1.0  0.32165  0.84124  0.11625  1.0000
  C   C1358     1.0  0.33140  0.85077  0.10204  1.0000
  C   C1359     1.0  0.34528  0.85712  0.10423  1.0000
  H   H2351     1.0  0.34333  0.84151  0.14741  1.0000
  H   H2352     1.0  0.31859  0.83061  0.14368  1.0000
  H   H2353     1.0  0.32810  0.85343  0.08943  1.0000
  H   H2354     1.0  0.35256  0.86476  0.09323  1.0000
  C   C1360     1.0  0.31434  0.80623  0.02107  1.0000
  C   C1361     1.0  0.31943  0.80604  0.00333  1.0000
  C   C1362     1.0  0.31505  0.79363  0.99672  1.0000
  C   C1363     1.0  0.30532  0.78167  0.00784  1.0000
  C   C1364     1.0  0.30049  0.78175  0.02553  1.0000
  C   C1365     1.0  0.30531  0.79376  0.03217  1.0000
  H   H2355     1.0  0.32670  0.81546  0.99473  1.0000
  H   H2356     1.0  0.35065  0.70269  0.46228  1.0000
  H   H2357     1.0  0.29346  0.77216  0.03416  1.0000
  H   H2358     1.0  0.30252  0.79297  0.04598  1.0000
  H   H2359     1.0  0.27889  0.67881  0.01919  1.0000
  C   C1366     1.0  0.27520  0.68278  0.08762  1.0000
  H   H2360     1.0  0.27404  0.77743  0.45144  1.0000
  H   H2361     1.0  0.40080  0.77168  0.42785  1.0000
  H   H2362     1.0  0.43599  0.77413  0.43499  1.0000
  C   C1367     1.0  0.28010  0.83578  0.99702  1.0000
  C   C1368     1.0  0.41286  0.76503  0.43309  1.0000
  H   H2363     1.0  0.24754  0.83040  0.01880  1.0000
  S   S332      1.0  0.24957  0.73175  0.05846  1.0000
  C   C1369     1.0  0.30118  0.71681  0.35204  1.0000
  C   C1370     1.0  0.30845  0.71622  0.33459  1.0000
  C   C1371     1.0  0.32304  0.72365  0.32602  1.0000
  C   C1372     1.0  0.33043  0.73174  0.33486  1.0000
  C   C1373     1.0  0.32295  0.73263  0.35225  1.0000
  C   C1374     1.0  0.30844  0.72503  0.36088  1.0000
  H   H2364     1.0  0.30292  0.70979  0.32773  1.0000
  H   H2365     1.0  0.32869  0.72294  0.31263  1.0000
  H   H2366     1.0  0.32860  0.73887  0.35917  1.0000
  H   H2367     1.0  0.30287  0.72555  0.37433  1.0000
  C   C1375     1.0  0.31815  0.72004  0.42629  1.0000
  C   C1376     1.0  0.31565  0.72856  0.40959  1.0000
  C   C1377     1.0  0.32010  0.74486  0.40243  1.0000
  C   C1378     1.0  0.32685  0.75268  0.41208  1.0000
  C   C1379     1.0  0.33038  0.74362  0.42828  1.0000
  C   C1380     1.0  0.32595  0.72738  0.43541  1.0000
  H   H2368     1.0  0.31033  0.72256  0.40221  1.0000
  H   H2369     1.0  0.31797  0.75157  0.38965  1.0000
  H   H2370     1.0  0.33635  0.74916  0.43548  1.0000
  H   H2371     1.0  0.32807  0.72083  0.44823  1.0000
  H   H2372     1.0  0.35728  0.69896  0.21932  1.0000
  Fe  Fe160     1.0  0.43239  0.75621  0.09552  1.0000
  H   H2373     1.0  0.25020  0.89496  0.01151  1.0000
  H   H2374     1.0  0.44165  0.65949  0.22366  1.0000
  H   H2375     1.0  0.27815  0.70961  0.03799  1.0000
  C   C1381     1.0  0.25480  0.67360  0.01650  1.0000
  H   H2376     1.0  0.26454  0.76211  0.04661  1.0000
  H   H2377     1.0  0.28046  0.76146  0.43788  1.0000
  H   H2378     1.0  0.29275  0.71317  0.47496  1.0000
  H   H2379     1.0  0.49379  0.82299  0.31143  1.0000
  H   H2380     1.0  0.24951  0.74392  0.38483  1.0000
  H   H2381     1.0  0.27219  0.76633  0.31220  1.0000
  H   H2382     1.0  0.26246  0.74318  0.10982  1.0000
  Fe  Fe161     1.0  0.28947  0.69826  0.42475  1.0000
  C   C1382     1.0  0.33442  0.65674  0.03759  1.0000
  C   C1383     1.0  0.37039  0.80429  0.10738  1.0000
  C   C1384     1.0  0.43949  0.75214  0.15764  1.0000
  H   H2383     1.0  0.29813  0.67557  0.06899  1.0000
  H   H2384     1.0  0.34480  0.69039  0.30667  1.0000
  H   H2385     1.0  0.27841  0.78452  0.41185  1.0000
  C   C1385     1.0  0.27561  0.84648  0.01149  1.0000
  H   H2386     1.0  0.30267  0.87419  0.13056  1.0000
  H   H2387     1.0  0.26561  0.84539  0.37954  1.0000
  H   H2388     1.0  0.43293  0.74201  0.16678  1.0000
  H   H2389     1.0  0.43236  0.76489  0.16063  1.0000
  H   H2390     1.0  0.44660  0.70230  0.30115  1.0000
  C   C1386     1.0  0.28802  0.85885  0.00890  1.0000
  C   C1387     1.0  0.26276  0.74741  0.09605  1.0000
  S   S333      1.0  0.33863  0.79395  0.46931  1.0000
  H   H2391     1.0  0.46899  0.73138  0.23665  1.0000
  H   H2392     1.0  0.29219  0.70413  0.01806  1.0000
  C   C1388     1.0  0.39250  0.76655  0.07001  1.0000
  N   N75       1.0  0.37870  0.76357  0.35186  1.0000
  C   C1389     1.0  0.39300  0.76592  0.35954  1.0000
  C   C1390     1.0  0.38487  0.76574  0.33248  1.0000
  C   C1391     1.0  0.36253  0.77697  0.35660  1.0000
  C   C1392     1.0  0.37434  0.74580  0.35883  1.0000
  C   C1393     1.0  0.38988  0.73011  0.35659  1.0000
  C   C1394     1.0  0.39083  0.76012  0.37951  1.0000
  C   C1395     1.0  0.34667  0.77771  0.34864  1.0000
  C   C1396     1.0  0.38758  0.78417  0.32266  1.0000
  C   C1397     1.0  0.39521  0.78447  0.30341  1.0000
  C   C1398     1.0  0.38866  0.72031  0.34326  1.0000
  C   C1399     1.0  0.40618  0.76287  0.38561  1.0000
  C   C1400     1.0  0.33172  0.79265  0.35321  1.0000
  H   H2393     1.0  0.39399  0.77983  0.35643  1.0000
  H   H2394     1.0  0.40613  0.75927  0.35348  1.0000
  H   H2395     1.0  0.39758  0.75668  0.32936  1.0000
  H   H2396     1.0  0.37575  0.76187  0.32656  1.0000
  H   H2397     1.0  0.36566  0.79017  0.35315  1.0000
  H   H2398     1.0  0.35776  0.77464  0.37090  1.0000
  H   H2399     1.0  0.36797  0.74435  0.37282  1.0000
  H   H2400     1.0  0.36404  0.74434  0.35274  1.0000
  H   H2401     1.0  0.38969  0.72084  0.36925  1.0000
  H   H2402     1.0  0.40286  0.73374  0.35292  1.0000
  H   H2403     1.0  0.37866  0.76768  0.38617  1.0000
  H   H2404     1.0  0.39045  0.74613  0.38379  1.0000
  H   H2405     1.0  0.34147  0.76562  0.35381  1.0000
  H   H2406     1.0  0.35022  0.77959  0.33431  1.0000
  H   H2407     1.0  0.37499  0.79367  0.32367  1.0000
  H   H2408     1.0  0.39674  0.78861  0.32793  1.0000
  H   H2409     1.0  0.39676  0.79784  0.29662  1.0000
  H   H2410     1.0  0.40827  0.77577  0.30170  1.0000
  H   H2411     1.0  0.40393  0.75952  0.39995  1.0000
  H   H2412     1.0  0.41854  0.75451  0.38028  1.0000
  H   H2413     1.0  0.40754  0.77664  0.38137  1.0000
  H   H2414     1.0  0.32726  0.79104  0.36750  1.0000
  H   H2415     1.0  0.33597  0.80527  0.34792  1.0000
  H   H2416     1.0  0.32051  0.79279  0.34752  1.0000
  C   C1401     1.0  0.35795  0.68489  0.30987  1.0000
  H   H2417     1.0  0.45435  0.67209  0.32030  1.0000
  H   H2418     1.0  0.25978  0.68480  0.03523  1.0000
  C   C1402     1.0  0.49418  0.88492  0.13608  1.0000
  C   C1403     1.0  0.30357  0.66402  0.99040  1.0000
  H   H2419     1.0  0.32501  0.66439  0.38412  1.0000
  H   H2420     1.0  0.27951  0.87856  0.08684  1.0000
  H   H2421     1.0  0.26120  0.94292  0.42802  1.0000
  H   H2422     1.0  0.25959  0.65312  0.04763  1.0000
  C   C1404     1.0  0.48952  0.83596  0.33254  1.0000
  C   C1405     1.0  0.28722  0.76735  0.37666  1.0000
  H   H2423     1.0  0.26564  0.78611  0.33083  1.0000
  H   H2424     1.0  0.48693  0.77670  0.27322  1.0000
  H   H2425     1.0  0.47757  0.79375  0.22625  1.0000
  H   H2426     1.0  0.29043  0.66705  0.37394  1.0000
  H   H2427     1.0  0.28223  0.86409  0.12541  1.0000
  H   H2428     1.0  0.45800  0.78117  0.02191  1.0000
  C   C1406     1.0  0.36371  0.70929  0.21999  1.0000
  C   C1407     1.0  0.25295  0.85059  0.13188  1.0000
  H   H2429     1.0  0.44260  0.76891  0.40547  1.0000
  H   H2430     1.0  0.28392  0.76197  0.34567  1.0000
  C   C1408     1.0  0.42374  0.74865  0.46012  1.0000
  C   C1409     1.0  0.48724  0.79178  0.12816  1.0000
  H   H2431     1.0  0.31348  0.88309  0.10917  1.0000
  H   H2432     1.0  0.27070  0.69580  0.07986  1.0000
  H   H2433     1.0  0.28709  0.75009  0.32381  1.0000
  H   H2434     1.0  0.41168  0.67266  0.18124  1.0000
  H   H2435     1.0  0.25672  0.65442  0.45989  1.0000
  H   H2436     1.0  0.25952  0.81646  0.36505  1.0000
  H   H2437     1.0  0.35188  0.83423  0.03774  1.0000
  H   H2438     1.0  0.41069  0.72827  0.43715  1.0000
  H   H2439     1.0  0.31171  0.65258  0.99653  1.0000
  H   H2440     1.0  0.29971  0.76578  0.36699  1.0000
  H   H2441     1.0  0.28737  0.77714  0.38395  1.0000
  H   H2442     1.0  0.28631  0.75483  0.38593  1.0000
  H   H2443     1.0  0.49061  0.76100  0.11870  1.0000
  H   H2444     1.0  0.34129  0.81919  0.05485  1.0000
  C   C1410     1.0  0.34864  0.82978  0.05204  1.0000
  H   H2445     1.0  0.46585  0.74049  0.25553  1.0000
  H   H2446     1.0  0.48319  0.88848  0.16298  1.0000
  H   H2447     1.0  0.25350  0.71652  0.02438  1.0000
  C   C1411     1.0  0.44463  0.80244  0.24529  1.0000
  H   H2448     1.0  0.47026  0.77462  0.23894  1.0000
  C   C1412     1.0  0.26495  0.91083  0.44752  1.0000
  H   H2449     1.0  0.38927  0.72887  0.33022  1.0000
  H   H2450     1.0  0.48878  0.71032  0.27511  1.0000
  H   H2451     1.0  0.43474  0.80982  0.25443  1.0000
  H   H2452     1.0  0.44606  0.81090  0.23219  1.0000
  H   H2453     1.0  0.43996  0.79077  0.24511  1.0000
  N   N76       1.0  0.33473  0.74466  0.06598  1.0000
  C   C1413     1.0  0.31833  0.73740  0.06997  1.0000
  C   C1414     1.0  0.33187  0.75786  0.07710  1.0000
  C   C1415     1.0  0.33724  0.75411  0.04725  1.0000
  C   C1416     1.0  0.35093  0.73083  0.06837  1.0000
  C   C1417     1.0  0.34857  0.71439  0.08268  1.0000
  C   C1418     1.0  0.31768  0.72609  0.05743  1.0000
  C   C1419     1.0  0.35219  0.76453  0.04093  1.0000
  C   C1420     1.0  0.32930  0.75095  0.09694  1.0000
  C   C1421     1.0  0.32380  0.76583  0.10675  1.0000
  C   C1422     1.0  0.36625  0.70280  0.08516  1.0000
  C   C1423     1.0  0.30453  0.71421  0.06558  1.0000
  C   C1424     1.0  0.35591  0.77028  0.02121  1.0000
  H   H2454     1.0  0.30659  0.74815  0.06964  1.0000
  H   H2455     1.0  0.31603  0.72973  0.08337  1.0000
  H   H2456     1.0  0.34326  0.76428  0.07384  1.0000
  H   H2457     1.0  0.32037  0.76836  0.07441  1.0000
  H   H2458     1.0  0.32498  0.76327  0.04472  1.0000
  H   H2459     1.0  0.33997  0.74482  0.03844  1.0000
  H   H2460     1.0  0.35711  0.72593  0.05617  1.0000
  H   H2461     1.0  0.36108  0.73654  0.07081  1.0000
  H   H2462     1.0  0.34112  0.70656  0.07901  1.0000
  H   H2463     1.0  0.34142  0.71758  0.09534  1.0000
  H   H2464     1.0  0.31355  0.73473  0.04558  1.0000
  H   H2465     1.0  0.33068  0.71794  0.05343  1.0000
  H   H2466     1.0  0.36450  0.75668  0.04482  1.0000
  H   H2467     1.0  0.34843  0.77651  0.04634  1.0000
  H   H2468     1.0  0.31907  0.74303  0.10185  1.0000
  H   H2469     1.0  0.34187  0.74312  0.10026  1.0000
  H   H2470     1.0  0.33276  0.77511  0.10152  1.0000
  H   H2471     1.0  0.31029  0.77285  0.10566  1.0000
  H   H2472     1.0  0.32402  0.76065  0.12071  1.0000
  H   H2473     1.0  0.37438  0.70994  0.08886  1.0000
  H   H2474     1.0  0.36422  0.69127  0.09559  1.0000
  H   H2475     1.0  0.37335  0.69822  0.07301  1.0000
  H   H2476     1.0  0.30450  0.70633  0.05626  1.0000
  H   H2477     1.0  0.30810  0.70524  0.07749  1.0000
  H   H2478     1.0  0.29118  0.72202  0.06886  1.0000
  H   H2479     1.0  0.34413  0.77873  0.01678  1.0000
  H   H2480     1.0  0.36666  0.77764  0.01705  1.0000
  H   H2481     1.0  0.35989  0.75893  0.01486  1.0000
  N   N77       1.0  0.34369  0.67094  0.36040  1.0000
  C   C1425     1.0  0.34723  0.68647  0.36496  1.0000
  H   H2482     1.0  0.25563  0.87836  0.04043  1.0000
  C   C1426     1.0  0.48635  0.77465  0.01810  1.0000
  C   C1427     1.0  0.34574  0.68581  0.38450  1.0000
  C   C1428     1.0  0.35115  0.70156  0.38712  1.0000
  H   H2483     1.0  0.33795  0.69828  0.36013  1.0000
  H   H2484     1.0  0.36035  0.68905  0.35820  1.0000
  H   H2485     1.0  0.32028  0.69685  0.47183  1.0000
  C   C1429     1.0  0.43706  0.73485  0.45087  1.0000
  C   C1430     1.0  0.25935  0.75109  0.33675  1.0000
  N   N78       1.0  0.48725  0.76051  0.14615  1.0000
  H   H2486     1.0  0.33203  0.68602  0.39165  1.0000
  C   C1431     1.0  0.41388  0.65830  0.26630  1.0000
  H   H2487     1.0  0.35379  0.69855  0.33031  1.0000
  C   C1432     1.0  0.26962  0.76777  0.06922  1.0000
  H   H2488     1.0  0.34296  0.71378  0.38138  1.0000
  H   H2489     1.0  0.34934  0.70114  0.40121  1.0000
  H   H2490     1.0  0.36512  0.70158  0.38107  1.0000
  H   H2491     1.0  0.28622  0.86979  0.99780  1.0000
  C   C1433     1.0  0.35325  0.79719  0.11391  1.0000
  H   H2492     1.0  0.39505  0.79908  0.06686  1.0000
  C   C1434     1.0  0.43732  0.91913  0.24900  1.0000
  N   N79       1.0  0.42154  0.77264  0.20783  1.0000
  C   C1435     1.0  0.40961  0.78203  0.19533  1.0000
  C   C1436     1.0  0.43932  0.77724  0.20036  1.0000
  C   C1437     1.0  0.42363  0.75345  0.20877  1.0000
  C   C1438     1.0  0.41444  0.77641  0.22587  1.0000
  C   C1439     1.0  0.40316  0.79474  0.22740  1.0000
  C   C1440     1.0  0.39107  0.77765  0.20011  1.0000
  C   C1441     1.0  0.43686  0.74114  0.21957  1.0000
  C   C1442     1.0  0.44065  0.79615  0.19921  1.0000
  C   C1443     1.0  0.45893  0.79932  0.19000  1.0000
  C   C1444     1.0  0.39795  0.79689  0.24628  1.0000
  C   C1445     1.0  0.38883  0.76503  0.19005  1.0000
  C   C1446     1.0  0.43509  0.72228  0.22266  1.0000
  H   H2493     1.0  0.41586  0.77979  0.18204  1.0000
  H   H2494     1.0  0.40769  0.79630  0.19380  1.0000
  H   H2495     1.0  0.44895  0.76932  0.20832  1.0000
  H   H2496     1.0  0.44418  0.77429  0.18711  1.0000
  H   H2497     1.0  0.42766  0.75047  0.19552  1.0000
  H   H2498     1.0  0.41086  0.74942  0.21458  1.0000
  H   H2499     1.0  0.40606  0.76709  0.23390  1.0000
  H   H2500     1.0  0.42537  0.77417  0.23274  1.0000
  H   H2501     1.0  0.39089  0.79677  0.22274  1.0000
  H   H2502     1.0  0.40992  0.80530  0.21970  1.0000
  H   H2503     1.0  0.38697  0.77269  0.21420  1.0000
  H   H2504     1.0  0.38175  0.78992  0.19667  1.0000
  H   H2505     1.0  0.43487  0.74459  0.23233  1.0000
  H   H2506     1.0  0.45049  0.74170  0.21262  1.0000
  H   H2507     1.0  0.43111  0.80571  0.19211  1.0000
  H   H2508     1.0  0.43846  0.79863  0.21242  1.0000
  H   H2509     1.0  0.46002  0.81241  0.19083  1.0000
  H   H2510     1.0  0.46913  0.78965  0.19616  1.0000
  H   H2511     1.0  0.46127  0.79867  0.17609  1.0000
  H   H2512     1.0  0.39099  0.81043  0.24690  1.0000
  H   H2513     1.0  0.38909  0.78799  0.25396  1.0000
  H   H2514     1.0  0.40954  0.79407  0.25225  1.0000
  H   H2515     1.0  0.38965  0.77117  0.17618  1.0000
  H   H2516     1.0  0.39877  0.75288  0.19114  1.0000
  H   H2517     1.0  0.37567  0.76174  0.19519  1.0000
  H   H2518     1.0  0.42141  0.72075  0.22830  1.0000
  H   H2519     1.0  0.43952  0.71752  0.21031  1.0000
  H   H2520     1.0  0.44330  0.71420  0.23196  1.0000
  H   H2521     1.0  0.33759  0.65331  0.02461  1.0000
  S   S334      1.0  0.34965  0.75118  0.98165  1.0000
  H   H2522     1.0  0.44044  0.79168  0.40478  1.0000
  H   H2523     1.0  0.40709  0.78198  0.45928  1.0000
  C   C1447     1.0  0.26700  0.67465  0.02774  1.0000
  H   H2524     1.0  0.48110  0.73268  0.19602  1.0000
  H   H2525     1.0  0.48535  0.85482  0.15068  1.0000
  C   C1448     1.0  0.32544  0.66872  0.36995  1.0000
  C   C1449     1.0  0.48283  0.67723  0.27998  1.0000
  C   C1450     1.0  0.35514  0.71510  0.23715  1.0000
  H   H2526     1.0  0.48729  0.72899  0.24654  1.0000
  H   H2527     1.0  0.24551  0.85577  0.14360  1.0000
  C   C1451     1.0  0.35753  0.68484  0.32874  1.0000
  H   H2528     1.0  0.27987  0.89594  0.46741  1.0000
  H   H2529     1.0  0.31649  0.65238  0.06180  1.0000
  H   H2530     1.0  0.34083  0.71959  0.23790  1.0000
  H   H2531     1.0  0.37095  0.67982  0.33111  1.0000
  H   H2532     1.0  0.29408  0.78603  0.42318  1.0000
  H   H2533     1.0  0.48273  0.68783  0.33974  1.0000
  N   N80       1.0  0.27461  0.82088  0.40973  1.0000
  C   C1452     1.0  0.26679  0.83823  0.41493  1.0000
  H   H2534     1.0  0.39304  0.74433  0.42948  1.0000
  C   C1453     1.0  0.27059  0.80680  0.42546  1.0000
  C   C1454     1.0  0.29417  0.81821  0.40312  1.0000
  C   C1455     1.0  0.30196  0.83446  0.39321  1.0000
  C   C1456     1.0  0.27282  0.84116  0.43047  1.0000
  H   H2535     1.0  0.44479  0.66967  0.20108  1.0000
  H   H2536     1.0  0.25943  0.84158  0.47888  1.0000
  S   S335      1.0  0.27560  0.77457  0.09849  1.0000
  C   C1457     1.0  0.32071  0.82927  0.38345  1.0000
  H   H2537     1.0  0.26262  0.66742  0.06946  1.0000
  C   C1458     1.0  0.27195  0.65686  0.03977  1.0000
  H   H2538     1.0  0.26112  0.92595  0.46667  1.0000
  H   H2539     1.0  0.26925  0.84906  0.40385  1.0000
  C   C1459     1.0  0.35270  0.69573  0.47544  1.0000
  H   H2540     1.0  0.44835  0.69187  0.28404  1.0000
  H   H2541     1.0  0.27098  0.74045  0.02209  1.0000
  H   H2542     1.0  0.28589  0.74144  0.29768  1.0000
  H   H2543     1.0  0.30107  0.81264  0.41411  1.0000
  H   H2544     1.0  0.29843  0.80823  0.39486  1.0000
  H   H2545     1.0  0.30230  0.84225  0.40251  1.0000
  H   H2546     1.0  0.29432  0.84309  0.38371  1.0000
  H   H2547     1.0  0.26463  0.83554  0.44278  1.0000
  H   H2548     1.0  0.28668  0.83485  0.43069  1.0000
  Fe  Fe162     1.0  0.31476  0.80124  0.45749  1.0000
  H   H2549     1.0  0.39615  0.73592  0.46795  1.0000
  H   H2550     1.0  0.45993  0.73836  0.45835  1.0000
  H   H2551     1.0  0.28236  0.82801  0.37170  1.0000
  C   C1460     1.0  0.25709  0.74334  0.06961  1.0000
  Fe  Fe163     1.0  0.48269  0.66381  0.22873  1.0000
  H   H2552     1.0  0.29669  0.71942  0.02823  1.0000
  H   H2553     1.0  0.32088  0.82265  0.37300  1.0000
  H   H2554     1.0  0.32641  0.84102  0.37747  1.0000
  H   H2555     1.0  0.32905  0.82045  0.39236  1.0000
  H   H2556     1.0  0.39815  0.65593  0.16883  1.0000
  H   H2557     1.0  0.25224  0.84006  0.41852  1.0000
  H   H2558     1.0  0.38171  0.75264  0.45727  1.0000
  C   C1461     1.0  0.28674  0.89765  0.11725  1.0000
  H   H2559     1.0  0.31608  0.68143  0.36825  1.0000
  C   C1462     1.0  0.31772  0.65553  0.36466  1.0000
  C   C1463     1.0  0.38016  0.77912  0.08101  1.0000
  H   H2560     1.0  0.34962  0.80065  0.14042  1.0000
  H   H2561     1.0  0.26246  0.74361  0.30383  1.0000
  H   H2562     1.0  0.39555  0.77314  0.05619  1.0000
  H   H2563     1.0  0.48881  0.68294  0.15818  1.0000
  S   S336      1.0  0.45925  0.70283  0.17873  1.0000
  H   H2564     1.0  0.28309  0.88595  0.44913  1.0000
  H   H2565     1.0  0.27650  0.72689  0.31635  1.0000
  C   C1464     1.0  0.39715  0.73523  0.44111  1.0000
  C   C1465     1.0  0.46870  0.78555  0.02494  1.0000
  S   S337      1.0  0.48226  0.78766  0.07024  1.0000
  C   C1466     1.0  0.35014  0.79030  0.13350  1.0000
  N   N81       1.0  0.43228  0.87279  0.24750  1.0000
  C   C1467     1.0  0.26390  0.75806  0.06046  1.0000
  H   H2566     1.0  0.27665  0.83734  0.02404  1.0000
  H   H2567     1.0  0.31646  0.65952  0.35087  1.0000
  H   H2568     1.0  0.43086  0.75830  0.46123  1.0000
  C   C1468     1.0  0.25366  0.75160  0.99024  1.0000
  H   H2569     1.0  0.26883  0.80612  0.39366  1.0000
  C   C1469     1.0  0.28762  0.88315  0.09331  1.0000
  C   C1470     1.0  0.48511  0.87232  0.11617  1.0000
  C   C1471     1.0  0.40286  0.86915  0.21732  1.0000
  H   H2570     1.0  0.38644  0.78029  0.29739  1.0000
  H   H2571     1.0  0.26390  0.98188  0.42724  1.0000
  C   C1472     1.0  0.24547  0.82711  0.00711  1.0000
  C   C1473     1.0  0.27282  0.77468  0.43913  1.0000
  C   C1474     1.0  0.39104  0.66068  0.18088  1.0000
  N   N82       1.0  0.47314  0.69143  0.29000  1.0000
  C   C1475     1.0  0.47593  0.78560  0.23955  1.0000
  H   H2572     1.0  0.28377  0.74600  0.46812  1.0000
  C   C1476     1.0  0.36544  0.82326  0.05920  1.0000
  H   H2573     1.0  0.27466  0.74729  0.36347  1.0000
  H   H2574     1.0  0.38810  0.72646  0.19336  1.0000
  H   H2575     1.0  0.27465  0.77923  0.06216  1.0000
  C   C1477     1.0  0.47301  0.72940  0.24920  1.0000
  S   S338      1.0  0.26599  0.68857  0.44205  1.0000
  H   H2576     1.0  0.36791  0.81563  0.11370  1.0000
  H   H2577     1.0  0.37624  0.71548  0.34704  1.0000
  C   C1478     1.0  0.41661  0.74611  0.03072  1.0000
  H   H2578     1.0  0.25994  0.83857  0.35388  1.0000
  C   C1479     1.0  0.26857  0.83161  0.37841  1.0000
  C   C1480     1.0  0.49222  0.66002  0.29020  1.0000
  H   H2579     1.0  0.25205  0.91495  0.12724  1.0000
  H   H2580     1.0  0.39973  0.70902  0.34249  1.0000
  S   S339      1.0  0.27433  0.72062  0.40849  1.0000
  H   H2581     1.0  0.36257  0.67157  0.30720  1.0000
  H   H2582     1.0  0.25620  0.80748  0.42937  1.0000
  H   H2583     1.0  0.25087  0.82161  0.40152  1.0000
  H   H2584     1.0  0.44053  0.71834  0.15135  1.0000
  Fe  Fe164     1.0  0.27701  0.70183  0.39162  1.0000
  C   C1481     1.0  0.46429  0.70096  0.15685  1.0000
  C   C1482     1.0  0.45270  0.71061  0.14608  1.0000
  C   C1483     1.0  0.45705  0.71081  0.12827  1.0000
  H   H2585     1.0  0.44807  0.71855  0.12007  1.0000
  C   C1484     1.0  0.41060  0.75172  0.01500  1.0000
  H   H2586     1.0  0.30589  0.90136  0.08421  1.0000
  C   C1485     1.0  0.28620  0.71468  0.02541  1.0000
  H   H2587     1.0  0.45961  0.79031  0.26500  1.0000
  C   C1486     1.0  0.46203  0.79709  0.25124  1.0000
  H   H2588     1.0  0.27957  0.82223  0.00383  1.0000
  C   C1487     1.0  0.45301  0.72780  0.45936  1.0000
  H   H2589     1.0  0.25480  0.81734  0.33128  1.0000
  H   H2590     1.0  0.26570  0.85928  0.10579  1.0000
  C   C1488     1.0  0.46876  0.71237  0.26071  1.0000
  C   C1489     1.0  0.27068  0.86043  0.43023  1.0000
  H   H2591     1.0  0.46809  0.79947  0.01882  1.0000
  H   H2592     1.0  0.41426  0.66522  0.21369  1.0000
  C   C1490     1.0  0.47487  0.70881  0.27816  1.0000
  Fe  Fe165     1.0  0.26934  0.67257  0.42223  1.0000
  H   H2593     1.0  0.25317  0.68564  0.00647  1.0000
  H   H2594     1.0  0.29775  0.87155  0.09688  1.0000
  C   C1491     1.0  0.44925  0.67436  0.30830  1.0000
  H   H2595     1.0  0.38706  0.67302  0.20939  1.0000
  C   C1492     1.0  0.27323  0.89368  0.45796  1.0000
  H   H2596     1.0  0.25892  0.77495  0.43947  1.0000
  H   H2597     1.0  0.29416  0.83507  0.99068  1.0000
  S   S340      1.0  0.36099  0.70909  0.98168  1.0000
  H   H2598     1.0  0.30186  0.85185  0.00681  1.0000
  H   H2599     1.0  0.39506  0.68649  0.16977  1.0000
  H   H2600     1.0  0.46507  0.73623  0.15604  1.0000
  H   H2601     1.0  0.37135  0.72857  0.45012  1.0000
  H   H2602     1.0  0.33746  0.78592  0.13791  1.0000
  C   C1493     1.0  0.40229  0.81906  0.09468  1.0000
  C   C1494     1.0  0.47253  0.84346  0.22327  1.0000
  H   H2603     1.0  0.38081  0.79449  0.11316  1.0000
  Fe  Fe166     1.0  0.47978  0.68755  0.19400  1.0000
  Fe  Fe167     1.0  0.34107  0.76772  0.46384  1.0000
  H   H2604     1.0  0.27576  0.91721  0.43936  1.0000
  C   C1495     1.0  0.25938  0.72409  0.01178  1.0000
  Fe  Fe168     1.0  0.33283  0.70757  0.99304  1.0000
  H   H2605     1.0  0.46650  0.78408  0.03922  1.0000
  N   N83       1.0  0.27656  0.88953  0.10930  1.0000
  H   H2606     1.0  0.47524  0.70192  0.25339  1.0000
  H   H2607     1.0  0.31654  0.90811  0.11971  1.0000
  H   H2608     1.0  0.33120  0.68185  0.33829  1.0000
  C   C1496     1.0  0.29675  0.89665  0.07919  1.0000
  C   C1497     1.0  0.45103  0.92472  0.11809  1.0000
  H   H2609     1.0  0.30146  0.67303  0.03631  1.0000
  H   H2610     1.0  0.40449  0.86433  0.30702  1.0000
  H   H2611     1.0  0.46899  0.83110  0.16182  1.0000
  H   H2612     1.0  0.27891  0.90086  0.12980  1.0000
  H   H2613     1.0  0.35428  0.67402  0.39041  1.0000
  S   S341      1.0  0.31598  0.77435  0.45436  1.0000
  H   H2614     1.0  0.29856  0.88472  0.05739  1.0000
  C   C1498     1.0  0.31374  0.89601  0.12889  1.0000
  C   C1499     1.0  0.28620  0.67035  0.07584  1.0000
  H   H2615     1.0  0.26452  0.84061  0.13516  1.0000
  H   H2616     1.0  0.31900  0.79342  0.98303  1.0000
  H   H2617     1.0  0.41274  0.80859  0.08983  1.0000
  H   H2618     1.0  0.36788  0.78343  0.07600  1.0000
  C   C1500     1.0  0.29944  0.65420  0.37550  1.0000
  H   H2619     1.0  0.47285  0.79493  0.12959  1.0000
  C   C1501     1.0  0.47993  0.69070  0.14987  1.0000
  H   H2620     1.0  0.45285  0.84574  0.17417  1.0000
  C   C1502     1.0  0.27471  0.74046  0.30887  1.0000
  S   S342      1.0  0.25226  0.69272  0.40600  1.0000
  H   H2621     1.0  0.45901  0.70229  0.32317  1.0000
  C   C1503     1.0  0.45678  0.84114  0.16173  1.0000
  C   C1504     1.0  0.26528  0.81940  0.39635  1.0000
  C   C1505     1.0  0.38739  0.68395  0.19795  1.0000
  H   H2622     1.0  0.39490  0.74497  0.16270  1.0000
  C   C1506     1.0  0.48130  0.69009  0.30524  1.0000
  H   H2623     1.0  0.42147  0.83111  0.09912  1.0000
  C   C1507     1.0  0.48420  0.69070  0.13198  1.0000
  H   H2624     1.0  0.38683  0.71486  0.43661  1.0000
  C   C1508     1.0  0.26894  0.76253  0.08705  1.0000
  S   S343      1.0  0.43852  0.77462  0.07040  1.0000
  S   S344      1.0  0.49294  0.78464  0.36151  1.0000
  C   C1509     1.0  0.41697  0.86075  0.29790  1.0000
  H   H2625     1.0  0.46878  0.87036  0.15999  1.0000
  H   H2626     1.0  0.28001  0.86633  0.41912  1.0000
  C   C1510     1.0  0.44439  0.66083  0.25768  1.0000
  H   H2627     1.0  0.45458  0.66293  0.30207  1.0000
  H   H2628     1.0  0.26304  0.88604  0.46508  1.0000
  H   H2629     1.0  0.42327  0.68718  0.31994  1.0000
  H   H2630     1.0  0.30563  0.89920  0.14133  1.0000
  H   H2631     1.0  0.25383  0.81428  0.00580  1.0000
  H   H2632     1.0  0.42155  0.69113  0.18981  1.0000
  H   H2633     1.0  0.48323  0.84623  0.22787  1.0000
  H   H2634     1.0  0.34187  0.80769  0.11119  1.0000
  H   H2635     1.0  0.42740  0.86496  0.30154  1.0000
  H   H2636     1.0  0.42016  0.84640  0.29935  1.0000
  H   H2637     1.0  0.41214  0.88382  0.27865  1.0000
  C   C1511     1.0  0.27163  0.77334  0.36766  1.0000
  C   C1512     1.0  0.45949  0.85620  0.14642  1.0000
  H   H2638     1.0  0.47784  0.76282  0.26596  1.0000
  H   H2639     1.0  0.47265  0.71701  0.30962  1.0000
  Fe  Fe169     1.0  0.25101  0.70961  0.42448  1.0000
  S   S345      1.0  0.43334  0.75528  0.03368  1.0000
  C   C1513     1.0  0.24968  0.84153  0.99094  1.0000
  H   H2640     1.0  0.46640  0.80911  0.25069  1.0000
  H   H2641     1.0  0.44677  0.86546  0.14651  1.0000
  C   C1514     1.0  0.25868  0.86518  0.11717  1.0000
  H   H2642     1.0  0.45640  0.83913  0.24871  1.0000
  H   H2643     1.0  0.37340  0.81248  0.05278  1.0000
  C   C1515     1.0  0.41512  0.86962  0.27932  1.0000
  C   C1516     1.0  0.25314  0.94988  0.43841  1.0000
  C   C1517     1.0  0.39743  0.67664  0.18159  1.0000
  H   H2644     1.0  0.37868  0.71551  0.18291  1.0000
  H   H2645     1.0  0.41090  0.70601  0.16566  1.0000
  H   H2646     1.0  0.41084  0.73469  0.14660  1.0000
  H   H2647     1.0  0.39792  0.81483  0.10886  1.0000
  H   H2648     1.0  0.40070  0.84546  0.09741  1.0000
  H   H2649     1.0  0.25713  0.86740  0.42921  1.0000
  Fe  Fe170     1.0  0.44358  0.75114  0.05854  1.0000
  H   H2650     1.0  0.45324  0.93579  0.10714  1.0000
  H   H2651     1.0  0.45834  0.74740  0.17356  1.0000
  H   H2652     1.0  0.47188  0.85142  0.21008  1.0000
  H   H2653     1.0  0.48622  0.73879  0.28968  1.0000
  H   H2654     1.0  0.41238  0.67828  0.22924  1.0000
  H   H2655     1.0  0.44285  0.68213  0.21730  1.0000
  H   H2656     1.0  0.42373  0.67769  0.30187  1.0000
  C   C1518     1.0  0.40568  0.71756  0.17164  1.0000
  H   H2657     1.0  0.37356  0.68843  0.19639  1.0000
  H   H2658     1.0  0.26417  0.87808  0.13513  1.0000
  C   C1519     1.0  0.41049  0.83478  0.09209  1.0000
  H   H2659     1.0  0.36074  0.77912  0.13687  1.0000
  H   H2660     1.0  0.39340  0.74881  0.99971  1.0000
  C   C1520     1.0  0.45397  0.69086  0.29550  1.0000
  H   H2661     1.0  0.43894  0.75178  0.14422  1.0000
  H   H2662     1.0  0.46122  0.77517  0.15472  1.0000
  H   H2663     1.0  0.31392  0.89858  0.05381  1.0000
  H   H2664     1.0  0.37909  0.65359  0.34487  1.0000
  H   H2665     1.0  0.27444  0.68243  0.05426  1.0000
  C   C1521     1.0  0.45504  0.84734  0.23580  1.0000
  C   C1522     1.0  0.46689  0.90981  0.11673  1.0000
  Fe  Fe171     1.0  0.32261  0.74620  0.99324  1.0000
  H   H2666     1.0  0.41824  0.85406  0.24544  1.0000
  H   H2667     1.0  0.41603  0.76166  0.00507  1.0000
  H   H2668     1.0  0.40317  0.87364  0.20318  1.0000
  H   H2669     1.0  0.44511  0.84344  0.23114  1.0000
  H   H2670     1.0  0.34016  0.84081  0.05781  1.0000
  C   C1523     1.0  0.39072  0.71470  0.18768  1.0000
  H   H2671     1.0  0.41660  0.72051  0.17569  1.0000
  H   H2672     1.0  0.41567  0.83943  0.07812  1.0000
  S   S346      1.0  0.29901  0.76661  0.99985  1.0000
  H   H2673     1.0  0.42299  0.78407  0.40072  1.0000
  N   N84       1.0  0.47916  0.87904  0.13281  1.0000
  H   H2674     1.0  0.47573  0.82959  0.22236  1.0000
  H   H2675     1.0  0.45810  0.89802  0.14371  1.0000
  C   C1524     1.0  0.43201  0.86399  0.26620  1.0000
  S   S347      1.0  0.45963  0.75034  0.10037  1.0000
  Fe  Fe172     1.0  0.46369  0.72879  0.08633  1.0000
  S   S348      1.0  0.32321  0.68230  0.99924  1.0000
  H   H2676     1.0  0.46042  0.86879  0.24271  1.0000
  H   H2677     1.0  0.40494  0.87444  0.24817  1.0000
  H   H2678     1.0  0.27467  0.80867  0.43683  1.0000
  H   H2679     1.0  0.43378  0.84970  0.26774  1.0000
  H   H2680     1.0  0.35305  0.82836  0.08471  1.0000
  H   H2681     1.0  0.45277  0.88931  0.12839  1.0000
  C   C1525     1.0  0.46360  0.89373  0.13116  1.0000
  H   H2682     1.0  0.40371  0.85488  0.22064  1.0000
  C   C1526     1.0  0.41801  0.86826  0.24154  1.0000
  H   H2683     1.0  0.44333  0.86583  0.27049  1.0000
  C   C1527     1.0  0.42509  0.77830  0.42791  1.0000
  H   H2684     1.0  0.28535  0.86433  0.02073  1.0000
  H   H2685     1.0  0.44193  0.74027  0.43704  1.0000
  H   H2686     1.0  0.26466  0.71449  0.00317  1.0000
  N   N85       1.0  0.39394  0.69836  0.20138  1.0000
  C   C1528     1.0  0.45842  0.74879  0.15963  1.0000
  H   H2687     1.0  0.36047  0.72608  0.23811  1.0000
  C   C1529     1.0  0.45011  0.86676  0.23701  1.0000
  C   C1530     1.0  0.38528  0.72197  0.44709  1.0000
  S   S349      1.0  0.48946  0.88462  0.22372  1.0000
  S   S350      1.0  0.47943  0.70367  0.09840  1.0000
  H   H2688     1.0  0.37999  0.66557  0.36055  1.0000
  H   H2689     1.0  0.43035  0.86733  0.21425  1.0000
  C   C1531     1.0  0.41816  0.87387  0.22182  1.0000
  H   H2690     1.0  0.44627  0.83521  0.16057  1.0000
  H   H2691     1.0  0.39017  0.87559  0.22434  1.0000
  H   H2692     1.0  0.45174  0.87477  0.22367  1.0000
  H   H2693     1.0  0.44894  0.92922  0.13041  1.0000
  H   H2694     1.0  0.28381  0.73410  0.00241  1.0000
  C   C1532     1.0  0.41306  0.69316  0.20247  1.0000
  C   C1533     1.0  0.38372  0.70235  0.21874  1.0000
  C   C1534     1.0  0.38693  0.82357  0.08489  1.0000
  H   H2695     1.0  0.37806  0.83559  0.08858  1.0000
  H   H2696     1.0  0.39951  0.78889  0.08740  1.0000
  H   H2697     1.0  0.37753  0.77169  0.09451  1.0000
  H   H2698     1.0  0.33240  0.67105  0.03601  1.0000
  C   C1535     1.0  0.25703  0.83003  0.36681  1.0000
  H   H2699     1.0  0.45438  0.71356  0.26294  1.0000
  C   C1536     1.0  0.29600  0.69519  0.98160  1.0000
  H   H2700     1.0  0.24670  0.87432  0.11388  1.0000
  C   C1537     1.0  0.46756  0.76376  0.14852  1.0000
  C   C1538     1.0  0.27519  0.72970  0.01491  1.0000
  H   H2701     1.0  0.36711  0.69305  0.30132  1.0000
  C   C1539     1.0  0.43325  0.78086  0.40855  1.0000
  H   H2702     1.0  0.43863  0.89506  0.26744  1.0000
  H   H2703     1.0  0.47834  0.91458  0.11749  1.0000
  H   H2704     1.0  0.46918  0.90656  0.10376  1.0000
  C   C1540     1.0  0.42911  0.89228  0.24521  1.0000
  H   H2705     1.0  0.41709  0.88809  0.21740  1.0000
  H   H2706     1.0  0.41522  0.89767  0.25056  1.0000
  H   H2707     1.0  0.45489  0.89485  0.24774  1.0000
  H   H2708     1.0  0.41724  0.70392  0.20554  1.0000
  C   C1541     1.0  0.27204  0.76084  0.35602  1.0000
  H   H2709     1.0  0.25482  0.89837  0.09590  1.0000
  N   N86       1.0  0.37660  0.80951  0.08796  1.0000
  H   H2710     1.0  0.39284  0.82718  0.07091  1.0000
  C   C1542     1.0  0.38853  0.79450  0.08047  1.0000
  H   H2711     1.0  0.46371  0.76744  0.13563  1.0000
  C   C1543     1.0  0.30659  0.68051  0.98958  1.0000
  H   H2712     1.0  0.43904  0.92056  0.11764  1.0000
  H   H2713     1.0  0.43119  0.89841  0.23116  1.0000
  C   C1544     1.0  0.44089  0.89932  0.25312  1.0000
  C   C1545     1.0  0.41831  0.67645  0.21582  1.0000
  H   H2714     1.0  0.40487  0.76123  0.07483  1.0000
  C   C1546     1.0  0.49320  0.80849  0.12712  1.0000
  H   H2715     1.0  0.47492  0.76334  0.18016  1.0000
  C   C1547     1.0  0.30451  0.88640  0.12113  1.0000
  C   C1548     1.0  0.42940  0.67596  0.31348  1.0000
  H   H2716     1.0  0.28923  0.91028  0.10890  1.0000
  Fe  Fe173     1.0  0.46643  0.76674  0.07413  1.0000
  H   H2717     1.0  0.46301  0.85087  0.13445  1.0000
  C   C1549     1.0  0.36118  0.81711  0.07917  1.0000
  H   H2718     1.0  0.41750  0.79108  0.43069  1.0000
  S   S351      1.0  0.47227  0.74476  0.05997  1.0000
  C   C1550     1.0  0.43811  0.67171  0.21434  1.0000
  H   H2719     1.0  0.49053  0.88228  0.10544  1.0000
  H   H2720     1.0  0.44021  0.92407  0.23475  1.0000
  H   H2721     1.0  0.26146  0.75824  0.99510  1.0000
  S   S352      1.0  0.47644  0.69260  0.22054  1.0000
  H   H2722     1.0  0.44593  0.92372  0.25488  1.0000
  H   H2723     1.0  0.42349  0.92451  0.25440  1.0000
  H   H2724     1.0  0.48127  0.67728  0.31411  1.0000
  C   C1551     1.0  0.39548  0.74540  0.45547  1.0000
  H   H2725     1.0  0.47400  0.67395  0.27323  1.0000
  H   H2726     1.0  0.37254  0.83411  0.05546  1.0000
  C   C1552     1.0  0.48557  0.84073  0.26720  1.0000
  C   C1553     1.0  0.25293  0.78207  0.33720  1.0000
  C   C1554     1.0  0.30729  0.88878  0.06357  1.0000
  H   H2727     1.0  0.36080  0.72059  0.20946  1.0000
  H   H2728     1.0  0.35709  0.68162  0.47560  1.0000
  H   H2729     1.0  0.46704  0.71963  0.28461  1.0000
  H   H2730     1.0  0.26693  0.97192  0.40882  1.0000
  N   N87       1.0  0.49330  0.77873  0.24514  1.0000
  C   C1555     1.0  0.48856  0.75595  0.17847  1.0000
  H   H2731     1.0  0.48065  0.90825  0.14704  1.0000
  H   H2732     1.0  0.25082  0.94738  0.47937  1.0000
  H   H2733     1.0  0.43105  0.72370  0.45187  1.0000
  C   C1556     1.0  0.27073  0.87429  0.12248  1.0000
  C   C1557     1.0  0.25656  0.73799  0.08740  1.0000
  C   C1558     1.0  0.25254  0.92267  0.45975  1.0000
  S   S353      1.0  0.48410  0.65868  0.20252  1.0000
  C   C1559     1.0  0.48983  0.76825  0.26354  1.0000
  H   H2734     1.0  0.41924  0.75459  0.42569  1.0000
  H   H2735     1.0  0.48930  0.82384  0.34258  1.0000
  H   H2736     1.0  0.38724  0.78016  0.45479  1.0000
  N   N88       1.0  0.40793  0.75764  0.45224  1.0000
  H   H2737     1.0  0.26197  0.85378  0.01299  1.0000
  H   H2738     1.0  0.26013  0.66243  0.00987  1.0000
  H   H2739     1.0  0.28174  0.80539  0.98683  1.0000
  H   H2740     1.0  0.41964  0.74188  0.47372  1.0000
  H   H2741     1.0  0.48985  0.73601  0.16465  1.0000
  H   H2742     1.0  0.47631  0.71074  0.33961  1.0000
  H   H2743     1.0  0.28308  0.68424  0.09637  1.0000
  C   C1560     1.0  0.39844  0.77268  0.46101  1.0000
  H   H2744     1.0  0.26302  0.73762  0.34390  1.0000
  C   C1561     1.0  0.48787  0.85779  0.26433  1.0000
  H   H2745     1.0  0.28700  0.90797  0.07438  1.0000
  H   H2746     1.0  0.48700  0.78362  0.15514  1.0000
  H   H2747     1.0  0.25290  0.74503  0.42577  1.0000
  H   H2748     1.0  0.42624  0.66397  0.32262  1.0000
  N   N89       1.0  0.28425  0.65568  0.05151  1.0000
  C   C1562     1.0  0.48268  0.70094  0.33139  1.0000
  H   H2749     1.0  0.46226  0.71775  0.45267  1.0000
  H   H2750     1.0  0.48767  0.77669  0.00386  1.0000
  H   H2751     1.0  0.26276  0.95226  0.44483  1.0000
  C   C1563     1.0  0.26110  0.90302  0.10415  1.0000
  H   H2752     1.0  0.25797  0.90770  0.43891  1.0000
  H   H2753     1.0  0.48737  0.74693  0.20618  1.0000
  C   C1564     1.0  0.47266  0.70358  0.31696  1.0000
  H   H2754     1.0  0.28985  0.65761  0.08433  1.0000
  H   H2755     1.0  0.26366  0.67750  0.09573  1.0000
  C   C1565     1.0  0.48955  0.89565  0.15053  1.0000
  H   H2756     1.0  0.27877  0.66280  0.47293  1.0000
  Fe  Fe174     1.0  0.49243  0.89854  0.24304  1.0000
  H   H2757     1.0  0.47585  0.84232  0.33137  1.0000
  C   C1566     1.0  0.25709  0.97870  0.41849  1.0000
  H   H2758     1.0  0.48593  0.76085  0.02384  1.0000
  H   H2759     1.0  0.25449  0.77438  0.40823  1.0000
  H   H2760     1.0  0.48096  0.73364  0.13101  1.0000
  C   C1567     1.0  0.49399  0.74865  0.16159  1.0000
  C   C1568     1.0  0.28716  0.83256  0.47733  1.0000
  H   H2761     1.0  0.48724  0.81367  0.13914  1.0000
  H   H2762     1.0  0.49333  0.68184  0.26942  1.0000
  H   H2763     1.0  0.25167  0.72643  0.09443  1.0000
  C   C1569     1.0  0.49275  0.77761  0.14357  1.0000
  H   H2764     1.0  0.30112  0.67911  0.47183  1.0000
  C   C1570     1.0  0.24546  0.87611  0.03526  1.0000
  H   H2765     1.0  0.49355  0.80089  0.25526  1.0000
  H   H2766     1.0  0.31080  0.73126  0.47884  1.0000
  H   H2767     1.0  0.48318  0.65431  0.30166  1.0000
  H   H2768     1.0  0.48902  0.81835  0.11598  1.0000
  H   H2769     1.0  0.49266  0.83271  0.25791  1.0000
  H   H2770     1.0  0.49352  0.84780  0.09507  1.0000
  H   H2771     1.0  0.30434  0.65415  0.02815  1.0000
  C   C1571     1.0  0.49027  0.74144  0.19433  1.0000
  H   H2772     1.0  0.31474  0.82707  0.47723  1.0000
  H   H2773     1.0  0.24561  0.79662  0.05360  1.0000
  H   H2774     1.0  0.27931  0.69157  0.47722  1.0000
  C   C1572     1.0  0.37594  0.65416  0.35882  1.0000
  H   H2775     1.0  0.36314  0.70049  0.47847  1.0000
  H   H2776     1.0  0.49310  0.78751  0.11577  1.0000
  C   C1573     1.0  0.24668  0.90911  0.11928  1.0000
  H   H2777     1.0  0.24666  0.78215  0.32640  1.0000
  H   H2778     1.0  0.24709  0.75164  0.33245  1.0000
  H   H2779     1.0  0.24463  0.96766  0.46531  1.0000
  N   N90       1.0  0.24553  0.73861  0.00479  1.0000
  H   H2780     1.0  0.31509  0.80325  0.53855  1.0000
  H   H2781     1.0  0.31466  0.66882  0.94604  1.0000
  H   H2782     1.0  0.31481  0.72520  0.86055  1.0000
  S   S354      1.0  0.31165  0.72484  0.55906  1.0000
  S   S355      1.0  0.27243  0.70180  0.56606  1.0000
  Fe  Fe175     1.0  0.27446  0.89903  0.78160  1.0000
  S   S356      1.0  0.30133  0.89008  0.76675  1.0000
  S   S357      1.0  0.26959  0.90381  0.80852  1.0000
  Fe  Fe176     1.0  0.25637  0.90090  0.75228  1.0000
  S   S358      1.0  0.28175  0.89187  0.73502  1.0000
  H   H2783     1.0  0.32238  0.73581  0.87340  1.0000
  Fe  Fe177     1.0  0.28800  0.87281  0.75907  1.0000
  S   S359      1.0  0.30018  0.84504  0.75762  1.0000
  Fe  Fe178     1.0  0.29257  0.91003  0.74442  1.0000
  S   S360      1.0  0.30727  0.92927  0.72511  1.0000
  C   C1574     1.0  0.25954  0.82446  0.54822  1.0000
  S   S361      1.0  0.26665  0.92051  0.75987  1.0000
  Fe  Fe179     1.0  0.27838  0.78054  0.88519  1.0000
  H   H2784     1.0  0.34617  0.83552  0.83337  1.0000
  S   S362      1.0  0.28870  0.78351  0.90731  1.0000
  Fe  Fe180     1.0  0.27889  0.78247  0.84727  1.0000
  H   H2785     1.0  0.26066  0.87465  0.83769  1.0000
  S   S363      1.0  0.29694  0.78192  0.82138  1.0000
  H   H2786     1.0  0.26607  0.82423  0.73629  1.0000
  C   C1575     1.0  0.30092  0.84813  0.49025  1.0000
  H   H2787     1.0  0.28630  0.66659  0.63669  1.0000
  H   H2788     1.0  0.38556  0.81966  0.82756  1.0000
  S   S364      1.0  0.27578  0.80279  0.86253  1.0000
  S   S365      1.0  0.28444  0.76007  0.86935  1.0000
  C   C1576     1.0  0.28475  0.74613  0.48146  1.0000
  H   H2789     1.0  0.34745  0.97508  0.77736  1.0000
  S   S366      1.0  0.35606  0.73795  0.93490  1.0000
  H   H2790     1.0  0.38151  0.75932  0.48361  1.0000
  C   C1577     1.0  0.29321  0.68245  0.49901  1.0000
  H   H2791     1.0  0.44137  0.95767  0.79704  1.0000
  H   H2792     1.0  0.27223  0.93070  0.63230  1.0000
  H   H2793     1.0  0.31320  0.89665  0.66569  1.0000
  S   S367      1.0  0.36500  0.96085  0.74076  1.0000
  C   C1578     1.0  0.27057  0.86042  0.97511  1.0000
  C   C1579     1.0  0.26632  0.65483  0.57038  1.0000
  H   H2794     1.0  0.32052  0.72331  0.90541  1.0000
  H   H2795     1.0  0.24799  0.66504  0.69032  1.0000
  H   H2796     1.0  0.28639  0.85999  0.70648  1.0000
  C   C1580     1.0  0.28502  0.92157  0.63266  1.0000
  H   H2797     1.0  0.26801  0.91826  0.70590  1.0000
  H   H2798     1.0  0.29260  0.92235  0.61913  1.0000
  H   H2799     1.0  0.27031  0.85023  0.89697  1.0000
  H   H2800     1.0  0.28737  0.82027  0.54453  1.0000
  H   H2801     1.0  0.28368  0.75194  0.95070  1.0000
  C   C1581     1.0  0.32895  0.82584  0.80640  1.0000
  C   C1582     1.0  0.30747  0.77029  0.91444  1.0000
  C   C1583     1.0  0.31069  0.77210  0.92993  1.0000
  C   C1584     1.0  0.32550  0.76212  0.93623  1.0000
  C   C1585     1.0  0.33753  0.75051  0.92681  1.0000
  C   C1586     1.0  0.33454  0.74884  0.91107  1.0000
  C   C1587     1.0  0.31932  0.75850  0.90503  1.0000
  H   H2802     1.0  0.30164  0.78125  0.93714  1.0000
  H   H2803     1.0  0.32779  0.76368  0.94826  1.0000
  H   H2804     1.0  0.34391  0.73994  0.90370  1.0000
  H   H2805     1.0  0.31688  0.75708  0.89304  1.0000
  H   H2806     1.0  0.28648  0.75780  0.96954  1.0000
  C   C1588     1.0  0.29734  0.82795  0.77562  1.0000
  C   C1589     1.0  0.28577  0.83017  0.79137  1.0000
  C   C1590     1.0  0.28482  0.81597  0.80555  1.0000
  C   C1591     1.0  0.29546  0.79967  0.80385  1.0000
  C   C1592     1.0  0.30639  0.79749  0.78792  1.0000
  C   C1593     1.0  0.30731  0.81151  0.77392  1.0000
  H   H2807     1.0  0.27778  0.84280  0.79267  1.0000
  H   H2808     1.0  0.27624  0.81766  0.81783  1.0000
  H   H2809     1.0  0.31448  0.78492  0.78647  1.0000
  H   H2810     1.0  0.31609  0.80965  0.76175  1.0000
  H   H2811     1.0  0.31251  0.84994  0.49343  1.0000
  C   C1594     1.0  0.28715  0.77079  0.57608  1.0000
  S   S368      1.0  0.26179  0.88033  0.77563  1.0000
  H   H2812     1.0  0.28832  0.86041  0.88751  1.0000
  H   H2813     1.0  0.27033  0.84743  0.82628  1.0000
  C   C1595     1.0  0.27973  0.85323  0.88450  1.0000
  H   H2814     1.0  0.30064  0.66963  0.50457  1.0000
  C   C1596     1.0  0.32291  0.93794  0.73029  1.0000
  C   C1597     1.0  0.32891  0.95215  0.71866  1.0000
  C   C1598     1.0  0.34181  0.95909  0.72181  1.0000
  C   C1599     1.0  0.34877  0.95204  0.73676  1.0000
  C   C1600     1.0  0.34276  0.93783  0.74851  1.0000
  C   C1601     1.0  0.32984  0.93079  0.74530  1.0000
  H   H2815     1.0  0.32366  0.95779  0.70706  1.0000
  H   H2816     1.0  0.34669  0.96964  0.71237  1.0000
  H   H2817     1.0  0.34816  0.93223  0.76005  1.0000
  H   H2818     1.0  0.32544  0.91972  0.75427  1.0000
  C   C1602     1.0  0.32227  0.73069  0.53735  1.0000
  C   C1603     1.0  0.33932  0.72191  0.53200  1.0000
  C   C1604     1.0  0.34803  0.72584  0.51473  1.0000
  C   C1605     1.0  0.34000  0.73902  0.50280  1.0000
  C   C1606     1.0  0.32312  0.74827  0.50817  1.0000
  C   C1607     1.0  0.31418  0.74396  0.52542  1.0000
  H   H2819     1.0  0.34571  0.71181  0.54118  1.0000
  H   H2820     1.0  0.36108  0.71869  0.51064  1.0000
  H   H2821     1.0  0.31688  0.75850  0.49898  1.0000
  H   H2822     1.0  0.30122  0.75108  0.52954  1.0000
  H   H2823     1.0  0.25478  0.88663  0.60580  1.0000
  C   C1608     1.0  0.35707  0.82427  0.83195  1.0000
  H   H2824     1.0  0.27697  0.93229  0.57759  1.0000
  H   H2825     1.0  0.33237  0.71329  0.48860  1.0000
  S   S369      1.0  0.26313  0.73480  0.58591  1.0000
  H   H2826     1.0  0.31728  0.84241  0.82594  1.0000
  C   C1609     1.0  0.42881  0.98149  0.78205  1.0000
  H   H2827     1.0  0.25828  0.90110  0.63082  1.0000
  H   H2828     1.0  0.37427  0.83659  0.83941  1.0000
  Fe  Fe181     1.0  0.34982  0.73344  0.96417  1.0000
  H   H2829     1.0  0.27449  0.70479  0.96816  1.0000
  H   H2830     1.0  0.28667  0.69896  0.93749  1.0000
  H   H2831     1.0  0.33905  0.68462  0.96120  1.0000
  C   C1610     1.0  0.31980  0.97985  0.77702  1.0000
  H   H2832     1.0  0.29198  0.96724  0.79309  1.0000
  C   C1611     1.0  0.25127  0.94254  0.70928  1.0000
  H   H2833     1.0  0.27393  0.73178  0.97804  1.0000
  C   C1612     1.0  0.34583  0.69281  0.94967  1.0000
  C   C1613     1.0  0.32376  0.84352  0.81211  1.0000
  C   C1614     1.0  0.27559  0.81160  0.97551  1.0000
  H   H2834     1.0  0.32185  0.96767  0.77227  1.0000
  H   H2835     1.0  0.24906  0.82516  0.78795  1.0000
  C   C1615     1.0  0.34316  0.79530  0.80921  1.0000
  H   H2836     1.0  0.26905  0.66498  0.49498  1.0000
  C   C1616     1.0  0.28905  0.96265  0.76886  1.0000
  C   C1617     1.0  0.32852  0.79014  0.86621  1.0000
  H   H2837     1.0  0.30002  0.80556  0.50664  1.0000
  C   C1618     1.0  0.25242  0.92183  0.80819  1.0000
  C   C1619     1.0  0.32850  0.80688  0.83517  1.0000
  H   H2838     1.0  0.30057  0.83619  0.86922  1.0000
  H   H2839     1.0  0.30554  0.78528  0.52053  1.0000
  H   H2840     1.0  0.32212  0.67090  0.54989  1.0000
  H   H2841     1.0  0.30578  0.78034  0.55443  1.0000
  H   H2842     1.0  0.29776  0.93970  0.63706  1.0000
  H   H2843     1.0  0.31863  0.88055  0.82750  1.0000
  H   H2844     1.0  0.31422  0.79057  0.86903  1.0000
  H   H2845     1.0  0.28356  0.88619  0.61132  1.0000
  H   H2846     1.0  0.33556  0.84916  0.80971  1.0000
  H   H2847     1.0  0.34320  0.80554  0.78144  1.0000
  C   C1620     1.0  0.26646  0.85329  0.85983  1.0000
  C   C1621     1.0  0.33968  0.69265  0.93343  1.0000
  H   H2848     1.0  0.34775  0.69987  0.92211  1.0000
  H   H2849     1.0  0.28949  0.75815  0.57211  1.0000
  H   H2850     1.0  0.29819  0.85259  0.80504  1.0000
  C   C1622     1.0  0.30085  0.82646  0.89627  1.0000
  H   H2851     1.0  0.37101  0.79163  0.48112  1.0000
  C   C1623     1.0  0.31720  0.90097  0.67573  1.0000
  C   C1624     1.0  0.29092  0.83523  0.88161  1.0000
  H   H2852     1.0  0.27296  0.93770  0.66056  1.0000
  H   H2853     1.0  0.28053  0.68458  0.50840  1.0000
  H   H2854     1.0  0.25667  0.74213  0.96643  1.0000
  H   H2855     1.0  0.27809  0.96555  0.76191  1.0000
  N   N91       1.0  0.28221  0.80218  0.53160  1.0000
  H   H2856     1.0  0.29130  0.90404  0.69105  1.0000
  S   S370      1.0  0.25329  0.97065  0.64341  1.0000
  H   H2857     1.0  0.30830  0.95383  0.68633  1.0000
  H   H2858     1.0  0.28469  0.83771  0.70925  1.0000
  C   C1625     1.0  0.28467  0.85862  0.49546  1.0000
  C   C1626     1.0  0.24890  0.67804  0.62068  1.0000
  H   H2859     1.0  0.30093  0.96527  0.75906  1.0000
  H   H2860     1.0  0.37547  0.84059  0.81637  1.0000
  C   C1627     1.0  0.27031  0.69742  0.88194  1.0000
  H   H2861     1.0  0.28887  0.75823  0.48126  1.0000
  H   H2862     1.0  0.31632  0.97663  0.79131  1.0000
  H   H2863     1.0  0.33622  0.82864  0.79279  1.0000
  H   H2864     1.0  0.28464  0.86132  0.97104  1.0000
  C   C1628     1.0  0.29188  0.78484  0.56029  1.0000
  S   S371      1.0  0.35127  0.74299  0.48120  1.0000
  N   N92       1.0  0.33951  0.81106  0.81724  1.0000
  H   H2865     1.0  0.32297  0.93300  0.68682  1.0000
  H   H2866     1.0  0.28370  0.89203  0.58837  1.0000
  C   C1629     1.0  0.31128  0.68051  0.52656  1.0000
  H   H2867     1.0  0.27891  0.91494  0.66722  1.0000
  H   H2868     1.0  0.26111  0.66058  0.55832  1.0000
  H   H2869     1.0  0.29784  0.72105  0.89029  1.0000
  C   C1630     1.0  0.26209  0.86879  0.95905  1.0000
  C   C1631     1.0  0.27797  0.81949  0.53702  1.0000
  H   H2870     1.0  0.26218  0.93430  0.82315  1.0000
  C   C1632     1.0  0.33594  0.69922  0.48896  1.0000
  H   H2871     1.0  0.28254  0.90853  0.60007  1.0000
  S   S372      1.0  0.26297  0.67515  0.96552  1.0000
  H   H2872     1.0  0.34318  0.70621  0.95188  1.0000
  C   C1633     1.0  0.31131  0.71322  0.88791  1.0000
  C   C1634     1.0  0.33218  0.95375  0.66745  1.0000
  H   H2873     1.0  0.28573  0.70431  0.91535  1.0000
  N   N93       1.0  0.30307  0.69664  0.49708  1.0000
  H   H2874     1.0  0.28608  0.94097  0.69820  1.0000
  H   H2875     1.0  0.29930  0.80363  0.95702  1.0000
  H   H2876     1.0  0.31266  0.69583  0.94753  1.0000
  C   C1635     1.0  0.26919  0.80275  0.52084  1.0000
  C   C1636     1.0  0.29712  0.87108  0.84653  1.0000
  H   H2877     1.0  0.33036  0.68913  0.53548  1.0000
  H   H2878     1.0  0.34252  0.80543  0.51853  1.0000
  C   C1637     1.0  0.26406  0.93099  0.69753  1.0000
  H   H2879     1.0  0.30625  0.86116  0.85381  1.0000
  C   C1638     1.0  0.30042  0.79937  0.52044  1.0000
  C   C1639     1.0  0.28394  0.84809  0.71621  1.0000
  H   H2880     1.0  0.31683  0.82210  0.80573  1.0000
  C   C1640     1.0  0.31722  0.94480  0.67823  1.0000
  S   S373      1.0  0.26770  0.95797  0.59875  1.0000
  H   H2881     1.0  0.36013  0.68762  0.94813  1.0000
  H   H2882     1.0  0.25791  0.79476  0.80182  1.0000
  H   H2883     1.0  0.25189  0.92104  0.61694  1.0000
  Fe  Fe182     1.0  0.25545  0.76163  0.87470  1.0000
  H   H2884     1.0  0.28428  0.88478  0.86718  1.0000
  C   C1641     1.0  0.26331  0.88793  0.95296  1.0000
  Fe  Fe183     1.0  0.25911  0.97970  0.61438  1.0000
  C   C1642     1.0  0.27305  0.78769  0.51097  1.0000
  H   H2885     1.0  0.33325  0.80639  0.50036  1.0000
  H   H2886     1.0  0.31903  0.71506  0.93492  1.0000
  H   H2887     1.0  0.25722  0.82123  0.91912  1.0000
  C   C1643     1.0  0.27660  0.75678  0.96267  1.0000
  H   H2888     1.0  0.37583  0.78047  0.50201  1.0000
  N   N94       1.0  0.27018  0.86440  0.87032  1.0000
  H   H2889     1.0  0.27193  0.88826  0.85114  1.0000
  C   C1644     1.0  0.30669  0.88573  0.83646  1.0000
  H   H2890     1.0  0.27398  0.70640  0.88805  1.0000
  H   H2891     1.0  0.31068  0.89159  0.84545  1.0000
  H   H2892     1.0  0.26898  0.86247  0.94792  1.0000
  H   H2893     1.0  0.25828  0.85240  0.54076  1.0000
  H   H2894     1.0  0.26554  0.86290  0.73375  1.0000
  H   H2895     1.0  0.24909  0.82536  0.54123  1.0000
  C   C1645     1.0  0.27825  0.89633  0.60092  1.0000
  C   C1646     1.0  0.28261  0.69339  0.97434  1.0000
  C   C1647     1.0  0.35674  0.81525  0.81732  1.0000
  N   N95       1.0  0.29366  0.92944  0.67536  1.0000
  C   C1648     1.0  0.33632  0.79007  0.84706  1.0000
  C   C1649     1.0  0.32002  0.70121  0.93463  1.0000
  H   H2896     1.0  0.36391  0.80353  0.78726  1.0000
  H   H2897     1.0  0.28346  0.77486  0.54266  1.0000
  H   H2898     1.0  0.25747  0.86476  0.49421  1.0000
  C   C1650     1.0  0.27409  0.66549  0.63422  1.0000
  H   H2899     1.0  0.24535  0.91978  0.65032  1.0000
  H   H2900     1.0  0.35608  0.81504  0.84462  1.0000
  H   H2901     1.0  0.34228  0.94477  0.66006  1.0000
  H   H2902     1.0  0.31538  0.80536  0.83429  1.0000
  H   H2903     1.0  0.42503  0.97400  0.77437  1.0000
  C   C1651     1.0  0.31109  0.85642  0.80156  1.0000
  C   C1652     1.0  0.30133  0.91223  0.68562  1.0000
  H   H2904     1.0  0.26491  0.67929  0.90555  1.0000
  H   H2905     1.0  0.27855  0.71465  0.49539  1.0000
  C   C1653     1.0  0.24864  0.65273  0.91386  1.0000
  H   H2906     1.0  0.26808  0.81507  0.51097  1.0000
  H   H2907     1.0  0.27877  0.84567  0.85347  1.0000
  C   C1654     1.0  0.25767  0.68713  0.89536  1.0000
  H   H2908     1.0  0.28533  0.78776  0.50103  1.0000
  H   H2909     1.0  0.30765  0.68039  0.90876  1.0000
  C   C1655     1.0  0.28033  0.87787  0.85902  1.0000
  H   H2910     1.0  0.27075  0.69037  0.61660  1.0000
  H   H2911     1.0  0.25769  0.94424  0.71917  1.0000
  H   H2912     1.0  0.29223  0.73455  0.91453  1.0000
  H   H2913     1.0  0.24980  0.68768  0.68475  1.0000
  H   H2914     1.0  0.27511  0.95256  0.68105  1.0000
  H   H2915     1.0  0.40167  0.76129  0.48799  1.0000
  H   H2916     1.0  0.29064  0.70297  0.52222  1.0000
  H   H2917     1.0  0.26144  0.77871  0.49434  1.0000
  H   H2918     1.0  0.29549  0.76930  0.58555  1.0000
  H   H2919     1.0  0.30512  0.91413  0.69716  1.0000
  H   H2920     1.0  0.32563  0.81775  0.84205  1.0000
  H   H2921     1.0  0.25718  0.89847  0.88185  1.0000
  H   H2922     1.0  0.33097  0.80139  0.87000  1.0000
  H   H2923     1.0  0.31004  0.83435  0.89686  1.0000
  H   H2924     1.0  0.29081  0.72782  0.93757  1.0000
  H   H2925     1.0  0.30106  0.95288  0.65896  1.0000
  C   C1656     1.0  0.28445  0.92692  0.66230  1.0000
  C   C1657     1.0  0.28029  0.78738  0.54699  1.0000
  C   C1658     1.0  0.31850  0.68344  0.54102  1.0000
  H   H2926     1.0  0.26303  0.92630  0.55629  1.0000
  H   H2927     1.0  0.31176  0.70749  0.51460  1.0000
  C   C1659     1.0  0.26221  0.83594  0.74219  1.0000
  H   H2928     1.0  0.29497  0.67020  0.93873  1.0000
  H   H2929     1.0  0.36153  0.82345  0.80462  1.0000
  C   C1660     1.0  0.26526  0.67897  0.62293  1.0000
  H   H2930     1.0  0.28289  0.90813  0.63797  1.0000
  H   H2931     1.0  0.29903  0.73174  0.50094  1.0000
  C   C1661     1.0  0.35241  0.79742  0.78982  1.0000
  H   H2932     1.0  0.27942  0.83004  0.52526  1.0000
  H   H2933     1.0  0.33616  0.78642  0.51643  1.0000
  H   H2934     1.0  0.24646  0.95544  0.70152  1.0000
  H   H2935     1.0  0.25369  0.90804  0.59312  1.0000
  H   H2936     1.0  0.26190  0.80968  0.97867  1.0000
  N   N96       1.0  0.31186  0.69985  0.92035  1.0000
  C   C1662     1.0  0.29239  0.70651  0.92482  1.0000
  S   S374      1.0  0.26822  0.74172  0.54278  1.0000
  H   H2937     1.0  0.33839  0.95778  0.67614  1.0000
  C   C1663     1.0  0.32010  0.71035  0.90360  1.0000
  H   H2938     1.0  0.24864  0.66145  0.92238  1.0000
  C   C1664     1.0  0.28661  0.72586  0.92634  1.0000
  H   H2939     1.0  0.26035  0.72362  0.94115  1.0000
  C   C1665     1.0  0.25285  0.87379  0.87907  1.0000
  C   C1666     1.0  0.30219  0.83519  0.48108  1.0000
  C   C1667     1.0  0.26672  0.73163  0.92916  1.0000
  H   H2940     1.0  0.28558  0.78796  0.96573  1.0000
  H   H2941     1.0  0.29090  0.65225  0.48976  1.0000
  H   H2942     1.0  0.29156  0.82451  0.90894  1.0000
  H   H2943     1.0  0.27429  0.77491  0.51988  1.0000
  H   H2944     1.0  0.41879  0.96513  0.80647  1.0000
  H   H2945     1.0  0.30064  0.67313  0.53267  1.0000
  Fe  Fe184     1.0  0.25608  0.88851  0.51775  1.0000
  H   H2946     1.0  0.29433  0.84400  0.72398  1.0000
  H   H2947     1.0  0.39098  0.79270  0.48666  1.0000
  C   C1668     1.0  0.25216  0.93537  0.81603  1.0000
  H   H2948     1.0  0.32896  0.67667  0.91257  1.0000
  S   S375      1.0  0.25019  0.78266  0.85164  1.0000
  C   C1669     1.0  0.27104  0.84333  0.48207  1.0000
  C   C1670     1.0  0.26589  0.85192  0.72780  1.0000
  H   H2949     1.0  0.28231  0.82651  0.88157  1.0000
  H   H2950     1.0  0.26191  0.73048  0.91792  1.0000
  H   H2951     1.0  0.27250  0.66439  0.57304  1.0000
  H   H2952     1.0  0.30863  0.69232  0.54865  1.0000
  C   C1671     1.0  0.26514  0.74426  0.97426  1.0000
  C   C1672     1.0  0.29814  0.73043  0.48799  1.0000
  H   H2953     1.0  0.33499  0.71537  0.86801  1.0000
  H   H2954     1.0  0.25763  0.81486  0.56057  1.0000
  H   H2955     1.0  0.28028  0.94010  0.78657  1.0000
  C   C1673     1.0  0.31447  0.80689  0.52466  1.0000
  H   H2956     1.0  0.24682  0.80948  0.75779  1.0000
  C   C1674     1.0  0.28016  0.93927  0.68793  1.0000
  C   C1675     1.0  0.31499  0.68131  0.91828  1.0000
  H   H2957     1.0  0.31144  0.82130  0.52113  1.0000
  H   H2958     1.0  0.32802  0.90805  0.66965  1.0000
  S   S376      1.0  0.24984  0.78005  0.89256  1.0000
  H   H2959     1.0  0.32194  0.67231  0.51881  1.0000
  H   H2960     1.0  0.41097  0.97577  0.74144  1.0000
  H   H2961     1.0  0.33568  0.87665  0.68074  1.0000
  H   H2962     1.0  0.28237  0.68856  0.87684  1.0000
  C   C1676     1.0  0.30727  0.94036  0.66641  1.0000
  H   H2963     1.0  0.32722  0.96551  0.65825  1.0000
  H   H2964     1.0  0.29037  0.79691  0.56499  1.0000
  H   H2965     1.0  0.35072  0.78829  0.84516  1.0000
  H   H2966     1.0  0.29831  0.98442  0.69467  1.0000
  H   H2967     1.0  0.26829  0.83573  0.95925  1.0000
  H   H2968     1.0  0.29820  0.89597  0.82863  1.0000
  C   C1677     1.0  0.28149  0.66408  0.48522  1.0000
  C   C1678     1.0  0.29514  0.92657  0.64358  1.0000
  H   H2969     1.0  0.32901  0.88827  0.69826  1.0000
  H   H2970     1.0  0.31424  0.87679  0.69440  1.0000
  C   C1679     1.0  0.32442  0.88468  0.68808  1.0000
  C   C1680     1.0  0.37416  0.83064  0.82855  1.0000
  H   H2971     1.0  0.29458  0.93573  0.76662  1.0000
  H   H2972     1.0  0.26641  0.78854  0.55399  1.0000
  H   H2973     1.0  0.29388  0.86552  0.83688  1.0000
  C   C1681     1.0  0.33269  0.80081  0.51435  1.0000
  H   H2974     1.0  0.30847  0.81351  0.89408  1.0000
  H   H2975     1.0  0.31632  0.85703  0.78745  1.0000
  H   H2976     1.0  0.36710  0.80325  0.81841  1.0000
  Fe  Fe185     1.0  0.28287  0.72575  0.56327  1.0000
  C   C1682     1.0  0.26484  0.94056  0.57480  1.0000
  C   C1683     1.0  0.35865  0.77989  0.78427  1.0000
  H   H2977     1.0  0.33080  0.79095  0.81041  1.0000
  H   H2978     1.0  0.35147  0.78415  0.81640  1.0000
  H   H2979     1.0  0.33345  0.77862  0.84396  1.0000
  H   H2980     1.0  0.33483  0.77815  0.87420  1.0000
  S   S377      1.0  0.28318  0.87410  0.50781  1.0000
  H   H2981     1.0  0.34747  0.77334  0.78658  1.0000
  H   H2982     1.0  0.36458  0.78186  0.77020  1.0000
  H   H2983     1.0  0.36866  0.77139  0.79154  1.0000
  H   H2984     1.0  0.25690  0.92913  0.68834  1.0000
  H   H2985     1.0  0.30782  0.91733  0.64338  1.0000
  H   H2986     1.0  0.30913  0.86959  0.80426  1.0000
  H   H2987     1.0  0.31736  0.93412  0.65658  1.0000
  H   H2988     1.0  0.30352  0.93945  0.78323  1.0000
  C   C1684     1.0  0.25405  0.88615  0.89037  1.0000
  C   C1685     1.0  0.29203  0.94331  0.77691  1.0000
  C   C1686     1.0  0.38166  0.78420  0.48805  1.0000
  H   H2989     1.0  0.25134  0.89086  0.71891  1.0000
  S   S378      1.0  0.25223  0.70832  0.52599  1.0000
  H   H2990     1.0  0.27165  0.83389  0.75073  1.0000
  H   H2991     1.0  0.26434  0.88049  0.89817  1.0000
  C   C1687     1.0  0.25578  0.86295  0.84556  1.0000
  H   H2992     1.0  0.26407  0.70529  0.87098  1.0000
  C   C1688     1.0  0.43120  0.96937  0.79938  1.0000
  C   C1689     1.0  0.25734  0.95470  0.58313  1.0000
  C   C1690     1.0  0.30393  0.69787  0.51506  1.0000
  H   H2993     1.0  0.25149  0.83945  0.84030  1.0000
  H   H2994     1.0  0.25580  0.89541  0.96309  1.0000
  C   C1691     1.0  0.25830  0.89922  0.60462  1.0000
  C   C1692     1.0  0.28548  0.80199  0.96097  1.0000
  H   H2995     1.0  0.26239  0.67300  0.67073  1.0000
  H   H2996     1.0  0.28966  0.83258  0.96353  1.0000
  C   C1693     1.0  0.24960  0.67638  0.67950  1.0000
  H   H2997     1.0  0.28775  0.98308  0.81258  1.0000
  C   C1694     1.0  0.27961  0.67691  0.97515  1.0000
  H   H2998     1.0  0.34237  0.67891  0.93223  1.0000
  H   H2999     1.0  0.24812  0.86780  0.96213  1.0000
  H   H3000     1.0  0.26229  0.66934  0.87817  1.0000
  C   C1695     1.0  0.28438  0.97395  0.78286  1.0000
  C   C1696     1.0  0.25701  0.93719  0.56259  1.0000
  H   H3001     1.0  0.25591  0.80269  0.52914  1.0000
  H   H3002     1.0  0.25780  0.89349  0.94107  1.0000
  H   H3003     1.0  0.33407  0.70415  0.89963  1.0000
  H   H3004     1.0  0.25057  0.85050  0.76949  1.0000
  H   H3005     1.0  0.25622  0.85605  0.71930  1.0000
  C   C1697     1.0  0.32156  0.72299  0.87150  1.0000
  H   H3006     1.0  0.25379  0.81317  0.89325  1.0000
  C   C1698     1.0  0.25005  0.90732  0.62094  1.0000
  H   H3007     1.0  0.27909  0.80668  0.94956  1.0000
  C   C1699     1.0  0.25826  0.78928  0.50167  1.0000
  C   C1700     1.0  0.27595  0.83115  0.96973  1.0000
  H   H3008     1.0  0.31064  0.70072  0.88522  1.0000
  H   H3009     1.0  0.27050  0.97364  0.78947  1.0000
  H   H3010     1.0  0.33914  0.69273  0.50183  1.0000
  C   C1701     1.0  0.24599  0.82780  0.91331  1.0000
  H   H3011     1.0  0.27715  0.88939  0.94988  1.0000
  C   C1702     1.0  0.29254  0.71336  0.48866  1.0000
  H   H3012     1.0  0.25659  0.80189  0.49236  1.0000
  S   S379      1.0  0.24717  0.89351  0.54495  1.0000
  C   C1703     1.0  0.26984  0.85636  0.49102  1.0000
  H   H3013     1.0  0.26295  0.74543  0.93045  1.0000
  H   H3014     1.0  0.27322  0.77425  0.58252  1.0000
  C   C1704     1.0  0.32097  0.69228  0.48579  1.0000
  H   H3015     1.0  0.25272  0.96817  0.74494  1.0000
  H   H3016     1.0  0.25908  0.84347  0.86857  1.0000
  Fe  Fe186     1.0  0.25604  0.71874  0.54746  1.0000
  H   H3017     1.0  0.24566  0.93546  0.87202  1.0000
  H   H3018     1.0  0.43549  0.97596  0.80756  1.0000
  C   C1705     1.0  0.30944  0.66801  0.93496  1.0000
  H   H3019     1.0  0.26714  0.81390  0.77418  1.0000
  C   C1706     1.0  0.25664  0.85128  0.83314  1.0000
  C   C1707     1.0  0.28912  0.68030  0.48209  1.0000
  H   H3020     1.0  0.24944  0.86971  0.63114  1.0000
  H   H3021     1.0  0.42759  0.98128  0.72269  1.0000
  H   H3022     1.0  0.24502  0.88200  0.86943  1.0000
  H   H3023     1.0  0.26862  0.76985  0.95885  1.0000
  H   H3024     1.0  0.32560  0.67797  0.48735  1.0000
  H   H3025     1.0  0.26702  0.84210  0.56011  1.0000
  C   C1708     1.0  0.25712  0.84217  0.55273  1.0000
  C   C1709     1.0  0.25081  0.67587  0.88675  1.0000
  Fe  Fe187     1.0  0.25112  0.71241  0.58656  1.0000
  C   C1710     1.0  0.39105  0.76792  0.48079  1.0000
  Fe  Fe188     1.0  0.24783  0.74922  0.56538  1.0000
  S   S380      1.0  0.32201  0.73061  0.97453  1.0000
  H   H3026     1.0  0.27169  0.74609  0.49016  1.0000
  S   S381      1.0  0.24554  0.91584  0.50523  1.0000
  H   H3027     1.0  0.24581  0.78825  0.51121  1.0000
  H   H3028     1.0  0.24652  0.83109  0.71830  1.0000
  H   H3029     1.0  0.24671  0.69664  0.90103  1.0000
  H   H3030     1.0  0.24488  0.86419  0.88723  1.0000
  H   H3031     1.0  0.25428  0.78742  0.78413  1.0000
  C   C1711     1.0  0.25293  0.81531  0.77968  1.0000
  C   C1712     1.0  0.25005  0.79800  0.79158  1.0000
  Fe  Fe189     1.0  0.24749  0.80108  0.86912  1.0000
  H   H3032     1.0  0.24865  0.85840  0.82328  1.0000
  Fe  Fe190     1.0  0.72951  0.00599  0.13938  1.0000
  S   S382      1.0  0.73050  0.01114  0.11080  1.0000
  S   S383      1.0  0.70564  0.01440  0.15867  1.0000
  H   H3033     1.0  0.65540  0.99230  0.14447  1.0000
  C   C1713     1.0  0.62907  0.00017  0.30755  1.0000
  H   H3034     1.0  0.57173  0.99403  0.22832  1.0000
  H   H3035     1.0  0.57519  0.05102  0.22527  1.0000
  H   H3036     1.0  0.69116  0.00271  0.21610  1.0000
  H   H3037     1.0  0.67604  0.02722  0.41821  1.0000
  H   H3038     1.0  0.68735  0.09590  0.40391  1.0000
  S   S384      1.0  0.72495  0.13909  0.00159  1.0000
  S   S385      1.0  0.72573  0.17916  0.01804  1.0000
  Fe  Fe191     1.0  0.71112  0.99385  0.33472  1.0000
  S   S386      1.0  0.72564  0.09500  0.03516  1.0000
  C   C1714     1.0  0.70433  0.15733  0.46292  1.0000
  H   H3039     1.0  0.55381  0.06317  0.23270  1.0000
  H   H3040     1.0  0.70630  0.17476  0.10182  1.0000
  S   S387      1.0  0.61531  0.25418  0.02799  1.0000
  H   H3041     1.0  0.52246  0.01523  0.23879  1.0000
  Fe  Fe192     1.0  0.70043  0.03277  0.33454  1.0000
  S   S388      1.0  0.68037  0.02960  0.35891  1.0000
  S   S389      1.0  0.70306  0.05955  0.32004  1.0000
  Fe  Fe193     1.0  0.70072  0.00745  0.36851  1.0000
  S   S390      1.0  0.70588  0.00248  0.39577  1.0000
  Fe  Fe194     1.0  0.67313  0.01075  0.34725  1.0000
  C   C1715     1.0  0.65852  0.04294  0.43616  1.0000
  S   S391      1.0  0.69214  0.01545  0.32225  1.0000
  Fe  Fe195     1.0  0.61373  0.00539  0.24346  1.0000
  C   C1716     1.0  0.64666  0.98484  0.33506  1.0000
  S   S392      1.0  0.61200  0.03303  0.22878  1.0000
  H   H3042     1.0  0.69724  0.98662  0.24454  1.0000
  C   C1717     1.0  0.63091  0.27716  0.09339  1.0000
  C   C1718     1.0  0.71268  0.26997  0.46380  1.0000
  S   S393      1.0  0.72858  0.26286  0.37664  1.0000
  H   H3043     1.0  0.74199  0.01669  0.25635  1.0000
  S   S394      1.0  0.63429  0.24599  0.45328  1.0000
  Fe  Fe196     1.0  0.72125  0.21541  0.08892  1.0000
  S   S395      1.0  0.69720  0.21332  0.08141  1.0000
  C   C1719     1.0  0.56556  0.00529  0.21939  1.0000
  Fe  Fe197     1.0  0.70177  0.24285  0.10937  1.0000
  S   S396      1.0  0.67567  0.24304  0.10384  1.0000
  S   S397      1.0  0.70399  0.26011  0.12602  1.0000
  Fe  Fe198     1.0  0.68452  0.21398  0.10911  1.0000
  S   S398      1.0  0.66886  0.19314  0.12144  1.0000
  Fe  Fe199     1.0  0.69077  0.24216  0.07670  1.0000
  S   S399      1.0  0.68335  0.25804  0.05167  1.0000
  S   S400      1.0  0.70922  0.21385  0.11705  1.0000
  S   S401      1.0  0.71620  0.24436  0.08184  1.0000
  C   C1720     1.0  0.67950  0.07615  0.42595  1.0000
  C   C1721     1.0  0.72293  0.05601  0.34391  1.0000
  Fe  Fe200     1.0  0.70059  0.09751  0.18123  1.0000
  S   S402      1.0  0.67328  0.10729  0.19478  1.0000
  S   S403      1.0  0.70884  0.09184  0.15448  1.0000
  Fe  Fe201     1.0  0.71758  0.09845  0.21037  1.0000
  S   S404      1.0  0.69189  0.10863  0.22647  1.0000
  C   C1722     1.0  0.63610  0.30410  0.07045  1.0000
  Fe  Fe202     1.0  0.68159  0.08910  0.21849  1.0000
  S   S405      1.0  0.66808  0.06992  0.23936  1.0000
  Fe  Fe203     1.0  0.68584  0.12592  0.20142  1.0000
  S   S406      1.0  0.67619  0.15485  0.19817  1.0000
  S   S407      1.0  0.70782  0.07772  0.20423  1.0000
  S   S408      1.0  0.71251  0.11737  0.18612  1.0000
  C   C1723     1.0  0.63297  0.01054  0.31701  1.0000
  H   H3044     1.0  0.57905  0.02104  0.22642  1.0000
  C   C1724     1.0  0.68216  0.13861  0.03897  1.0000
  S   S409      1.0  0.68785  0.30026  0.37990  1.0000
  H   H3045     1.0  0.67582  0.99840  0.11508  1.0000
  H   H3046     1.0  0.62694  0.09747  0.45590  1.0000
  H   H3047     1.0  0.71545  0.21593  0.46881  1.0000
  H   H3048     1.0  0.72672  0.21188  0.99273  1.0000
  C   C1725     1.0  0.73796  0.22272  0.47453  1.0000
  C   C1726     1.0  0.74107  0.15125  0.34704  1.0000
  C   C1727     1.0  0.72781  0.17125  0.16036  1.0000
  C   C1728     1.0  0.69387  0.03640  0.47334  1.0000
  H   H3049     1.0  0.73535  0.14567  0.33911  1.0000
  S   S410      1.0  0.69148  0.98767  0.35933  1.0000
  H   H3050     1.0  0.62901  0.02448  0.31382  1.0000
  C   C1729     1.0  0.60476  0.30440  0.03310  1.0000
  H   H3051     1.0  0.72910  0.13508  0.25251  1.0000
  H   H3052     1.0  0.72372  0.12016  0.23172  1.0000
  C   C1730     1.0  0.67141  0.18255  0.14263  1.0000
  C   C1731     1.0  0.67434  0.19142  0.15399  1.0000
  C   C1732     1.0  0.67553  0.18291  0.17112  1.0000
  C   C1733     1.0  0.67439  0.16537  0.17675  1.0000
  C   C1734     1.0  0.67209  0.15636  0.16519  1.0000
  C   C1735     1.0  0.67029  0.16502  0.14827  1.0000
  H   H3053     1.0  0.67515  0.20497  0.14973  1.0000
  H   H3054     1.0  0.67729  0.18995  0.18001  1.0000
  H   H3055     1.0  0.67128  0.14281  0.16940  1.0000
  H   H3056     1.0  0.66810  0.15807  0.13952  1.0000
  C   C1736     1.0  0.72534  0.26146  0.12632  1.0000
  C   C1737     1.0  0.51072  0.31416  0.98646  1.0000
  H   H3057     1.0  0.74024  0.05190  0.36153  1.0000
  H   H3058     1.0  0.71306  0.15109  0.13499  1.0000
  H   H3059     1.0  0.74010  0.05726  0.00319  1.0000
  H   H3060     1.0  0.71560  0.01769  0.04996  1.0000
  S   S411      1.0  0.67067  0.23079  0.47748  1.0000
  H   H3061     1.0  0.73723  0.08637  0.17250  1.0000
  C   C1738     1.0  0.73410  0.31742  0.12686  1.0000
  H   H3062     1.0  0.68209  0.06636  0.41776  1.0000
  Fe  Fe204     1.0  0.73834  0.07829  0.47904  1.0000
  C   C1739     1.0  0.68361  0.06709  0.44404  1.0000
  H   H3063     1.0  0.62243  0.08496  0.47780  1.0000
  H   H3064     1.0  0.62966  0.98479  0.15758  1.0000
  C   C1740     1.0  0.64289  0.26493  0.44629  1.0000
  C   C1741     1.0  0.64726  0.27190  0.45832  1.0000
  C   C1742     1.0  0.65518  0.28636  0.45273  1.0000
  C   C1743     1.0  0.65932  0.29355  0.43508  1.0000
  C   C1744     1.0  0.65467  0.28685  0.42302  1.0000
  C   C1745     1.0  0.64624  0.27264  0.42865  1.0000
  H   H3065     1.0  0.71568  0.27293  0.44940  1.0000
  C   C1746     1.0  0.50624  0.03900  0.22896  1.0000
  H   H3066     1.0  0.65756  0.29258  0.40937  1.0000
  H   H3067     1.0  0.64277  0.26734  0.41933  1.0000
  C   C1747     1.0  0.62822  0.04296  0.23100  1.0000
  C   C1748     1.0  0.63219  0.05799  0.21916  1.0000
  C   C1749     1.0  0.64492  0.06611  0.22112  1.0000
  C   C1750     1.0  0.65355  0.05929  0.23503  1.0000
  C   C1751     1.0  0.64972  0.04413  0.24662  1.0000
  C   C1752     1.0  0.63706  0.03607  0.24470  1.0000
  H   H3068     1.0  0.62539  0.06340  0.20852  1.0000
  H   H3069     1.0  0.64774  0.07784  0.21212  1.0000
  H   H3070     1.0  0.65634  0.03872  0.25735  1.0000
  H   H3071     1.0  0.63382  0.02479  0.25414  1.0000
  C   C1753     1.0  0.71859  0.06525  0.32805  1.0000
  C   C1754     1.0  0.56532  0.05392  0.23696  1.0000
  H   H3072     1.0  0.63253  0.26283  0.09571  1.0000
  H   H3073     1.0  0.71378  0.03691  0.05790  1.0000
  C   C1755     1.0  0.73872  0.12418  0.24844  1.0000
  Fe  Fe205     1.0  0.64240  0.23220  0.47843  1.0000
  H   H3074     1.0  0.64673  0.21173  0.00357  1.0000
  H   H3075     1.0  0.64663  0.29155  0.16132  1.0000
  H   H3076     1.0  0.69974  0.31574  0.09043  1.0000
  H   H3077     1.0  0.72406  0.08557  0.30591  1.0000
  C   C1756     1.0  0.71305  0.01446  0.40725  1.0000
  C   C1757     1.0  0.71347  0.03227  0.40201  1.0000
  H   H3078     1.0  0.70933  0.03952  0.39012  1.0000
  C   C1758     1.0  0.73612  0.19350  0.46984  1.0000
  C   C1759     1.0  0.66498  0.06227  0.28826  1.0000
  H   H3079     1.0  0.57636  0.99216  0.19785  1.0000
  H   H3080     1.0  0.50729  0.05174  0.22014  1.0000
  H   H3081     1.0  0.64457  0.26611  0.47195  1.0000
  H   H3082     1.0  0.74063  0.01097  0.02655  1.0000
  C   C1760     1.0  0.63459  0.25464  0.03442  1.0000
  C   C1761     1.0  0.64623  0.26501  0.02394  1.0000
  C   C1762     1.0  0.66116  0.26570  0.02939  1.0000
  C   C1763     1.0  0.66478  0.25591  0.04533  1.0000
  C   C1764     1.0  0.65335  0.24529  0.05586  1.0000
  C   C1765     1.0  0.63828  0.24466  0.05039  1.0000
  H   H3083     1.0  0.67305  0.12401  0.26586  1.0000
  H   H3084     1.0  0.65599  0.23778  0.06828  1.0000
  H   H3085     1.0  0.62934  0.23661  0.05864  1.0000
  H   H3086     1.0  0.64719  0.09117  0.27073  1.0000
  H   H3087     1.0  0.72638  0.02691  0.21247  1.0000
  H   H3088     1.0  0.71408  0.19156  0.98342  1.0000
  H   H3089     1.0  0.72901  0.00589  0.44418  1.0000
  H   H3090     1.0  0.49876  0.04112  0.24199  1.0000
  C   C1766     1.0  0.73719  0.02083  0.28312  1.0000
  C   C1767     1.0  0.73303  0.20591  0.05025  1.0000
  C   C1768     1.0  0.72837  0.20165  0.03661  1.0000
  C   C1769     1.0  0.72050  0.16182  0.21059  1.0000
  C   C1770     1.0  0.74300  0.04989  0.18383  1.0000
  H   H3091     1.0  0.72854  0.21893  0.05274  1.0000
  H   H3092     1.0  0.72033  0.21145  0.02865  1.0000
  C   C1771     1.0  0.70452  0.03657  0.15678  1.0000
  C   C1772     1.0  0.69506  0.04497  0.17032  1.0000
  C   C1773     1.0  0.69602  0.06217  0.16952  1.0000
  C   C1774     1.0  0.70618  0.07100  0.15503  1.0000
  C   C1775     1.0  0.71499  0.06284  0.14118  1.0000
  C   C1776     1.0  0.71421  0.04563  0.14209  1.0000
  H   H3093     1.0  0.68750  0.03805  0.18168  1.0000
  H   H3094     1.0  0.68899  0.06854  0.18017  1.0000
  H   H3095     1.0  0.72272  0.06970  0.12991  1.0000
  H   H3096     1.0  0.72119  0.03939  0.13139  1.0000
  S   S412      1.0  0.61087  0.98618  0.22923  1.0000
  H   H3097     1.0  0.65776  0.30413  0.13087  1.0000
  S   S413      1.0  0.63812  0.98950  0.25236  1.0000
  C   C1777     1.0  0.63783  0.28409  0.07425  1.0000
  H   H3098     1.0  0.71404  0.07227  0.06724  1.0000
  H   H3099     1.0  0.73201  0.14069  0.41686  1.0000
  H   H3100     1.0  0.52689  0.04223  0.24833  1.0000
  S   S414      1.0  0.72167  0.01188  0.34461  1.0000
  H   H3101     1.0  0.49888  0.03230  0.22373  1.0000
  C   C1778     1.0  0.67500  0.19645  0.03558  1.0000
  C   C1779     1.0  0.70529  0.16798  0.07783  1.0000
  C   C1780     1.0  0.68078  0.21292  0.02424  1.0000
  C   C1781     1.0  0.71145  0.16371  0.09499  1.0000
  H   H3102     1.0  0.66051  0.19937  0.03885  1.0000
  H   H3103     1.0  0.71104  0.15675  0.07139  1.0000
  H   H3104     1.0  0.71071  0.17926  0.06966  1.0000
  H   H3105     1.0  0.69515  0.21042  0.01950  1.0000
  H   H3106     1.0  0.67450  0.21716  0.01280  1.0000
  C   C1782     1.0  0.68725  0.16995  0.98422  1.0000
  H   H3107     1.0  0.53741  0.04866  0.22664  1.0000
  H   H3108     1.0  0.70698  0.15198  0.10351  1.0000
  H   H3109     1.0  0.72596  0.16123  0.09248  1.0000
  H   H3110     1.0  0.66111  0.14884  0.05806  1.0000
  C   C1783     1.0  0.55018  0.00993  0.25431  1.0000
  C   C1784     1.0  0.73727  0.05791  0.07691  1.0000
  Fe  Fe206     1.0  0.73991  0.11522  0.01655  1.0000
  C   C1785     1.0  0.70198  0.14266  0.45836  1.0000
  H   H3111     1.0  0.73109  0.18703  0.46213  1.0000
  H   H3112     1.0  0.62052  0.08265  0.27519  1.0000
  C   C1786     1.0  0.66367  0.30610  0.14094  1.0000
  H   H3113     1.0  0.71655  0.16176  0.45777  1.0000
  C   C1787     1.0  0.67224  0.15343  0.04829  1.0000
  H   H3114     1.0  0.68727  0.14714  0.06786  1.0000
  C   C1788     1.0  0.66319  0.10128  0.28156  1.0000
  H   H3115     1.0  0.71222  0.13612  0.44942  1.0000
  H   H3116     1.0  0.64952  0.12745  0.27212  1.0000
  H   H3117     1.0  0.68294  0.03706  0.26832  1.0000
  C   C1789     1.0  0.66152  0.11805  0.26787  1.0000
  H   H3118     1.0  0.72505  0.17290  0.21241  1.0000
  H   H3119     1.0  0.68981  0.29071  0.46225  1.0000
  C   C1790     1.0  0.74299  0.19322  0.06096  1.0000
  H   H3120     1.0  0.68486  0.03608  0.44132  1.0000
  H   H3121     1.0  0.54551  0.00091  0.24912  1.0000
  C   C1791     1.0  0.69095  0.16625  0.47408  1.0000
  S   S415      1.0  0.64546  0.01588  0.34331  1.0000
  H   H3122     1.0  0.62430  0.19928  0.07019  1.0000
  C   C1792     1.0  0.68340  0.30668  0.13451  1.0000
  H   H3123     1.0  0.67520  0.29067  0.11100  1.0000
  H   H3124     1.0  0.73148  0.27403  0.09949  1.0000
  C   C1793     1.0  0.68602  0.98798  0.12049  1.0000
  H   H3125     1.0  0.66432  0.29237  0.04739  1.0000
  H   H3126     1.0  0.71359  0.15251  0.19139  1.0000
  H   H3127     1.0  0.54875  0.98712  0.28659  1.0000
  H   H3128     1.0  0.68706  0.31074  0.14502  1.0000
  H   H3129     1.0  0.66818  0.31088  0.09658  1.0000
  C   C1794     1.0  0.53586  0.99432  0.28356  1.0000
  S   S416      1.0  0.71494  0.07173  0.47357  1.0000
  N   N97       1.0  0.74339  0.03776  0.27920  1.0000
  H   H3130     1.0  0.66307  0.01518  0.43654  1.0000
  H   H3131     1.0  0.72507  0.13573  0.38466  1.0000
  H   H3132     1.0  0.55234  0.00343  0.21982  1.0000
  H   H3133     1.0  0.68072  0.01854  0.28583  1.0000
  H   H3134     1.0  0.52657  0.99608  0.29593  1.0000
  H   H3135     1.0  0.74178  0.13243  0.07097  1.0000
  H   H3136     1.0  0.71367  0.12250  0.08100  1.0000
  H   H3137     1.0  0.58987  0.00580  0.20014  1.0000
  H   H3138     1.0  0.65829  0.09249  0.45733  1.0000
  H   H3139     1.0  0.54394  0.31795  0.98859  1.0000
  H   H3140     1.0  0.65250  0.19246  0.09177  1.0000
  H   H3141     1.0  0.62437  0.18522  0.09141  1.0000
  H   H3142     1.0  0.72525  0.12504  0.36149  1.0000
  H   H3143     1.0  0.73849  0.17537  0.14953  1.0000
  H   H3144     1.0  0.66115  0.06946  0.34522  1.0000
  H   H3145     1.0  0.67354  0.99178  0.22777  1.0000
  H   H3146     1.0  0.72636  0.22665  0.17912  1.0000
  H   H3147     1.0  0.63049  0.28006  0.06659  1.0000
  H   H3148     1.0  0.60222  0.06071  0.29260  1.0000
  H   H3149     1.0  0.70649  0.17502  0.18984  1.0000
  H   H3150     1.0  0.64698  0.07122  0.44710  1.0000
  H   H3151     1.0  0.66819  0.30935  0.05492  1.0000
  H   H3152     1.0  0.62996  0.10498  0.47378  1.0000
  S   S417      1.0  0.72469  0.31411  0.36026  1.0000
  H   H3153     1.0  0.69695  0.05896  0.44159  1.0000
  H   H3154     1.0  0.70560  0.02183  0.08798  1.0000
  H   H3155     1.0  0.70475  0.04278  0.46578  1.0000
  C   C1795     1.0  0.66921  0.31409  0.02724  1.0000
  H   H3156     1.0  0.71915  0.01661  0.19900  1.0000
  H   H3157     1.0  0.69440  0.02504  0.46786  1.0000
  C   C1796     1.0  0.72833  0.05214  0.27448  1.0000
  H   H3158     1.0  0.69076  0.29310  0.13468  1.0000
  C   C1797     1.0  0.73569  0.11579  0.23664  1.0000
  C   C1798     1.0  0.71793  0.16430  0.19183  1.0000
  C   C1799     1.0  0.65245  0.06686  0.45903  1.0000
  H   H3159     1.0  0.69736  0.18769  0.04737  1.0000
  C   C1800     1.0  0.73125  0.07098  0.27030  1.0000
  C   C1801     1.0  0.71396  0.08399  0.26975  1.0000
  C   C1802     1.0  0.56004  0.03713  0.24905  1.0000
  H   H3160     1.0  0.69534  0.31152  0.03188  1.0000
  H   H3161     1.0  0.69906  0.99107  0.11399  1.0000
  H   H3162     1.0  0.71975  0.15800  0.40317  1.0000
  Fe  Fe207     1.0  0.73238  0.06491  0.44880  1.0000
  H   H3163     1.0  0.72464  0.05088  0.26267  1.0000
  H   H3164     1.0  0.71653  0.05117  0.28508  1.0000
  H   H3165     1.0  0.72610  0.02046  0.29455  1.0000
  C   C1803     1.0  0.67625  0.04960  0.47313  1.0000
  S   S418      1.0  0.68431  0.11699  0.46100  1.0000
  H   H3166     1.0  0.63358  0.30723  0.47807  1.0000
  C   C1804     1.0  0.72458  0.01343  0.43251  1.0000
  N   N98       1.0  0.55244  0.02643  0.24115  1.0000
  H   H3167     1.0  0.62303  0.20817  0.08875  1.0000
  H   H3168     1.0  0.65398  0.16629  0.08058  1.0000
  C   C1805     1.0  0.70532  0.01576  0.07729  1.0000
  H   H3169     1.0  0.68509  0.07701  0.45057  1.0000
  S   S419      1.0  0.62792  0.28721  0.98476  1.0000
  H   H3170     1.0  0.72277  0.99588  0.26213  1.0000
  H   H3171     1.0  0.70503  0.08219  0.28263  1.0000
  H   H3172     1.0  0.71637  0.09739  0.26661  1.0000
  H   H3173     1.0  0.70764  0.08245  0.25971  1.0000
  H   H3174     1.0  0.64502  0.23319  0.00682  1.0000
  C   C1806     1.0  0.71668  0.09439  0.37141  1.0000
  H   H3175     1.0  0.70901  0.00141  0.08115  1.0000
  S   S420      1.0  0.71689  0.29941  0.40268  1.0000
  C   C1807     1.0  0.73365  0.18469  0.03368  1.0000
  H   H3176     1.0  0.63736  0.05555  0.33022  1.0000
  H   H3177     1.0  0.73107  0.31700  0.45004  1.0000
  H   H3178     1.0  0.67581  0.09276  0.27726  1.0000
  H   H3179     1.0  0.53091  0.98645  0.27719  1.0000
  H   H3180     1.0  0.69704  0.15952  0.04824  1.0000
  H   H3181     1.0  0.55062  0.04138  0.26047  1.0000
  C   C1808     1.0  0.72196  0.15640  0.15582  1.0000
  C   C1809     1.0  0.66301  0.02764  0.42699  1.0000
  Fe  Fe208     1.0  0.71669  0.29053  0.37882  1.0000
  C   C1810     1.0  0.63118  0.09324  0.46855  1.0000
  H   H3182     1.0  0.56347  0.06750  0.25758  1.0000
  H   H3183     1.0  0.62040  0.04355  0.28659  1.0000
  C   C1811     1.0  0.67288  0.14564  0.47615  1.0000
  H   H3184     1.0  0.68774  0.12717  0.04816  1.0000
  H   H3185     1.0  0.68516  0.26925  0.46707  1.0000
  C   C1812     1.0  0.61409  0.05735  0.28268  1.0000
  H   H3186     1.0  0.65910  0.18895  0.45818  1.0000
  H   H3187     1.0  0.73377  0.21700  0.45086  1.0000
  H   H3188     1.0  0.65355  0.04078  0.28663  1.0000
  C   C1813     1.0  0.57619  0.00470  0.20107  1.0000
  S   S421      1.0  0.72596  0.09179  0.43319  1.0000
  C   C1814     1.0  0.72509  0.03107  0.42753  1.0000
  H   H3189     1.0  0.73041  0.15613  0.35733  1.0000
  H   H3190     1.0  0.66633  0.01757  0.19307  1.0000
  C   C1815     1.0  0.68428  0.15869  0.05746  1.0000
  H   H3191     1.0  0.66312  0.08011  0.31252  1.0000
  H   H3192     1.0  0.71712  0.29946  0.13272  1.0000
  H   H3193     1.0  0.57191  0.02911  0.25391  1.0000
  H   H3194     1.0  0.71957  0.02594  0.26464  1.0000
  H   H3195     1.0  0.69303  0.17178  0.22094  1.0000
  H   H3196     1.0  0.68562  0.26064  0.99763  1.0000
  H   H3197     1.0  0.52425  0.01893  0.26983  1.0000
  H   H3198     1.0  0.71643  0.18233  0.15994  1.0000
  C   C1816     1.0  0.73710  0.01707  0.06267  1.0000
  H   H3199     1.0  0.72669  0.11403  0.06234  1.0000
  C   C1817     1.0  0.73096  0.25619  0.14208  1.0000
  C   C1818     1.0  0.72304  0.02859  0.19963  1.0000
  C   C1819     1.0  0.74255  0.19715  0.41855  1.0000
  H   H3200     1.0  0.73056  0.16304  0.12771  1.0000
  H   H3201     1.0  0.70051  0.21290  0.98227  1.0000
  H   H3202     1.0  0.72994  0.14964  0.21386  1.0000
  C   C1820     1.0  0.69326  0.27724  0.46955  1.0000
  H   H3203     1.0  0.70460  0.29651  0.10566  1.0000
  C   C1821     1.0  0.63242  0.30776  0.04012  1.0000
  C   C1822     1.0  0.72760  0.07817  0.31801  1.0000
  C   C1823     1.0  0.70344  0.16021  0.22375  1.0000
  H   H3204     1.0  0.65113  0.17906  0.06003  1.0000
  C   C1824     1.0  0.73304  0.15181  0.40572  1.0000
  S   S422      1.0  0.67076  0.31056  0.42854  1.0000
  N   N99       1.0  0.64894  0.07440  0.29588  1.0000
  H   H3205     1.0  0.69293  0.14288  0.02850  1.0000
  H   H3206     1.0  0.71172  0.03955  0.19834  1.0000
  H   H3207     1.0  0.66380  0.31011  0.01792  1.0000
  H   H3208     1.0  0.73560  0.03150  0.17268  1.0000
  H   H3209     1.0  0.56310  0.00267  0.25720  1.0000
  H   H3210     1.0  0.66169  0.98704  0.20164  1.0000
  H   H3211     1.0  0.61016  0.29040  0.03329  1.0000
  H   H3212     1.0  0.70974  0.15361  0.16484  1.0000
  C   C1825     1.0  0.63209  0.06853  0.29773  1.0000
  C   C1826     1.0  0.73681  0.05916  0.34936  1.0000
  S   S423      1.0  0.73438  0.03947  0.44052  1.0000
  H   H3213     1.0  0.63752  0.29400  0.03901  1.0000
  C   C1827     1.0  0.72815  0.07025  0.06500  1.0000
  S   S424      1.0  0.73271  0.10588  0.46543  1.0000
  H   H3214     1.0  0.58487  0.05456  0.25106  1.0000
  N   N100      1.0  0.67084  0.05628  0.45575  1.0000
  H   H3215     1.0  0.65317  0.02909  0.41903  1.0000
  H   H3216     1.0  0.72413  0.20469  0.16423  1.0000
  C   C1828     1.0  0.71844  0.00530  0.42264  1.0000
  H   H3217     1.0  0.67758  0.06047  0.47842  1.0000
  H   H3218     1.0  0.73170  0.31142  0.07132  1.0000
  C   C1829     1.0  0.73145  0.09926  0.37670  1.0000
  N   N101      1.0  0.73642  0.24202  0.46784  1.0000
  H   H3219     1.0  0.66820  0.02961  0.45897  1.0000
  H   H3220     1.0  0.66682  0.16433  0.03863  1.0000
  H   H3221     1.0  0.66211  0.03700  0.30573  1.0000
  H   H3222     1.0  0.74179  0.13911  0.18277  1.0000
  H   H3223     1.0  0.54238  0.01916  0.27903  1.0000
  C   C1830     1.0  0.71987  0.31316  0.44742  1.0000
  H   H3224     1.0  0.65254  0.20602  0.07050  1.0000
  H   H3225     1.0  0.74095  0.05241  0.19711  1.0000
  H   H3226     1.0  0.72506  0.10019  0.08371  1.0000
  H   H3227     1.0  0.74254  0.08795  0.37679  1.0000
  H   H3228     1.0  0.67990  0.16190  0.09116  1.0000
  C   C1831     1.0  0.65764  0.17786  0.07088  1.0000
  H   H3229     1.0  0.65862  0.29163  0.46206  1.0000
  H   H3230     1.0  0.69203  0.29290  0.02565  1.0000
  H   H3231     1.0  0.65172  0.27755  0.07130  1.0000
  C   C1832     1.0  0.72653  0.99871  0.27320  1.0000
  H   H3232     1.0  0.62568  0.99539  0.17557  1.0000
  C   C1833     1.0  0.73906  0.13077  0.38559  1.0000
  C   C1834     1.0  0.68643  0.13652  0.46526  1.0000
  H   H3233     1.0  0.66102  0.05036  0.32625  1.0000
  C   C1835     1.0  0.68347  0.98666  0.14001  1.0000
  C   C1836     1.0  0.66083  0.29144  0.15669  1.0000
  C   C1837     1.0  0.53525  0.03701  0.23689  1.0000
  C   C1838     1.0  0.64108  0.22562  0.99934  1.0000
  H   H3234     1.0  0.57748  0.07481  0.23732  1.0000
  S   S425      1.0  0.58551  0.29318  0.00116  1.0000
  C   C1839     1.0  0.62891  0.19676  0.08254  1.0000
  H   H3235     1.0  0.65381  0.08022  0.47916  1.0000
  H   H3236     1.0  0.64852  0.01445  0.21124  1.0000
  H   H3237     1.0  0.64497  0.04345  0.44390  1.0000
  H   H3238     1.0  0.63755  0.07644  0.34825  1.0000
  C   C1840     1.0  0.68642  0.29117  0.08429  1.0000
  H   H3239     1.0  0.73019  0.05056  0.08831  1.0000
  H   H3240     1.0  0.67317  0.13463  0.03305  1.0000
  N   N102      1.0  0.69291  0.21712  0.41933  1.0000
  C   C1841     1.0  0.71117  0.21426  0.42258  1.0000
  C   C1842     1.0  0.68229  0.23437  0.42331  1.0000
  C   C1843     1.0  0.68439  0.20301  0.43194  1.0000
  C   C1844     1.0  0.69276  0.21580  0.40117  1.0000
  C   C1845     1.0  0.70397  0.22663  0.38602  1.0000
  C   C1846     1.0  0.72357  0.19704  0.41876  1.0000
  C   C1847     1.0  0.66482  0.20422  0.43211  1.0000
  C   C1848     1.0  0.69102  0.25053  0.41626  1.0000
  C   C1849     1.0  0.69658  0.25594  0.43041  1.0000
  C   C1850     1.0  0.70578  0.22115  0.36890  1.0000
  C   C1851     1.0  0.68349  0.25380  0.98836  1.0000
  C   C1852     1.0  0.65798  0.18894  0.44488  1.0000
  H   H3241     1.0  0.71049  0.21452  0.43637  1.0000
  H   H3242     1.0  0.71790  0.22489  0.41499  1.0000
  H   H3243     1.0  0.67000  0.23778  0.41820  1.0000
  H   H3244     1.0  0.67747  0.23335  0.43758  1.0000
  H   H3245     1.0  0.68536  0.20278  0.44545  1.0000
  H   H3246     1.0  0.69138  0.18998  0.42930  1.0000
  H   H3247     1.0  0.69673  0.20201  0.39974  1.0000
  H   H3248     1.0  0.67922  0.21998  0.39871  1.0000
  H   H3249     1.0  0.71738  0.22522  0.38806  1.0000
  H   H3250     1.0  0.69749  0.24053  0.38429  1.0000
  H   H3251     1.0  0.71982  0.18584  0.42888  1.0000
  H   H3252     1.0  0.72328  0.19482  0.40596  1.0000
  H   H3253     1.0  0.66285  0.20399  0.41917  1.0000
  H   H3254     1.0  0.65662  0.21626  0.43617  1.0000
  H   H3255     1.0  0.70237  0.24908  0.40553  1.0000
  H   H3256     1.0  0.68145  0.26162  0.41073  1.0000
  H   H3257     1.0  0.70187  0.26796  0.42490  1.0000
  H   H3258     1.0  0.68518  0.25863  0.44101  1.0000
  H   H3259     1.0  0.70682  0.24560  0.43572  1.0000
  H   H3260     1.0  0.71358  0.22936  0.35828  1.0000
  H   H3261     1.0  0.71258  0.20738  0.36954  1.0000
  H   H3262     1.0  0.69270  0.22288  0.36581  1.0000
  H   H3263     1.0  0.68422  0.99940  0.14213  1.0000
  H   H3264     1.0  0.72013  0.05416  0.40797  1.0000
  H   H3265     1.0  0.57018  0.01538  0.19150  1.0000
  H   H3266     1.0  0.64397  0.19009  0.44486  1.0000
  H   H3267     1.0  0.66544  0.17642  0.44133  1.0000
  C   C1853     1.0  0.64183  0.00289  0.33073  1.0000
  H   H3268     1.0  0.66350  0.10483  0.29377  1.0000
  H   H3269     1.0  0.73516  0.04132  0.30564  1.0000
  Fe  Fe209     1.0  0.71062  0.09902  0.45832  1.0000
  H   H3270     1.0  0.72669  0.10157  0.39011  1.0000
  H   H3271     1.0  0.64392  0.02499  0.19014  1.0000
  C   C1854     1.0  0.69107  0.08928  0.41654  1.0000
  H   H3272     1.0  0.67672  0.06313  0.29265  1.0000
  H   H3273     1.0  0.73776  0.98851  0.27683  1.0000
  C   C1855     1.0  0.64929  0.06073  0.32844  1.0000
  H   H3274     1.0  0.70499  0.08262  0.41402  1.0000
  H   H3275     1.0  0.73899  0.02546  0.07069  1.0000
  H   H3276     1.0  0.68937  0.09929  0.42430  1.0000
  C   C1856     1.0  0.71766  0.02252  0.06075  1.0000
  C   C1857     1.0  0.56536  0.02233  0.22490  1.0000
  C   C1858     1.0  0.73594  0.21414  0.17981  1.0000
  C   C1859     1.0  0.65980  0.99643  0.17408  1.0000
  H   H3277     1.0  0.62100  0.07667  0.30524  1.0000
  H   H3278     1.0  0.63533  0.31536  0.02667  1.0000
  N   N103      1.0  0.64159  0.31262  0.05171  1.0000
  C   C1860     1.0  0.65320  0.99692  0.19363  1.0000
  H   H3279     1.0  0.72271  0.25015  0.15349  1.0000
  H   H3280     1.0  0.63854  0.06532  0.27057  1.0000
  C   C1861     1.0  0.68121  0.03255  0.28261  1.0000
  H   H3281     1.0  0.71010  0.24440  0.46406  1.0000
  C   C1862     1.0  0.65301  0.01459  0.19714  1.0000
  H   H3282     1.0  0.70454  0.10442  0.37325  1.0000
  C   C1863     1.0  0.67134  0.04076  0.44833  1.0000
  H   H3283     1.0  0.73848  0.16138  0.40931  1.0000
  H   H3284     1.0  0.64357  0.05858  0.46822  1.0000
  H   H3285     1.0  0.65068  0.00660  0.16683  1.0000
  H   H3286     1.0  0.67242  0.00098  0.17001  1.0000
  H   H3287     1.0  0.70554  0.15905  0.23700  1.0000
  H   H3288     1.0  0.65858  0.05492  0.42606  1.0000
  C   C1864     1.0  0.73590  0.26965  0.11166  1.0000
  H   H3289     1.0  0.66978  0.27417  0.02135  1.0000
  H   H3290     1.0  0.60782  0.30357  0.05865  1.0000
  C   C1865     1.0  0.67951  0.30049  0.09955  1.0000
  H   H3291     1.0  0.59033  0.30614  0.03731  1.0000
  C   C1866     1.0  0.73736  0.11543  0.36389  1.0000
  C   C1867     1.0  0.57323  0.06322  0.24637  1.0000
  C   C1868     1.0  0.66104  0.30662  0.04617  1.0000
  H   H3292     1.0  0.66819  0.06640  0.27394  1.0000
  H   H3293     1.0  0.63544  0.10103  0.28864  1.0000
  C   C1869     1.0  0.66425  0.04276  0.29172  1.0000
  C   C1870     1.0  0.72585  0.11356  0.07629  1.0000
  H   H3294     1.0  0.73977  0.07346  0.25731  1.0000
  H   H3295     1.0  0.60793  0.31182  0.01961  1.0000
  Fe  Fe210     1.0  0.60903  0.27130  0.00262  1.0000
  C   C1871     1.0  0.64884  0.19403  0.07912  1.0000
  H   H3296     1.0  0.71565  0.04637  0.35196  1.0000
  H   H3297     1.0  0.64365  0.27278  0.01176  1.0000
  H   H3298     1.0  0.53093  0.02576  0.21692  1.0000
  C   C1872     1.0  0.62688  0.06919  0.28041  1.0000
  C   C1873     1.0  0.71943  0.04061  0.41221  1.0000
  C   C1874     1.0  0.68899  0.30730  0.02344  1.0000
  H   H3299     1.0  0.73200  0.14428  0.15653  1.0000
  H   H3300     1.0  0.68084  0.18418  0.08646  1.0000
  H   H3301     1.0  0.56349  0.03330  0.21371  1.0000
  H   H3302     1.0  0.66738  0.27866  0.15318  1.0000
  C   C1875     1.0  0.65039  0.07662  0.31332  1.0000
  H   H3303     1.0  0.67599  0.28560  0.08232  1.0000
  H   H3304     1.0  0.66096  0.11539  0.25529  1.0000
  H   H3305     1.0  0.69084  0.30027  0.07221  1.0000
  S   S426      1.0  0.59545  0.99600  0.26809  1.0000
  H   H3306     1.0  0.62229  0.00612  0.29695  1.0000
  H   H3307     1.0  0.67694  0.22357  0.03157  1.0000
  H   H3308     1.0  0.67963  0.18636  0.02758  1.0000
  H   H3309     1.0  0.71407  0.08173  0.37948  1.0000
  C   C1876     1.0  0.53753  0.01201  0.27185  1.0000
  N   N104      1.0  0.73360  0.16717  0.17750  1.0000
  H   H3310     1.0  0.72736  0.30473  0.11022  1.0000
  H   H3311     1.0  0.66579  0.08332  0.42677  1.0000
  H   H3312     1.0  0.64701  0.05430  0.35634  1.0000
  H   H3313     1.0  0.63250  0.05516  0.30551  1.0000
  H   H3314     1.0  0.69262  0.03425  0.28682  1.0000
  H   H3315     1.0  0.69760  0.28040  0.08693  1.0000
  H   H3316     1.0  0.63970  0.99452  0.19819  1.0000
  H   H3317     1.0  0.71567  0.19942  0.18725  1.0000
  C   C1877     1.0  0.64874  0.06563  0.34557  1.0000
  N   N105      1.0  0.67729  0.17500  0.06495  1.0000
  C   C1878     1.0  0.72775  0.20018  0.17716  1.0000
  C   C1879     1.0  0.64777  0.09210  0.28401  1.0000
  H   H3318     1.0  0.73106  0.98959  0.05185  1.0000
  H   H3319     1.0  0.73910  0.00386  0.07084  1.0000
  H   H3320     1.0  0.61679  0.28282  0.09715  1.0000
  H   H3321     1.0  0.62658  0.22755  0.00255  1.0000
  H   H3322     1.0  0.69172  0.01917  0.07507  1.0000
  C   C1880     1.0  0.72995  0.21314  0.46510  1.0000
  Fe  Fe211     1.0  0.73970  0.15357  0.01099  1.0000
  C   C1881     1.0  0.52439  0.02783  0.23018  1.0000
  H   H3323     1.0  0.71527  0.99835  0.28438  1.0000
  H   H3324     1.0  0.67743  0.16222  0.99231  1.0000
  C   C1882     1.0  0.68499  0.17237  0.08078  1.0000
  H   H3325     1.0  0.68050  0.20175  0.05837  1.0000
  H   H3326     1.0  0.63835  0.28022  0.10166  1.0000
  C   C1883     1.0  0.65018  0.08343  0.46628  1.0000
  H   H3327     1.0  0.69900  0.14841  0.22348  1.0000
  H   H3328     1.0  0.73885  0.12032  0.39745  1.0000
  H   H3329     1.0  0.72027  0.09324  0.35760  1.0000
  H   H3330     1.0  0.64000  0.08761  0.31741  1.0000
  H   H3331     1.0  0.73961  0.11956  0.09266  1.0000
  H   H3332     1.0  0.72021  0.27691  0.46851  1.0000
  H   H3333     1.0  0.61013  0.05889  0.27015  1.0000
  H   H3334     1.0  0.70855  0.17372  0.13582  1.0000
  H   H3335     1.0  0.73568  0.24437  0.44087  1.0000
  C   C1884     1.0  0.68299  0.19047  0.05205  1.0000
  H   H3336     1.0  0.73320  0.03868  0.03155  1.0000
  H   H3337     1.0  0.72497  0.30189  0.44093  1.0000
  H   H3338     1.0  0.64408  0.30653  0.07858  1.0000
  H   H3339     1.0  0.65601  0.19091  0.98570  1.0000
  H   H3340     1.0  0.71813  0.99163  0.42689  1.0000
  C   C1885     1.0  0.71836  0.16142  0.13745  1.0000
  H   H3341     1.0  0.62238  0.31000  0.07579  1.0000
  H   H3342     1.0  0.66615  0.29303  0.16742  1.0000
  H   H3343     1.0  0.73262  0.05957  0.17786  1.0000
  C   C1886     1.0  0.73877  0.03192  0.18509  1.0000
  C   C1887     1.0  0.71715  0.25011  0.47061  1.0000
  H   H3344     1.0  0.73801  0.17626  0.32939  1.0000
  C   C1888     1.0  0.61221  0.31073  0.04536  1.0000
  H   H3345     1.0  0.71097  0.30931  0.45983  1.0000
  Fe  Fe212     1.0  0.68868  0.31102  0.40246  1.0000
  C   C1889     1.0  0.74071  0.18241  0.17828  1.0000
  C   C1890     1.0  0.73137  0.01658  0.26808  1.0000
  H   H3346     1.0  0.73719  0.07377  0.27990  1.0000
  C   C1891     1.0  0.72072  0.31018  0.12195  1.0000
  H   H3347     1.0  0.66932  0.25383  0.99046  1.0000
  H   H3348     1.0  0.73956  0.21058  0.19274  1.0000
  C   C1892     1.0  0.68760  0.98978  0.22141  1.0000
  C   C1893     1.0  0.74157  0.08120  0.32337  1.0000
  H   H3349     1.0  0.69042  0.17735  0.99240  1.0000
  C   C1894     1.0  0.69401  0.30789  0.10282  1.0000
  C   C1895     1.0  0.73720  0.08003  0.05025  1.0000
  H   H3350     1.0  0.51986  0.30154  0.98919  1.0000
  C   C1896     1.0  0.74168  0.11910  0.07876  1.0000
  H   H3351     1.0  0.69455  0.31247  0.00970  1.0000
  H   H3352     1.0  0.74207  0.99865  0.37263  1.0000
  H   H3353     1.0  0.69071  0.24021  0.99103  1.0000
  H   H3354     1.0  0.74424  0.26928  0.05731  1.0000
  C   C1897     1.0  0.74419  0.24642  0.44874  1.0000
  H   H3355     1.0  0.74379  0.11145  0.35123  1.0000
  C   C1898     1.0  0.74426  0.17220  0.04393  1.0000
  Fe  Fe213     1.0  0.60440  0.30824  0.98193  1.0000
  S   S427      1.0  0.60394  0.26041  0.98179  1.0000
  H   H3356     1.0  0.74412  0.19755  0.43157  1.0000
  S   S428      1.0  0.74433  0.09046  0.21720  1.0000
  H   H3357     1.0  0.50212  0.31697  0.99885  1.0000
  C   C1899     1.0  0.64749  0.23209  0.97994  1.0000
  H   H3358     1.0  0.67154  0.20433  0.97996  1.0000
  H   H3359     1.0  0.74449  0.26051  0.44460  1.0000
  S   S429      1.0  0.69463  0.18431  0.47983  1.0000
  H   H3360     1.0  0.70767  0.17575  0.91116  1.0000
  Fe  Fe214     1.0  0.66973  0.26785  0.63268  1.0000
  S   S430      1.0  0.65870  0.24550  0.63170  1.0000
  H   H3361     1.0  0.50284  0.15450  0.70786  1.0000
  Fe  Fe215     1.0  0.69693  0.26513  0.59913  1.0000
  S   S431      1.0  0.68797  0.24258  0.59538  1.0000
  S   S432      1.0  0.73977  0.25475  0.90586  1.0000
  Fe  Fe216     1.0  0.66091  0.25769  0.60342  1.0000
  S   S433      1.0  0.63943  0.25904  0.58978  1.0000
  Fe  Fe217     1.0  0.68665  0.23256  0.62378  1.0000
  S   S434      1.0  0.58694  0.28667  0.70464  1.0000
  S   S435      1.0  0.69767  0.25387  0.62711  1.0000
  Fe  Fe218     1.0  0.55341  0.17762  0.80300  1.0000
  S   S436      1.0  0.55288  0.15313  0.82310  1.0000
  S   S437      1.0  0.53132  0.20008  0.80758  1.0000
  Fe  Fe219     1.0  0.58710  0.16232  0.78134  1.0000
  S   S438      1.0  0.58946  0.13686  0.80001  1.0000
  S   S439      1.0  0.60726  0.16513  0.75684  1.0000
  Fe  Fe220     1.0  0.56083  0.13991  0.80027  1.0000
  S   S440      1.0  0.55227  0.11636  0.79735  1.0000
  Fe  Fe221     1.0  0.58144  0.15284  0.82061  1.0000
  S   S441      1.0  0.59235  0.14887  0.84482  1.0000
  S   S442      1.0  0.55904  0.16452  0.78041  1.0000
  S   S443      1.0  0.58140  0.17812  0.80171  1.0000
  Fe  Fe222     1.0  0.54345  0.27359  0.67652  1.0000
  S   S444      1.0  0.53977  0.29087  0.69533  1.0000
  S   S445      1.0  0.53424  0.27942  0.65148  1.0000
  Fe  Fe223     1.0  0.55786  0.24109  0.70039  1.0000
  S   S446      1.0  0.55540  0.25492  0.72172  1.0000
  S   S447      1.0  0.56901  0.21331  0.69830  1.0000
  Fe  Fe224     1.0  0.52932  0.26941  0.71533  1.0000
  S   S448      1.0  0.54553  0.23892  0.85906  1.0000
  Fe  Fe225     1.0  0.56610  0.27537  0.70024  1.0000
  H   H3362     1.0  0.52549  0.11028  0.63053  1.0000
  S   S449      1.0  0.53085  0.25338  0.69614  1.0000
  S   S450      1.0  0.57076  0.26029  0.67956  1.0000
  Fe  Fe226     1.0  0.64531  0.21213  0.88986  1.0000
  S   S451      1.0  0.65873  0.21713  0.86208  1.0000
  S   S452      1.0  0.61961  0.22831  0.89983  1.0000
  Fe  Fe227     1.0  0.67304  0.18098  0.89992  1.0000
  S   S453      1.0  0.68912  0.18333  0.87275  1.0000
  S   S454      1.0  0.67698  0.16000  0.92353  1.0000
  Fe  Fe228     1.0  0.68314  0.21191  0.87269  1.0000
  S   S455      1.0  0.70114  0.23075  0.85971  1.0000
  Fe  Fe229     1.0  0.66324  0.18833  0.86451  1.0000
  S   S456      1.0  0.65971  0.17739  0.84277  1.0000
  S   S457      1.0  0.66925  0.20904  0.90055  1.0000
  S   S458      1.0  0.64775  0.18379  0.89159  1.0000
  C   C1900     1.0  0.71319  0.20531  0.97659  1.0000
  H   H3363     1.0  0.61428  0.30245  0.49352  1.0000
  H   H3364     1.0  0.51280  0.08056  0.79631  1.0000
  C   C1901     1.0  0.62368  0.19351  0.94038  1.0000
  H   H3365     1.0  0.71371  0.20610  0.96264  1.0000
  Fe  Fe230     1.0  0.66149  0.23671  0.50403  1.0000
  S   S459      1.0  0.63290  0.24045  0.50418  1.0000
  S   S460      1.0  0.67409  0.25436  0.51214  1.0000
  C   C1902     1.0  0.50816  0.21632  0.68870  1.0000
  H   H3366     1.0  0.49669  0.22767  0.78443  1.0000
  C   C1903     1.0  0.55476  0.29200  0.74364  1.0000
  H   H3367     1.0  0.73729  0.31135  0.83075  1.0000
  Fe  Fe231     1.0  0.63647  0.21177  0.51529  1.0000
  S   S461      1.0  0.62074  0.19836  0.53984  1.0000
  C   C1904     1.0  0.69405  0.29414  0.91529  1.0000
  S   S462      1.0  0.66459  0.20874  0.51693  1.0000
  S   S463      1.0  0.52160  0.26498  0.89371  1.0000
  C   C1905     1.0  0.73238  0.30563  0.82230  1.0000
  S   S464      1.0  0.51353  0.22588  0.90311  1.0000
  H   H3368     1.0  0.52784  0.22893  0.77443  1.0000
  H   H3369     1.0  0.51416  0.27551  0.94352  1.0000
  C   C1906     1.0  0.51126  0.31717  0.91889  1.0000
  H   H3370     1.0  0.50295  0.20645  0.68532  1.0000
  H   H3371     1.0  0.74440  0.30172  0.61487  1.0000
  H   H3372     1.0  0.65852  0.30925  0.92993  1.0000
  Fe  Fe232     1.0  0.52219  0.20106  0.62485  1.0000
  H   H3373     1.0  0.70657  0.09601  0.52759  1.0000
  S   S465      1.0  0.53532  0.20364  0.64487  1.0000
  H   H3374     1.0  0.62632  0.30333  0.51755  1.0000
  Fe  Fe233     1.0  0.52475  0.20442  0.58627  1.0000
  S   S466      1.0  0.53783  0.21668  0.55952  1.0000
  H   H3375     1.0  0.72023  0.13302  0.91184  1.0000
  S   S467      1.0  0.53664  0.18365  0.60631  1.0000
  C   C1907     1.0  0.63761  0.28826  0.68389  1.0000
  H   H3376     1.0  0.54452  0.29921  0.73612  1.0000
  C   C1908     1.0  0.67953  0.28118  0.96519  1.0000
  C   C1909     1.0  0.62103  0.28958  0.69471  1.0000
  H   H3377     1.0  0.69984  0.15592  0.50970  1.0000
  C   C1910     1.0  0.72827  0.21227  0.97874  1.0000
  H   H3378     1.0  0.68740  0.30780  0.48630  1.0000
  C   C1911     1.0  0.51298  0.10532  0.65746  1.0000
  H   H3379     1.0  0.51963  0.09186  0.65970  1.0000
  C   C1912     1.0  0.59768  0.20308  0.54446  1.0000
  C   C1913     1.0  0.58888  0.19488  0.56037  1.0000
  C   C1914     1.0  0.57055  0.19885  0.56499  1.0000
  C   C1915     1.0  0.56084  0.21095  0.55366  1.0000
  C   C1916     1.0  0.56961  0.21888  0.53753  1.0000
  C   C1917     1.0  0.58801  0.21498  0.53293  1.0000
  H   H3380     1.0  0.59629  0.18545  0.56920  1.0000
  H   H3381     1.0  0.56396  0.19249  0.57730  1.0000
  H   H3382     1.0  0.56218  0.22819  0.52864  1.0000
  H   H3383     1.0  0.59470  0.22127  0.52057  1.0000
  C   C1918     1.0  0.51595  0.09332  0.79145  1.0000
  C   C1919     1.0  0.50170  0.14139  0.83776  1.0000
  H   H3384     1.0  0.52554  0.29350  0.95708  1.0000
  C   C1920     1.0  0.64203  0.22261  0.96824  1.0000
  C   C1921     1.0  0.51494  0.25361  0.78257  1.0000
  C   C1922     1.0  0.71713  0.12937  0.55460  1.0000
  H   H3385     1.0  0.59201  0.28979  0.91988  1.0000
  S   S468      1.0  0.55534  0.28733  0.97234  1.0000
  C   C1923     1.0  0.51816  0.24074  0.77038  1.0000
  S   S469      1.0  0.66192  0.28116  0.65541  1.0000
  H   H3386     1.0  0.53466  0.20180  0.68235  1.0000
  H   H3387     1.0  0.72398  0.19633  0.51170  1.0000
  H   H3388     1.0  0.67634  0.20087  0.56526  1.0000
  C   C1924     1.0  0.62442  0.24302  0.90955  1.0000
  C   C1925     1.0  0.64093  0.24738  0.90435  1.0000
  C   C1926     1.0  0.64617  0.25649  0.91400  1.0000
  C   C1927     1.0  0.64869  0.30922  0.53318  1.0000
  C   C1928     1.0  0.61781  0.25816  0.93333  1.0000
  C   C1929     1.0  0.61262  0.24888  0.92373  1.0000
  H   H3389     1.0  0.64984  0.24346  0.89300  1.0000
  H   H3390     1.0  0.59981  0.24557  0.92777  1.0000
  H   H3391     1.0  0.51270  0.11752  0.82682  1.0000
  C   C1930     1.0  0.71505  0.25414  0.86830  1.0000
  C   C1931     1.0  0.71135  0.23742  0.87299  1.0000
  C   C1932     1.0  0.71671  0.22604  0.88757  1.0000
  H   H3392     1.0  0.52464  0.19694  0.70498  1.0000
  H   H3393     1.0  0.71072  0.26307  0.85718  1.0000
  H   H3394     1.0  0.71412  0.21304  0.89115  1.0000
  C   C1933     1.0  0.53536  0.25885  0.64762  1.0000
  C   C1934     1.0  0.52374  0.25608  0.63885  1.0000
  C   C1935     1.0  0.52364  0.23911  0.63778  1.0000
  C   C1936     1.0  0.53544  0.22506  0.64509  1.0000
  C   C1937     1.0  0.54732  0.22796  0.65334  1.0000
  C   C1938     1.0  0.54719  0.24475  0.65466  1.0000
  H   H3395     1.0  0.51436  0.26691  0.63358  1.0000
  H   H3396     1.0  0.51402  0.23690  0.63192  1.0000
  H   H3397     1.0  0.55648  0.21720  0.65905  1.0000
  H   H3398     1.0  0.55629  0.24665  0.66127  1.0000
  H   H3399     1.0  0.67741  0.23634  0.79741  1.0000
  C   C1939     1.0  0.61067  0.15760  0.84389  1.0000
  C   C1940     1.0  0.62322  0.16017  0.82861  1.0000
  C   C1941     1.0  0.63826  0.16605  0.82856  1.0000
  C   C1942     1.0  0.64064  0.16989  0.84361  1.0000
  C   C1943     1.0  0.62785  0.16780  0.85877  1.0000
  C   C1944     1.0  0.61310  0.16136  0.85898  1.0000
  H   H3400     1.0  0.62158  0.15714  0.81697  1.0000
  H   H3401     1.0  0.64812  0.16755  0.81680  1.0000
  H   H3402     1.0  0.62945  0.17083  0.87040  1.0000
  H   H3403     1.0  0.60352  0.15925  0.87086  1.0000
  C   C1945     1.0  0.59726  0.17936  0.74053  1.0000
  C   C1946     1.0  0.60248  0.17642  0.72361  1.0000
  C   C1947     1.0  0.59370  0.18698  0.71071  1.0000
  C   C1948     1.0  0.58010  0.20086  0.71457  1.0000
  C   C1949     1.0  0.57509  0.20404  0.73142  1.0000
  C   C1950     1.0  0.58347  0.19304  0.74449  1.0000
  H   H3404     1.0  0.61296  0.16567  0.72060  1.0000
  H   H3405     1.0  0.59749  0.18445  0.69771  1.0000
  H   H3406     1.0  0.56436  0.21456  0.73449  1.0000
  H   H3407     1.0  0.57920  0.19502  0.75767  1.0000
  C   C1951     1.0  0.53535  0.20982  0.82275  1.0000
  C   C1952     1.0  0.55220  0.21228  0.82162  1.0000
  C   C1953     1.0  0.55530  0.22101  0.83298  1.0000
  C   C1954     1.0  0.67217  0.23128  0.81127  1.0000
  H   H3408     1.0  0.56273  0.20815  0.81154  1.0000
  H   H3409     1.0  0.56827  0.22322  0.83178  1.0000
  H   H3410     1.0  0.52304  0.24657  0.75673  1.0000
  C   C1955     1.0  0.53380  0.11362  0.79093  1.0000
  C   C1956     1.0  0.52947  0.09724  0.79675  1.0000
  C   C1957     1.0  0.51730  0.26403  0.57594  1.0000
  H   H3411     1.0  0.73302  0.13838  0.48819  1.0000
  H   H3412     1.0  0.52453  0.29924  0.87220  1.0000
  C   C1958     1.0  0.52429  0.12624  0.77952  1.0000
  H   H3413     1.0  0.53668  0.08738  0.80547  1.0000
  C   C1959     1.0  0.72673  0.30112  0.96232  1.0000
  H   H3414     1.0  0.63370  0.18422  0.93326  1.0000
  H   H3415     1.0  0.52751  0.13897  0.77487  1.0000
  H   H3416     1.0  0.51986  0.29444  0.90743  1.0000
  C   C1960     1.0  0.62724  0.27763  0.66386  1.0000
  C   C1961     1.0  0.61048  0.27908  0.67472  1.0000
  C   C1962     1.0  0.53702  0.30393  0.86762  1.0000
  C   C1963     1.0  0.54862  0.27434  0.96163  1.0000
  H   H3417     1.0  0.50327  0.26390  0.78004  1.0000
  H   H3418     1.0  0.62957  0.27323  0.65183  1.0000
  H   H3419     1.0  0.59999  0.27588  0.67093  1.0000
  C   C1964     1.0  0.70475  0.19198  0.61935  1.0000
  H   H3420     1.0  0.51020  0.22656  0.67701  1.0000
  C   C1965     1.0  0.64833  0.25947  0.56775  1.0000
  C   C1966     1.0  0.66500  0.26313  0.56062  1.0000
  C   C1967     1.0  0.67258  0.26228  0.54329  1.0000
  C   C1968     1.0  0.66368  0.25737  0.53316  1.0000
  C   C1969     1.0  0.64678  0.25426  0.54014  1.0000
  C   C1970     1.0  0.63900  0.25561  0.55733  1.0000
  H   H3421     1.0  0.67205  0.26667  0.56845  1.0000
  H   H3422     1.0  0.68558  0.26483  0.53799  1.0000
  H   H3423     1.0  0.63976  0.25056  0.53243  1.0000
  H   H3424     1.0  0.62600  0.25308  0.56270  1.0000
  C   C1971     1.0  0.55129  0.24735  0.95245  1.0000
  C   C1972     1.0  0.72690  0.15068  0.94460  1.0000
  C   C1973     1.0  0.71349  0.14177  0.95356  1.0000
  C   C1974     1.0  0.69812  0.14491  0.94709  1.0000
  C   C1975     1.0  0.69597  0.15712  0.93177  1.0000
  C   C1976     1.0  0.70918  0.16634  0.92301  1.0000
  C   C1977     1.0  0.72468  0.16297  0.92932  1.0000
  H   H3425     1.0  0.55018  0.28100  0.85668  1.0000
  H   H3426     1.0  0.68797  0.13770  0.95389  1.0000
  N   N106      1.0  0.68799  0.12751  0.88043  1.0000
  C   C1978     1.0  0.68813  0.14053  0.86352  1.0000
  C   C1979     1.0  0.67031  0.13137  0.89216  1.0000
  C   C1980     1.0  0.70139  0.13018  0.88911  1.0000
  C   C1981     1.0  0.69242  0.10893  0.87800  1.0000
  H   H3427     1.0  0.50253  0.23073  0.70930  1.0000
  C   C1982     1.0  0.70635  0.14095  0.85140  1.0000
  C   C1983     1.0  0.70217  0.11915  0.90762  1.0000
  H   H3428     1.0  0.68661  0.10042  0.88997  1.0000
  C   C1984     1.0  0.49549  0.22349  0.70425  1.0000
  N   N107      1.0  0.54016  0.30956  0.89666  1.0000
  C   C1985     1.0  0.70478  0.15090  0.83306  1.0000
  H   H3429     1.0  0.68262  0.15382  0.86606  1.0000
  H   H3430     1.0  0.67924  0.13871  0.85600  1.0000
  H   H3431     1.0  0.52300  0.27966  0.59136  1.0000
  H   H3432     1.0  0.66795  0.14467  0.89484  1.0000
  H   H3433     1.0  0.69914  0.14408  0.89003  1.0000
  H   H3434     1.0  0.73108  0.18861  0.48373  1.0000
  H   H3435     1.0  0.69935  0.31226  0.96573  1.0000
  C   C1986     1.0  0.68031  0.18201  0.96863  1.0000
  H   H3436     1.0  0.66476  0.16725  0.48925  1.0000
  H   H3437     1.0  0.63749  0.23286  0.95746  1.0000
  H   H3438     1.0  0.71391  0.14765  0.85641  1.0000
  H   H3439     1.0  0.71398  0.12765  0.85067  1.0000
  C   C1987     1.0  0.70981  0.29905  0.49826  1.0000
  H   H3440     1.0  0.69092  0.12443  0.91720  1.0000
  H   H3441     1.0  0.69528  0.11066  0.84999  1.0000
  H   H3442     1.0  0.70467  0.28985  0.97630  1.0000
  H   H3443     1.0  0.69599  0.27238  0.90328  1.0000
  C   C1988     1.0  0.49613  0.14017  0.65144  1.0000
  H   H3444     1.0  0.71937  0.30373  0.48666  1.0000
  H   H3445     1.0  0.53398  0.17906  0.95969  1.0000
  C   C1989     1.0  0.50539  0.18413  0.78185  1.0000
  H   H3446     1.0  0.71801  0.15076  0.82472  1.0000
  H   H3447     1.0  0.69723  0.14488  0.82731  1.0000
  H   H3448     1.0  0.69816  0.16462  0.83324  1.0000
  C   C1990     1.0  0.50381  0.16488  0.69605  1.0000
  H   H3449     1.0  0.51384  0.28368  0.79258  1.0000
  H   H3450     1.0  0.55814  0.07525  0.77398  1.0000
  C   C1991     1.0  0.67578  0.21453  0.55826  1.0000
  C   C1992     1.0  0.52608  0.11658  0.84679  1.0000
  C   C1993     1.0  0.70258  0.31415  0.54728  1.0000
  H   H3451     1.0  0.72891  0.24915  0.80160  1.0000
  H   H3452     1.0  0.53228  0.21702  0.69574  1.0000
  H   H3453     1.0  0.65919  0.25930  0.91024  1.0000
  H   H3454     1.0  0.66620  0.21776  0.54969  1.0000
  C   C1994     1.0  0.64580  0.19691  0.95603  1.0000
  H   H3455     1.0  0.67118  0.22325  0.56775  1.0000
  H   H3456     1.0  0.72226  0.22116  0.52367  1.0000
  H   H3457     1.0  0.72990  0.18009  0.62599  1.0000
  H   H3458     1.0  0.50116  0.06348  0.68218  1.0000
  C   C1995     1.0  0.70708  0.21439  0.55897  1.0000
  H   H3459     1.0  0.68064  0.20117  0.61004  1.0000
  H   H3460     1.0  0.72732  0.25884  0.82869  1.0000
  S   S470      1.0  0.72178  0.27261  0.58186  1.0000
  H   H3461     1.0  0.53574  0.27865  0.79551  1.0000
  H   H3462     1.0  0.51106  0.24588  0.79577  1.0000
  C   C1996     1.0  0.54728  0.29535  0.85239  1.0000
  C   C1997     1.0  0.69715  0.02957  0.49179  1.0000
  H   H3463     1.0  0.70990  0.30344  0.93668  1.0000
  C   C1998     1.0  0.52636  0.26603  0.58952  1.0000
  H   H3464     1.0  0.63750  0.29622  0.56808  1.0000
  N   N108      1.0  0.56775  0.20353  0.90616  1.0000
  C   C1999     1.0  0.56119  0.19451  0.89564  1.0000
  C   C2000     1.0  0.55476  0.20488  0.92298  1.0000
  C   C2001     1.0  0.56824  0.22183  0.89605  1.0000
  C   C2002     1.0  0.58582  0.19482  0.90950  1.0000
  C   C2003     1.0  0.59045  0.17466  0.91246  1.0000
  C   C2004     1.0  0.57173  0.19427  0.87688  1.0000
  C   C2005     1.0  0.57171  0.23455  0.90560  1.0000
  C   C2006     1.0  0.55117  0.18778  0.93545  1.0000
  C   C2007     1.0  0.53619  0.19144  0.95071  1.0000
  C   C2008     1.0  0.60513  0.16717  0.92262  1.0000
  C   C2009     1.0  0.56537  0.18306  0.86819  1.0000
  C   C2010     1.0  0.57606  0.25101  0.89295  1.0000
  H   H3465     1.0  0.54742  0.20084  0.89459  1.0000
  H   H3466     1.0  0.56060  0.18090  0.90211  1.0000
  H   H3467     1.0  0.55903  0.21187  0.93082  1.0000
  H   H3468     1.0  0.54202  0.21280  0.92018  1.0000
  H   H3469     1.0  0.55559  0.22791  0.89180  1.0000
  H   H3470     1.0  0.57847  0.22171  0.88400  1.0000
  H   H3471     1.0  0.59612  0.19948  0.89853  1.0000
  H   H3472     1.0  0.58795  0.19884  0.92082  1.0000
  H   H3473     1.0  0.59492  0.17050  0.89981  1.0000
  H   H3474     1.0  0.57929  0.16847  0.91959  1.0000
  H   H3475     1.0  0.57010  0.20749  0.86875  1.0000
  H   H3476     1.0  0.58585  0.18927  0.87671  1.0000
  H   H3477     1.0  0.58262  0.22852  0.91255  1.0000
  H   H3478     1.0  0.55983  0.23863  0.91518  1.0000
  H   H3479     1.0  0.54740  0.17921  0.92897  1.0000
  H   H3480     1.0  0.56289  0.18087  0.94098  1.0000
  H   H3481     1.0  0.53730  0.10667  0.84197  1.0000
  H   H3482     1.0  0.71009  0.02061  0.49144  1.0000
  H   H3483     1.0  0.53934  0.29863  0.84222  1.0000
  H   H3484     1.0  0.60085  0.17014  0.93584  1.0000
  H   H3485     1.0  0.60861  0.15286  0.92393  1.0000
  H   H3486     1.0  0.61690  0.17265  0.91582  1.0000
  H   H3487     1.0  0.57272  0.18372  0.85459  1.0000
  H   H3488     1.0  0.56755  0.16929  0.87509  1.0000
  H   H3489     1.0  0.55124  0.18785  0.86791  1.0000
  H   H3490     1.0  0.58861  0.24793  0.88376  1.0000
  H   H3491     1.0  0.56553  0.25716  0.88549  1.0000
  H   H3492     1.0  0.57741  0.26029  0.90026  1.0000
  N   N109      1.0  0.62741  0.22396  0.80656  1.0000
  C   C2011     1.0  0.61239  0.23760  0.80068  1.0000
  C   C2012     1.0  0.62127  0.21537  0.82509  1.0000
  C   C2013     1.0  0.64250  0.23256  0.80490  1.0000
  C   C2014     1.0  0.63356  0.21026  0.79562  1.0000
  C   C2015     1.0  0.61936  0.20122  0.79405  1.0000
  C   C2016     1.0  0.61536  0.24605  0.78107  1.0000
  C   C2017     1.0  0.65811  0.22100  0.81301  1.0000
  C   C2018     1.0  0.61651  0.22708  0.83869  1.0000
  C   C2019     1.0  0.61263  0.21640  0.85704  1.0000
  C   C2020     1.0  0.62711  0.18848  0.78178  1.0000
  C   C2021     1.0  0.59966  0.26023  0.77682  1.0000
  H   H3493     1.0  0.60920  0.24836  0.80786  1.0000
  H   H3494     1.0  0.60023  0.23226  0.80409  1.0000
  H   H3495     1.0  0.60942  0.21010  0.82635  1.0000
  H   H3496     1.0  0.63122  0.20385  0.82915  1.0000
  H   H3497     1.0  0.63795  0.24446  0.81051  1.0000
  H   H3498     1.0  0.64806  0.23722  0.79100  1.0000
  H   H3499     1.0  0.64018  0.21569  0.78230  1.0000
  H   H3500     1.0  0.64373  0.19970  0.80099  1.0000
  H   H3501     1.0  0.60842  0.21065  0.78890  1.0000
  H   H3502     1.0  0.61389  0.19379  0.80685  1.0000
  H   H3503     1.0  0.62700  0.25214  0.77711  1.0000
  H   H3504     1.0  0.61727  0.23633  0.77298  1.0000
  H   H3505     1.0  0.66431  0.20985  0.80653  1.0000
  H   H3506     1.0  0.65392  0.21586  0.82702  1.0000
  H   H3507     1.0  0.62729  0.23354  0.83810  1.0000
  H   H3508     1.0  0.60468  0.23721  0.83668  1.0000
  H   H3509     1.0  0.60162  0.20996  0.85849  1.0000
  H   H3510     1.0  0.62431  0.20639  0.85991  1.0000
  H   H3511     1.0  0.60905  0.22500  0.86659  1.0000
  H   H3512     1.0  0.61689  0.18188  0.78109  1.0000
  H   H3513     1.0  0.63206  0.19539  0.76849  1.0000
  H   H3514     1.0  0.63792  0.17839  0.78653  1.0000
  H   H3515     1.0  0.59790  0.27096  0.78369  1.0000
  H   H3516     1.0  0.60183  0.26563  0.76265  1.0000
  H   H3517     1.0  0.58752  0.25494  0.78064  1.0000
  N   N110      1.0  0.58276  0.11741  0.74610  1.0000
  C   C2022     1.0  0.56666  0.13174  0.74589  1.0000
  C   C2023     1.0  0.57768  0.10005  0.75481  1.0000
  C   C2024     1.0  0.59367  0.12107  0.75692  1.0000
  C   C2025     1.0  0.59384  0.11680  0.72821  1.0000
  C   C2026     1.0  0.58463  0.11510  0.71436  1.0000
  C   C2027     1.0  0.56973  0.15032  0.73712  1.0000
  C   C2028     1.0  0.61091  0.10760  0.75895  1.0000
  C   C2029     1.0  0.56040  0.09699  0.75203  1.0000
  C   C2030     1.0  0.55806  0.07836  0.75988  1.0000
  C   C2031     1.0  0.59613  0.11823  0.69625  1.0000
  C   C2032     1.0  0.55242  0.16311  0.73558  1.0000
  C   C2033     1.0  0.61947  0.11078  0.77231  1.0000
  H   H3518     1.0  0.55939  0.13214  0.75943  1.0000
  H   H3519     1.0  0.55733  0.12918  0.73934  1.0000
  H   H3520     1.0  0.58833  0.08923  0.75086  1.0000
  H   H3521     1.0  0.57607  0.09801  0.76918  1.0000
  H   H3522     1.0  0.58574  0.12219  0.77013  1.0000
  H   H3523     1.0  0.59770  0.13376  0.75129  1.0000
  H   H3524     1.0  0.60008  0.12835  0.72325  1.0000
  H   H3525     1.0  0.60499  0.10551  0.72873  1.0000
  H   H3526     1.0  0.57211  0.12452  0.71407  1.0000
  H   H3527     1.0  0.58222  0.10175  0.71695  1.0000
  H   H3528     1.0  0.57628  0.15505  0.74494  1.0000
  H   H3529     1.0  0.57781  0.15081  0.72385  1.0000
  H   H3530     1.0  0.62050  0.10860  0.74645  1.0000
  H   H3531     1.0  0.60867  0.09412  0.76315  1.0000
  H   H3532     1.0  0.54903  0.10556  0.75851  1.0000
  H   H3533     1.0  0.55978  0.09967  0.73820  1.0000
  H   H3534     1.0  0.54527  0.07682  0.75829  1.0000
  H   H3535     1.0  0.56863  0.06906  0.75331  1.0000
  H   H3536     1.0  0.59878  0.13159  0.69271  1.0000
  H   H3537     1.0  0.60877  0.10874  0.69568  1.0000
  H   H3538     1.0  0.58937  0.11667  0.68657  1.0000
  H   H3539     1.0  0.54378  0.16331  0.74857  1.0000
  H   H3540     1.0  0.55499  0.17637  0.72982  1.0000
  H   H3541     1.0  0.54561  0.15956  0.72707  1.0000
  H   H3542     1.0  0.63257  0.10216  0.77213  1.0000
  H   H3543     1.0  0.62112  0.12446  0.76938  1.0000
  H   H3544     1.0  0.61142  0.10775  0.78551  1.0000
  H   H3545     1.0  0.73281  0.14541  0.52388  1.0000
  H   H3546     1.0  0.70776  0.14175  0.55604  1.0000
  C   C2034     1.0  0.69336  0.19264  0.60865  1.0000
  H   H3547     1.0  0.67617  0.14009  0.52154  1.0000
  S   S471      1.0  0.64322  0.20381  0.48940  1.0000
  C   C2035     1.0  0.64291  0.30810  0.56561  1.0000
  N   N111      1.0  0.72394  0.22040  0.55002  1.0000
  C   C2036     1.0  0.71057  0.12124  0.51137  1.0000
  H   H3548     1.0  0.71477  0.12717  0.88117  1.0000
  H   H3549     1.0  0.70071  0.23914  0.93179  1.0000
  H   H3550     1.0  0.55822  0.23422  0.95175  1.0000
  H   H3551     1.0  0.52699  0.13271  0.82161  1.0000
  C   C2037     1.0  0.62870  0.30078  0.49156  1.0000
  H   H3552     1.0  0.74376  0.21860  0.52661  1.0000
  C   C2038     1.0  0.63478  0.26149  0.92874  1.0000
  C   C2039     1.0  0.53295  0.28076  0.95545  1.0000
  H   H3553     1.0  0.66763  0.29850  0.55036  1.0000
  H   H3554     1.0  0.50873  0.19323  0.78808  1.0000
  H   H3555     1.0  0.54788  0.28517  0.88812  1.0000
  H   H3556     1.0  0.50841  0.16956  0.81471  1.0000
  H   H3557     1.0  0.49874  0.19187  0.77113  1.0000
  C   C2040     1.0  0.72581  0.23137  0.89731  1.0000
  C   C2041     1.0  0.53546  0.25369  0.94652  1.0000
  C   C2042     1.0  0.65649  0.30960  0.54867  1.0000
  N   N112      1.0  0.58732  0.23034  0.60106  1.0000
  C   C2043     1.0  0.57777  0.23418  0.58634  1.0000
  C   C2044     1.0  0.58141  0.21523  0.61447  1.0000
  C   C2045     1.0  0.58184  0.24604  0.60943  1.0000
  C   C2046     1.0  0.60699  0.22676  0.59510  1.0000
  C   C2047     1.0  0.61465  0.21778  0.57925  1.0000
  C   C2048     1.0  0.58008  0.25122  0.57290  1.0000
  C   C2049     1.0  0.58951  0.24460  0.62554  1.0000
  C   C2050     1.0  0.58681  0.19742  0.60897  1.0000
  C   C2051     1.0  0.57890  0.18349  0.62293  1.0000
  C   C2052     1.0  0.63421  0.21057  0.57789  1.0000
  C   C2053     1.0  0.57527  0.25136  0.55588  1.0000
  C   C2054     1.0  0.58688  0.26237  0.63006  1.0000
  H   H3558     1.0  0.56344  0.23508  0.59149  1.0000
  H   H3559     1.0  0.58152  0.22337  0.57927  1.0000
  H   H3560     1.0  0.58682  0.21312  0.62627  1.0000
  H   H3561     1.0  0.56690  0.21813  0.61877  1.0000
  H   H3562     1.0  0.56729  0.24942  0.61332  1.0000
  H   H3563     1.0  0.58590  0.25754  0.59998  1.0000
  H   H3564     1.0  0.61205  0.23902  0.59152  1.0000
  H   H3565     1.0  0.61329  0.21885  0.60605  1.0000
  H   H3566     1.0  0.61276  0.22720  0.56704  1.0000
  H   H3567     1.0  0.60849  0.20692  0.57978  1.0000
  H   H3568     1.0  0.57141  0.26250  0.57812  1.0000
  H   H3569     1.0  0.59370  0.25323  0.57003  1.0000
  H   H3570     1.0  0.60375  0.23908  0.62338  1.0000
  H   H3571     1.0  0.58281  0.23628  0.63697  1.0000
  H   H3572     1.0  0.58240  0.19803  0.59696  1.0000
  H   H3573     1.0  0.60122  0.19300  0.60702  1.0000
  H   H3574     1.0  0.56453  0.18630  0.62415  1.0000
  H   H3575     1.0  0.58416  0.17066  0.61919  1.0000
  H   H3576     1.0  0.58204  0.18281  0.63565  1.0000
  H   H3577     1.0  0.64098  0.22091  0.57781  1.0000
  H   H3578     1.0  0.63665  0.19973  0.58898  1.0000
  H   H3579     1.0  0.63963  0.20559  0.56569  1.0000
  H   H3580     1.0  0.56208  0.24831  0.55821  1.0000
  H   H3581     1.0  0.57532  0.26434  0.54727  1.0000
  H   H3582     1.0  0.58511  0.24169  0.54917  1.0000
  H   H3583     1.0  0.59407  0.27104  0.61935  1.0000
  H   H3584     1.0  0.57276  0.26850  0.63254  1.0000
  H   H3585     1.0  0.59202  0.26091  0.64190  1.0000
  N   N113      1.0  0.53418  0.14946  0.68131  1.0000
  C   C2055     1.0  0.54253  0.14064  0.66613  1.0000
  C   C2056     1.0  0.53541  0.13605  0.69780  1.0000
  C   C2057     1.0  0.51543  0.15763  0.68008  1.0000
  C   C2058     1.0  0.54329  0.16357  0.68126  1.0000
  C   C2059     1.0  0.56343  0.15855  0.67933  1.0000
  C   C2060     1.0  0.54422  0.15262  0.64791  1.0000
  H   H3586     1.0  0.66678  0.24225  0.81818  1.0000
  C   C2061     1.0  0.52538  0.12121  0.70086  1.0000
  C   C2062     1.0  0.52649  0.10916  0.71848  1.0000
  C   C2063     1.0  0.57087  0.17402  0.67959  1.0000
  C   C2064     1.0  0.55472  0.14221  0.63407  1.0000
  S   S472      1.0  0.73324  0.30460  0.88037  1.0000
  H   H3587     1.0  0.53478  0.13121  0.66572  1.0000
  H   H3588     1.0  0.55569  0.13273  0.66768  1.0000
  H   H3589     1.0  0.54926  0.12957  0.69793  1.0000
  H   H3590     1.0  0.53101  0.14228  0.70931  1.0000
  C   C2065     1.0  0.54963  0.30117  0.91148  1.0000
  H   H3591     1.0  0.51488  0.16858  0.66865  1.0000
  H   H3592     1.0  0.54030  0.17494  0.67083  1.0000
  H   H3593     1.0  0.53813  0.16855  0.69349  1.0000
  H   H3594     1.0  0.56983  0.15425  0.66694  1.0000
  H   H3595     1.0  0.56710  0.14804  0.69017  1.0000
  H   H3596     1.0  0.53109  0.15847  0.64478  1.0000
  H   H3597     1.0  0.55094  0.16324  0.64697  1.0000
  H   H3598     1.0  0.71486  0.28149  0.94651  1.0000
  H   H3599     1.0  0.70046  0.22104  0.56995  1.0000
  H   H3600     1.0  0.51140  0.12636  0.70044  1.0000
  H   H3601     1.0  0.53101  0.11314  0.69086  1.0000
  H   H3602     1.0  0.54025  0.10257  0.71894  1.0000
  H   H3603     1.0  0.52114  0.11646  0.72917  1.0000
  H   H3604     1.0  0.51869  0.09905  0.72054  1.0000
  H   H3605     1.0  0.56773  0.18498  0.66879  1.0000
  H   H3606     1.0  0.56541  0.17846  0.69208  1.0000
  H   H3607     1.0  0.58532  0.17025  0.67806  1.0000
  H   H3608     1.0  0.55590  0.15081  0.62106  1.0000
  H   H3609     1.0  0.56811  0.13631  0.63645  1.0000
  H   H3610     1.0  0.54806  0.13183  0.63394  1.0000
  H   H3611     1.0  0.68942  0.25446  0.96102  1.0000
  H   H3612     1.0  0.70524  0.12999  0.50012  1.0000
  H   H3613     1.0  0.65750  0.29071  0.50660  1.0000
  C   C2066     1.0  0.54161  0.22700  0.84579  1.0000
  N   N114      1.0  0.63394  0.22438  0.69254  1.0000
  C   C2067     1.0  0.62761  0.23721  0.70446  1.0000
  C   C2068     1.0  0.65050  0.22845  0.68016  1.0000
  C   C2069     1.0  0.62020  0.22717  0.68189  1.0000
  C   C2070     1.0  0.63681  0.20570  0.70219  1.0000
  C   C2071     1.0  0.64218  0.20193  0.72005  1.0000
  C   C2072     1.0  0.60886  0.23722  0.71556  1.0000
  C   C2073     1.0  0.62509  0.21676  0.66717  1.0000
  C   C2074     1.0  0.66645  0.22658  0.68831  1.0000
  C   C2075     1.0  0.68194  0.23199  0.67450  1.0000
  C   C2076     1.0  0.64838  0.18250  0.72641  1.0000
  C   C2077     1.0  0.60581  0.24573  0.73110  1.0000
  C   C2078     1.0  0.60892  0.21655  0.66074  1.0000
  H   H3614     1.0  0.62768  0.25063  0.69679  1.0000
  H   H3615     1.0  0.63670  0.23543  0.71323  1.0000
  H   H3616     1.0  0.65513  0.21975  0.67063  1.0000
  H   H3617     1.0  0.64788  0.24192  0.67239  1.0000
  H   H3618     1.0  0.61671  0.24118  0.67582  1.0000
  H   H3619     1.0  0.60785  0.22373  0.69036  1.0000
  H   H3620     1.0  0.62473  0.20041  0.70481  1.0000
  H   H3621     1.0  0.64677  0.19741  0.69386  1.0000
  H   H3622     1.0  0.63081  0.20649  0.72993  1.0000
  H   H3623     1.0  0.65281  0.20846  0.71965  1.0000
  H   H3624     1.0  0.59911  0.24472  0.70749  1.0000
  H   H3625     1.0  0.60626  0.22389  0.72038  1.0000
  H   H3626     1.0  0.63156  0.20313  0.67149  1.0000
  H   H3627     1.0  0.63411  0.22294  0.65594  1.0000
  H   H3628     1.0  0.66341  0.23480  0.69810  1.0000
  H   H3629     1.0  0.67085  0.21281  0.69432  1.0000
  H   H3630     1.0  0.68582  0.22393  0.66444  1.0000
  H   H3631     1.0  0.68651  0.23699  0.91884  1.0000
  H   H3632     1.0  0.69332  0.23025  0.68057  1.0000
  H   H3633     1.0  0.66044  0.17744  0.71751  1.0000
  H   H3634     1.0  0.65131  0.18013  0.73953  1.0000
  H   H3635     1.0  0.63809  0.17529  0.72724  1.0000
  H   H3636     1.0  0.61396  0.23764  0.74050  1.0000
  H   H3637     1.0  0.60904  0.25886  0.72681  1.0000
  H   H3638     1.0  0.59183  0.24712  0.73762  1.0000
  H   H3639     1.0  0.61292  0.21120  0.64872  1.0000
  H   H3640     1.0  0.60062  0.20831  0.67069  1.0000
  H   H3641     1.0  0.60110  0.22989  0.65796  1.0000
  S   S473      1.0  0.69871  0.20524  0.63478  1.0000
  C   C2079     1.0  0.73240  0.26689  0.53033  1.0000
  H   H3642     1.0  0.54197  0.23636  0.79407  1.0000
  C   C2080     1.0  0.68938  0.08590  0.86336  1.0000
  C   C2081     1.0  0.52163  0.21577  0.83561  1.0000
  C   C2082     1.0  0.51704  0.12687  0.83186  1.0000
  H   H3643     1.0  0.51490  0.29811  0.52857  1.0000
  H   H3644     1.0  0.64151  0.24610  0.97694  1.0000
  C   C2083     1.0  0.50816  0.13323  0.63792  1.0000
  H   H3645     1.0  0.68941  0.18232  0.58828  1.0000
  H   H3646     1.0  0.61407  0.20063  0.93208  1.0000
  S   S474      1.0  0.50362  0.27287  0.73454  1.0000
  C   C2084     1.0  0.52597  0.20745  0.69330  1.0000
  H   H3647     1.0  0.52193  0.27267  0.56359  1.0000
  S   S475      1.0  0.66986  0.28127  0.60486  1.0000
  C   C2085     1.0  0.50669  0.10549  0.77976  1.0000
  H   H3648     1.0  0.61875  0.29426  0.70658  1.0000
  C   C2086     1.0  0.55799  0.25771  0.95973  1.0000
  H   H3649     1.0  0.50403  0.22593  0.76200  1.0000
  H   H3650     1.0  0.60885  0.26225  0.94454  1.0000
  H   H3651     1.0  0.68313  0.22268  0.81719  1.0000
  H   H3652     1.0  0.66875  0.17183  0.51738  1.0000
  H   H3653     1.0  0.68692  0.02238  0.49994  1.0000
  C   C2087     1.0  0.68757  0.28401  0.93371  1.0000
  H   H3654     1.0  0.56361  0.30081  0.74281  1.0000
  H   H3655     1.0  0.64613  0.29581  0.53592  1.0000
  H   H3656     1.0  0.68021  0.29089  0.51829  1.0000
  C   C2088     1.0  0.69833  0.18201  0.59633  1.0000
  C   C2089     1.0  0.60739  0.28503  0.69022  1.0000
  H   H3657     1.0  0.74134  0.12476  0.51804  1.0000
  H   H3658     1.0  0.55245  0.23904  0.76010  1.0000
  H   H3659     1.0  0.56259  0.28086  0.73774  1.0000
  H   H3660     1.0  0.57867  0.22720  0.78443  1.0000
  H   H3661     1.0  0.70153  0.21815  0.92765  1.0000
  S   S476      1.0  0.51272  0.14543  0.61677  1.0000
  H   H3662     1.0  0.53119  0.12528  0.85203  1.0000
  C   C2090     1.0  0.69272  0.23054  0.93020  1.0000
  H   H3663     1.0  0.73064  0.13183  0.55077  1.0000
  C   C2091     1.0  0.52484  0.22407  0.84735  1.0000
  H   H3664     1.0  0.50360  0.13170  0.76490  1.0000
  N   N115      1.0  0.53013  0.26179  0.78168  1.0000
  H   H3665     1.0  0.52086  0.28300  0.76196  1.0000
  H   H3666     1.0  0.53743  0.26703  0.75356  1.0000
  H   H3667     1.0  0.52819  0.25030  0.81707  1.0000
  C   C2092     1.0  0.72639  0.17070  0.60476  1.0000
  H   H3668     1.0  0.67604  0.20461  0.93840  1.0000
  H   H3669     1.0  0.62164  0.21580  0.95079  1.0000
  C   C2093     1.0  0.71994  0.29079  0.56473  1.0000
  H   H3670     1.0  0.69795  0.20762  0.53861  1.0000
  C   C2094     1.0  0.56956  0.30062  0.90760  1.0000
  C   C2095     1.0  0.53332  0.27404  0.76440  1.0000
  C   C2096     1.0  0.54611  0.24803  0.78507  1.0000
  C   C2097     1.0  0.55911  0.24194  0.76906  1.0000
  C   C2098     1.0  0.51922  0.26295  0.81437  1.0000
  C   C2099     1.0  0.57228  0.22554  0.77452  1.0000
  H   H3671     1.0  0.56555  0.21439  0.77992  1.0000
  H   H3672     1.0  0.63582  0.14981  0.89817  1.0000
  H   H3673     1.0  0.72608  0.15888  0.49497  1.0000
  H   H3674     1.0  0.54756  0.28759  0.91662  1.0000
  H   H3675     1.0  0.62601  0.13470  0.89290  1.0000
  C   C2100     1.0  0.57775  0.28996  0.92298  1.0000
  C   C2101     1.0  0.51087  0.12208  0.77372  1.0000
  C   C2102     1.0  0.64080  0.28231  0.66845  1.0000
  H   H3676     1.0  0.50320  0.24338  0.56357  1.0000
  C   C2103     1.0  0.52478  0.27264  0.79549  1.0000
  H   H3677     1.0  0.66164  0.23173  0.97751  1.0000
  C   C2104     1.0  0.73109  0.21460  0.53296  1.0000
  H   H3678     1.0  0.71096  0.24722  0.48467  1.0000
  H   H3679     1.0  0.73908  0.19835  0.56444  1.0000
  C   C2105     1.0  0.54737  0.29920  0.88249  1.0000
  C   C2106     1.0  0.67887  0.22708  0.94659  1.0000
  H   H3680     1.0  0.68570  0.22109  0.95746  1.0000
  H   H3681     1.0  0.64802  0.29198  0.68744  1.0000
  H   H3682     1.0  0.50858  0.21384  0.83660  1.0000
  H   H3683     1.0  0.51772  0.30420  0.72728  1.0000
  C   C2107     1.0  0.71506  0.17146  0.59397  1.0000
  H   H3684     1.0  0.67598  0.17388  0.96211  1.0000
  C   C2108     1.0  0.67515  0.16047  0.48060  1.0000
  C   C2109     1.0  0.66796  0.16378  0.53067  1.0000
  H   H3685     1.0  0.70963  0.20043  0.56513  1.0000
  H   H3686     1.0  0.55398  0.25237  0.79203  1.0000
  H   H3687     1.0  0.56656  0.25213  0.76163  1.0000
  H   H3688     1.0  0.58252  0.22256  0.76308  1.0000
  H   H3689     1.0  0.63858  0.21344  0.93186  1.0000
  C   C2110     1.0  0.70784  0.29946  0.96421  1.0000
  H   H3690     1.0  0.70839  0.29320  0.91304  1.0000
  C   C2111     1.0  0.66742  0.21536  0.94461  1.0000
  H   H3691     1.0  0.65976  0.22346  0.93480  1.0000
  H   H3692     1.0  0.50243  0.31299  0.97793  1.0000
  C   C2112     1.0  0.70539  0.29380  0.94825  1.0000
  H   H3693     1.0  0.70434  0.26244  0.96872  1.0000
  H   H3694     1.0  0.67065  0.23983  0.94871  1.0000
  H   H3695     1.0  0.57591  0.27635  0.92591  1.0000
  H   H3696     1.0  0.50914  0.17510  0.69858  1.0000
  H   H3697     1.0  0.73582  0.28852  0.96116  1.0000
  C   C2113     1.0  0.71885  0.11946  0.91316  1.0000
  H   H3698     1.0  0.63871  0.18931  0.96793  1.0000
  S   S477      1.0  0.49457  0.25588  0.87441  1.0000
  H   H3699     1.0  0.69214  0.23018  0.53923  1.0000
  H   H3700     1.0  0.67858  0.24583  0.66820  1.0000
  C   C2114     1.0  0.63224  0.20641  0.94441  1.0000
  C   C2115     1.0  0.63321  0.30890  0.50447  1.0000
  H   H3701     1.0  0.72999  0.29582  0.60439  1.0000
  H   H3702     1.0  0.50551  0.27101  0.54545  1.0000
  H   H3703     1.0  0.54421  0.30802  0.92248  1.0000
  H   H3704     1.0  0.69617  0.29301  0.88842  1.0000
  C   C2116     1.0  0.69367  0.21704  0.54737  1.0000
  H   H3705     1.0  0.51329  0.15249  0.80337  1.0000
  H   H3706     1.0  0.50573  0.26065  0.81663  1.0000
  C   C2117     1.0  0.50101  0.11212  0.67097  1.0000
  H   H3707     1.0  0.70229  0.11486  0.57747  1.0000
  H   H3708     1.0  0.51426  0.22843  0.85738  1.0000
  H   H3709     1.0  0.71517  0.13215  0.96524  1.0000
  Fe  Fe234     1.0  0.52164  0.24507  0.87926  1.0000
  S   S478      1.0  0.52624  0.23942  0.93980  1.0000
  C   C2118     1.0  0.73213  0.21814  0.57941  1.0000
  H   H3710     1.0  0.50346  0.25415  0.67616  1.0000
  H   H3711     1.0  0.50894  0.14830  0.67755  1.0000
  H   H3712     1.0  0.68585  0.08374  0.85183  1.0000
  H   H3713     1.0  0.73837  0.17624  0.51784  1.0000
  C   C2119     1.0  0.54663  0.28565  0.76255  1.0000
  C   C2120     1.0  0.66534  0.19682  0.97450  1.0000
  H   H3714     1.0  0.67599  0.28845  0.90253  1.0000
  C   C2121     1.0  0.72400  0.25951  0.87813  1.0000
  N   N116      1.0  0.68706  0.29230  0.94849  1.0000
  H   H3715     1.0  0.53277  0.27549  0.82633  1.0000
  S   S479      1.0  0.49756  0.09825  0.69133  1.0000
  C   C2122     1.0  0.69403  0.10082  0.50606  1.0000
  H   H3716     1.0  0.56114  0.30009  0.87649  1.0000
  H   H3717     1.0  0.65946  0.30910  0.48962  1.0000
  H   H3718     1.0  0.70995  0.28522  0.49885  1.0000
  Fe  Fe235     1.0  0.67093  0.20302  0.49028  1.0000
  H   H3719     1.0  0.67716  0.28778  0.97627  1.0000
  H   H3720     1.0  0.71242  0.24515  0.53611  1.0000
  C   C2123     1.0  0.72924  0.24818  0.89278  1.0000
  H   H3721     1.0  0.63685  0.12806  0.91111  1.0000
  H   H3722     1.0  0.73512  0.25362  0.48970  1.0000
  C   C2124     1.0  0.73408  0.30879  0.53889  1.0000
  H   H3723     1.0  0.65487  0.11611  0.88565  1.0000
  S   S480      1.0  0.51249  0.22272  0.60440  1.0000
  H   H3724     1.0  0.67453  0.28137  0.93437  1.0000
  C   C2125     1.0  0.52651  0.27061  0.94771  1.0000
  C   C2126     1.0  0.74323  0.29852  0.60277  1.0000
  C   C2127     1.0  0.71311  0.12098  0.54126  1.0000
  H   H3725     1.0  0.74213  0.26452  0.61368  1.0000
  H   H3726     1.0  0.74279  0.08013  0.53976  1.0000
  H   H3727     1.0  0.68695  0.09005  0.51235  1.0000
  H   H3728     1.0  0.72013  0.21359  0.58722  1.0000
  H   H3729     1.0  0.55740  0.27871  0.76947  1.0000
  H   H3730     1.0  0.68347  0.30878  0.52464  1.0000
  H   H3731     1.0  0.66078  0.14101  0.48149  1.0000
  H   H3732     1.0  0.68684  0.11222  0.52842  1.0000
  Fe  Fe236     1.0  0.62121  0.27805  0.96397  1.0000
  S   S481      1.0  0.64245  0.27063  0.94201  1.0000
  N   N117      1.0  0.65946  0.31333  0.51504  1.0000
  H   H3733     1.0  0.69132  0.18746  0.95952  1.0000
  H   H3734     1.0  0.71184  0.24508  0.55792  1.0000
  H   H3735     1.0  0.55971  0.30003  0.84666  1.0000
  Fe  Fe237     1.0  0.51150  0.17405  0.61280  1.0000
  H   H3736     1.0  0.51616  0.31022  0.93084  1.0000
  C   C2128     1.0  0.68029  0.14619  0.53022  1.0000
  H   H3737     1.0  0.67843  0.13839  0.54359  1.0000
  C   C2129     1.0  0.68701  0.10536  0.86236  1.0000
  H   H3738     1.0  0.66992  0.12240  0.90500  1.0000
  C   C2130     1.0  0.73089  0.13660  0.51634  1.0000
  C   C2131     1.0  0.69032  0.28649  0.90156  1.0000
  H   H3739     1.0  0.69648  0.27106  0.93479  1.0000
  H   H3740     1.0  0.66638  0.27951  0.96473  1.0000
  C   C2132     1.0  0.69908  0.10734  0.51977  1.0000
  S   S482      1.0  0.72180  0.16002  0.57693  1.0000
  H   H3741     1.0  0.63444  0.28665  0.49342  1.0000
  H   H3742     1.0  0.73068  0.21346  0.64478  1.0000
  H   H3743     1.0  0.65513  0.18722  0.94885  1.0000
  Fe  Fe238     1.0  0.58229  0.28385  0.97843  1.0000
  N   N118      1.0  0.65545  0.20820  0.96087  1.0000
  H   H3744     1.0  0.57185  0.29573  0.93465  1.0000
  H   H3745     1.0  0.68075  0.08002  0.87516  1.0000
  H   H3746     1.0  0.72286  0.10868  0.54060  1.0000
  C   C2133     1.0  0.70361  0.30037  0.56168  1.0000
  C   C2134     1.0  0.67566  0.31026  0.94686  1.0000
  H   H3747     1.0  0.57652  0.29469  0.89625  1.0000
  C   C2135     1.0  0.71579  0.11727  0.57242  1.0000
  H   H3748     1.0  0.65425  0.16198  0.53575  1.0000
  C   C2136     1.0  0.50219  0.16150  0.80974  1.0000
  C   C2137     1.0  0.51937  0.27346  0.82748  1.0000
  N   N119      1.0  0.71314  0.13178  0.52318  1.0000
  H   H3749     1.0  0.72453  0.18838  0.54334  1.0000
  H   H3750     1.0  0.74058  0.28552  0.80765  1.0000
  H   H3751     1.0  0.73015  0.22245  0.90844  1.0000
  C   C2138     1.0  0.69949  0.14830  0.52314  1.0000
  H   H3752     1.0  0.51523  0.26621  0.84078  1.0000
  C   C2139     1.0  0.51635  0.11575  0.64097  1.0000
  H   H3753     1.0  0.67127  0.17068  0.53922  1.0000
  C   C2140     1.0  0.73023  0.23961  0.81388  1.0000
  H   H3754     1.0  0.57004  0.25258  0.96447  1.0000
  C   C2141     1.0  0.72026  0.23995  0.54642  1.0000
  H   H3755     1.0  0.67324  0.11136  0.86157  1.0000
  H   H3756     1.0  0.68772  0.30806  0.91332  1.0000
  C   C2142     1.0  0.65435  0.12987  0.88571  1.0000
  H   H3757     1.0  0.71410  0.30009  0.50984  1.0000
  H   H3758     1.0  0.72014  0.30119  0.82964  1.0000
  Fe  Fe239     1.0  0.51162  0.24681  0.91757  1.0000
  H   H3759     1.0  0.61670  0.18624  0.95250  1.0000
  H   H3760     1.0  0.52390  0.19812  0.94604  1.0000
  S   S483      1.0  0.49804  0.18987  0.63303  1.0000
  C   C2143     1.0  0.50480  0.30635  0.73528  1.0000
  H   H3761     1.0  0.70590  0.09594  0.49694  1.0000
  S   S484      1.0  0.59951  0.30064  0.95916  1.0000
  H   H3762     1.0  0.52178  0.25045  0.57413  1.0000
  H   H3763     1.0  0.70680  0.10383  0.87630  1.0000
  C   C2144     1.0  0.65331  0.30510  0.50346  1.0000
  C   C2145     1.0  0.69035  0.26254  0.96979  1.0000
  C   C2146     1.0  0.73478  0.14594  0.49704  1.0000
  H   H3764     1.0  0.73917  0.16230  0.60330  1.0000
  H   H3765     1.0  0.65368  0.13783  0.87258  1.0000
  H   H3766     1.0  0.73055  0.11265  0.90512  1.0000
  H   H3767     1.0  0.62998  0.21782  0.97581  1.0000
  C   C2147     1.0  0.50138  0.23480  0.77116  1.0000
  C   C2148     1.0  0.73477  0.19478  0.53411  1.0000
  H   H3768     1.0  0.72695  0.22602  0.97181  1.0000
  S   S485      1.0  0.50066  0.19334  0.59108  1.0000
  C   C2149     1.0  0.72110  0.18072  0.61766  1.0000
  H   H3769     1.0  0.72339  0.11375  0.50556  1.0000
  H   H3770     1.0  0.53983  0.29725  0.76825  1.0000
  C   C2150     1.0  0.63724  0.13598  0.89777  1.0000
  H   H3771     1.0  0.69180  0.29717  0.57039  1.0000
  H   H3772     1.0  0.70246  0.15687  0.53030  1.0000
  H   H3773     1.0  0.54072  0.26243  0.58522  1.0000
  H   H3774     1.0  0.68536  0.11142  0.49879  1.0000
  H   H3775     1.0  0.70043  0.11696  0.54716  1.0000
  H   H3776     1.0  0.53933  0.19977  0.95800  1.0000
  H   H3777     1.0  0.51024  0.28621  0.82559  1.0000
  H   H3778     1.0  0.72074  0.27470  0.53744  1.0000
  H   H3779     1.0  0.72660  0.27248  0.87453  1.0000
  H   H3780     1.0  0.71907  0.12332  0.58171  1.0000
  H   H3781     1.0  0.72805  0.30527  0.97386  1.0000
  C   C2151     1.0  0.73697  0.24701  0.82589  1.0000
  H   H3782     1.0  0.51760  0.17572  0.77632  1.0000
  H   H3783     1.0  0.73733  0.23713  0.83806  1.0000
  C   C2152     1.0  0.73516  0.29532  0.55353  1.0000
  H   H3784     1.0  0.52246  0.25738  0.60211  1.0000
  H   H3785     1.0  0.51687  0.10986  0.85733  1.0000
  H   H3786     1.0  0.73160  0.22020  0.48849  1.0000
  H   H3787     1.0  0.71715  0.23660  0.82036  1.0000
  H   H3788     1.0  0.72515  0.10473  0.57168  1.0000
  H   H3789     1.0  0.69728  0.04042  0.49776  1.0000
  H   H3790     1.0  0.51349  0.31424  0.89299  1.0000
  C   C2153     1.0  0.73631  0.19047  0.51652  1.0000
  S   S486      1.0  0.74154  0.07371  0.50691  1.0000
  H   H3791     1.0  0.50790  0.15008  0.84182  1.0000
  H   H3792     1.0  0.72974  0.23239  0.57809  1.0000
  H   H3793     1.0  0.74093  0.23415  0.61832  1.0000
  H   H3794     1.0  0.73921  0.22743  0.81093  1.0000
  C   C2154     1.0  0.52114  0.30828  0.90340  1.0000
  H   H3795     1.0  0.72934  0.31590  0.81096  1.0000
  C   C2155     1.0  0.49512  0.29321  0.74042  1.0000
  C   C2156     1.0  0.49711  0.26879  0.58175  1.0000
  H   H3796     1.0  0.66596  0.04335  0.48274  1.0000
  H   H3797     1.0  0.74265  0.21387  0.60248  1.0000
  H   H3798     1.0  0.74372  0.27326  0.52785  1.0000
  H   H3799     1.0  0.73506  0.16982  0.92226  1.0000
  H   H3800     1.0  0.73905  0.27361  0.84098  1.0000
  H   H3801     1.0  0.72979  0.26651  0.51770  1.0000
  H   H3802     1.0  0.57199  0.31392  0.90539  1.0000
  C   C2157     1.0  0.67854  0.30524  0.51475  1.0000
  H   H3803     1.0  0.74443  0.25768  0.95299  1.0000
  H   H3804     1.0  0.70186  0.10542  0.90838  1.0000
  H   H3805     1.0  0.73048  0.31103  0.95068  1.0000
  C   C2158     1.0  0.69147  0.30997  0.49746  1.0000
  H   H3806     1.0  0.70321  0.07934  0.86357  1.0000
  H   H3807     1.0  0.71833  0.11288  0.92696  1.0000
  H   H3808     1.0  0.64989  0.30292  0.95264  1.0000
  C   C2159     1.0  0.73713  0.21275  0.56154  1.0000
  H   H3809     1.0  0.69013  0.27739  0.48358  1.0000
  H   H3810     1.0  0.73690  0.24276  0.63750  1.0000
  C   C2160     1.0  0.50088  0.30456  0.53117  1.0000
  H   H3811     1.0  0.49852  0.29925  0.55869  1.0000
  H   H3812     1.0  0.64913  0.30733  0.57659  1.0000
  H   H3813     1.0  0.74066  0.24926  0.55262  1.0000
  C   C2161     1.0  0.73652  0.24850  0.54088  1.0000
  C   C2162     1.0  0.65736  0.31199  0.94292  1.0000
  H   H3814     1.0  0.67343  0.31515  0.95901  1.0000
  H   H3815     1.0  0.49455  0.21849  0.55648  1.0000
  H   H3816     1.0  0.69933  0.16088  0.97962  1.0000
  H   H3817     1.0  0.72746  0.61354  0.08922  1.0000
  Fe  Fe240     1.0  0.70684  0.58490  0.28773  1.0000
  S   S487      1.0  0.71203  0.59590  0.25908  1.0000
  S   S488      1.0  0.72076  0.55693  0.29149  1.0000
  Fe  Fe241     1.0  0.68238  0.61840  0.29570  1.0000
  S   S489      1.0  0.68616  0.63178  0.26785  1.0000
  S   S490      1.0  0.66118  0.63244  0.31431  1.0000
  Fe  Fe242     1.0  0.68345  0.60696  0.26295  1.0000
  S   S491      1.0  0.66476  0.60939  0.24599  1.0000
  Fe  Fe243     1.0  0.71445  0.61957  0.26666  1.0000
  C   C2163     1.0  0.69914  0.37975  0.25708  1.0000
  S   S492      1.0  0.67778  0.59404  0.29082  1.0000
  S   S493      1.0  0.71127  0.60810  0.29521  1.0000
  Fe  Fe244     1.0  0.69759  0.35508  0.03280  1.0000
  S   S494      1.0  0.67518  0.37701  0.03790  1.0000
  S   S495      1.0  0.70452  0.33213  0.05344  1.0000
  Fe  Fe245     1.0  0.69370  0.39426  0.02176  1.0000
  S   S496      1.0  0.69472  0.42017  0.02751  1.0000
  Fe  Fe246     1.0  0.66974  0.37466  0.01282  1.0000
  S   S497      1.0  0.64155  0.37685  0.01152  1.0000
  S   S498      1.0  0.71664  0.37224  0.01857  1.0000
  H   H3818     1.0  0.73710  0.40585  0.01987  1.0000
  C   C2164     1.0  0.65560  0.56089  0.27222  1.0000
  C   C2165     1.0  0.70489  0.34728  0.29387  1.0000
  H   H3819     1.0  0.70813  0.34803  0.30608  1.0000
  C   C2166     1.0  0.73731  0.46091  0.15711  1.0000
  C   C2167     1.0  0.59281  0.57543  0.23762  1.0000
  H   H3820     1.0  0.67652  0.55732  0.32268  1.0000
  H   H3821     1.0  0.57402  0.55168  0.19773  1.0000
  H   H3822     1.0  0.64006  0.53336  0.28795  1.0000
  H   H3823     1.0  0.73196  0.53537  0.25426  1.0000
  Fe  Fe247     1.0  0.72056  0.47130  0.12256  1.0000
  H   H3824     1.0  0.59809  0.64107  0.15718  1.0000
  S   S499      1.0  0.72064  0.45606  0.14979  1.0000
  Fe  Fe248     1.0  0.70421  0.49716  0.09454  1.0000
  S   S500      1.0  0.72873  0.49323  0.07409  1.0000
  S   S501      1.0  0.68038  0.51545  0.08668  1.0000
  Fe  Fe249     1.0  0.72972  0.46481  0.08559  1.0000
  Fe  Fe250     1.0  0.72215  0.32397  0.38431  1.0000
  H   H3825     1.0  0.52628  0.32876  0.00217  1.0000
  H   H3826     1.0  0.59191  0.57993  0.24968  1.0000
  S   S502      1.0  0.70442  0.46881  0.10482  1.0000
  S   S503      1.0  0.71741  0.50028  0.11442  1.0000
  Fe  Fe251     1.0  0.63758  0.56620  0.15987  1.0000
  S   S504      1.0  0.61202  0.56860  0.17884  1.0000
  S   S505      1.0  0.63671  0.57054  0.13176  1.0000
  Fe  Fe252     1.0  0.65834  0.56176  0.18724  1.0000
  S   S506      1.0  0.63458  0.56356  0.20856  1.0000
  S   S507      1.0  0.68431  0.55902  0.19400  1.0000
  Fe  Fe253     1.0  0.62618  0.54643  0.19607  1.0000
  S   S508      1.0  0.61203  0.52544  0.21187  1.0000
  Fe  Fe254     1.0  0.62272  0.58570  0.18947  1.0000
  S   S509      1.0  0.60813  0.61051  0.19854  1.0000
  S   S510      1.0  0.65098  0.54253  0.17625  1.0000
  S   S511      1.0  0.64724  0.58519  0.16899  1.0000
  Fe  Fe255     1.0  0.67409  0.45892  0.27087  1.0000
  S   S512      1.0  0.69690  0.46533  0.24994  1.0000
  S   S513      1.0  0.64558  0.46881  0.27001  1.0000
  Fe  Fe256     1.0  0.69658  0.43433  0.29536  1.0000
  S   S514      1.0  0.72136  0.43893  0.27678  1.0000
  S   S515      1.0  0.70008  0.41697  0.32119  1.0000
  Fe  Fe257     1.0  0.70835  0.46682  0.27181  1.0000
  C   C2168     1.0  0.56666  0.33968  0.01991  1.0000
  Fe  Fe258     1.0  0.70824  0.43683  0.25641  1.0000
  S   S516      1.0  0.72142  0.42204  0.23509  1.0000
  S   S517      1.0  0.68460  0.46273  0.29247  1.0000
  S   S518      1.0  0.68427  0.43004  0.27540  1.0000
  H   H3827     1.0  0.62187  0.57374  0.26430  1.0000
  H   H3828     1.0  0.51350  0.61296  0.23812  1.0000
  C   C2169     1.0  0.53350  0.32990  0.98847  1.0000
  C   C2170     1.0  0.74072  0.38317  0.12477  1.0000
  H   H3829     1.0  0.66133  0.43768  0.37889  1.0000
  H   H3830     1.0  0.71260  0.49560  0.33522  1.0000
  H   H3831     1.0  0.68899  0.50387  0.22040  1.0000
  H   H3832     1.0  0.65444  0.51950  0.30190  1.0000
  H   H3833     1.0  0.70644  0.53376  0.27729  1.0000
  C   C2171     1.0  0.69560  0.39603  0.32605  1.0000
  C   C2172     1.0  0.55540  0.52491  0.24750  1.0000
  C   C2173     1.0  0.68478  0.39161  0.31754  1.0000
  H   H3834     1.0  0.71146  0.38694  0.34548  1.0000
  H   H3835     1.0  0.67884  0.40123  0.30773  1.0000
  H   H3836     1.0  0.60087  0.58310  0.22681  1.0000
  H   H3837     1.0  0.73480  0.53369  0.07246  1.0000
  H   H3838     1.0  0.57763  0.32926  0.01578  1.0000
  C   C2174     1.0  0.62236  0.50997  0.22752  1.0000
  C   C2175     1.0  0.63980  0.50883  0.22847  1.0000
  C   C2176     1.0  0.64744  0.49597  0.24120  1.0000
  C   C2177     1.0  0.63749  0.48456  0.25310  1.0000
  C   C2178     1.0  0.62012  0.48594  0.25209  1.0000
  C   C2179     1.0  0.61267  0.49843  0.23930  1.0000
  H   H3839     1.0  0.64737  0.51775  0.21939  1.0000
  H   H3840     1.0  0.66083  0.49502  0.24202  1.0000
  H   H3841     1.0  0.61238  0.47722  0.26127  1.0000
  H   H3842     1.0  0.59925  0.49922  0.23864  1.0000
  C   C2180     1.0  0.56546  0.57581  0.18088  1.0000
  C   C2181     1.0  0.66770  0.52955  0.10034  1.0000
  C   C2182     1.0  0.67080  0.52834  0.11684  1.0000
  C   C2183     1.0  0.66090  0.54056  0.12692  1.0000
  C   C2184     1.0  0.64802  0.55396  0.12048  1.0000
  C   C2185     1.0  0.64471  0.55486  0.10419  1.0000
  C   C2186     1.0  0.65447  0.54265  0.09419  1.0000
  H   H3843     1.0  0.68089  0.51814  0.12170  1.0000
  H   H3844     1.0  0.66346  0.53990  0.13946  1.0000
  H   H3845     1.0  0.63474  0.56517  0.09917  1.0000
  H   H3846     1.0  0.65196  0.54356  0.08149  1.0000
  C   C2187     1.0  0.55364  0.63374  0.18648  1.0000
  C   C2188     1.0  0.55877  0.63856  0.19951  1.0000
  C   C2189     1.0  0.57560  0.63146  0.20307  1.0000
  C   C2190     1.0  0.58727  0.61947  0.19370  1.0000
  C   C2191     1.0  0.58223  0.61492  0.18050  1.0000
  C   C2192     1.0  0.56548  0.62207  0.17687  1.0000
  H   H3847     1.0  0.71433  0.37937  0.38202  1.0000
  H   H3848     1.0  0.57950  0.63510  0.21323  1.0000
  H   H3849     1.0  0.59136  0.60611  0.17288  1.0000
  H   H3850     1.0  0.56165  0.61849  0.16662  1.0000
  H   H3851     1.0  0.71552  0.36496  0.41364  1.0000
  H   H3852     1.0  0.72026  0.55702  0.25593  1.0000
  H   H3853     1.0  0.56347  0.35391  0.98701  1.0000
  C   C2193     1.0  0.72445  0.46023  0.38864  1.0000
  H   H3854     1.0  0.72843  0.45006  0.39969  1.0000
  C   C2194     1.0  0.71865  0.33779  0.06326  1.0000
  C   C2195     1.0  0.71768  0.35523  0.06313  1.0000
  H   H3855     1.0  0.64022  0.35815  0.45232  1.0000
  H   H3856     1.0  0.67578  0.61645  0.18273  1.0000
  H   H3857     1.0  0.65068  0.35831  0.09599  1.0000
  H   H3858     1.0  0.70785  0.36519  0.05748  1.0000
  C   C2196     1.0  0.61370  0.34626  0.99029  1.0000
  C   C2197     1.0  0.70533  0.42526  0.04185  1.0000
  C   C2198     1.0  0.70292  0.44269  0.04312  1.0000
  C   C2199     1.0  0.71202  0.44757  0.05328  1.0000
  C   C2200     1.0  0.72391  0.43509  0.06211  1.0000
  C   C2201     1.0  0.72604  0.41758  0.06117  1.0000
  C   C2202     1.0  0.71665  0.41267  0.05127  1.0000
  H   H3859     1.0  0.69413  0.45255  0.03597  1.0000
  H   H3860     1.0  0.71025  0.46109  0.05378  1.0000
  H   H3861     1.0  0.55333  0.58552  0.17894  1.0000
  H   H3862     1.0  0.71846  0.39923  0.05055  1.0000
  C   C2203     1.0  0.63176  0.36447  0.00303  1.0000
  H   H3863     1.0  0.51090  0.38887  0.00442  1.0000
  C   C2204     1.0  0.71936  0.37029  0.11600  1.0000
  H   H3864     1.0  0.70940  0.63741  0.21656  1.0000
  H   H3865     1.0  0.73781  0.43934  0.17888  1.0000
  H   H3866     1.0  0.66058  0.34074  0.04986  1.0000
  H   H3867     1.0  0.65348  0.34297  0.00007  1.0000
  C   C2205     1.0  0.52711  0.36121  0.98749  1.0000
  H   H3868     1.0  0.66072  0.59882  0.05866  1.0000
  H   H3869     1.0  0.60803  0.38384  0.00415  1.0000
  H   H3870     1.0  0.74155  0.32011  0.03221  1.0000
  H   H3871     1.0  0.68452  0.55047  0.24910  1.0000
  H   H3872     1.0  0.71048  0.40508  0.44826  1.0000
  H   H3873     1.0  0.66173  0.36973  0.10504  1.0000
  H   H3874     1.0  0.55128  0.55659  0.19749  1.0000
  H   H3875     1.0  0.64391  0.64017  0.23156  1.0000
  H   H3876     1.0  0.52246  0.40473  0.98955  1.0000
  C   C2206     1.0  0.67193  0.59681  0.23011  1.0000
  C   C2207     1.0  0.66066  0.59792  0.21924  1.0000
  C   C2208     1.0  0.66504  0.58688  0.20752  1.0000
  C   C2209     1.0  0.68055  0.57443  0.20682  1.0000
  C   C2210     1.0  0.69244  0.57404  0.21686  1.0000
  C   C2211     1.0  0.68814  0.58532  0.22854  1.0000
  H   H3877     1.0  0.64819  0.60684  0.22033  1.0000
  H   H3878     1.0  0.65612  0.58787  0.19932  1.0000
  H   H3879     1.0  0.70470  0.56478  0.21590  1.0000
  H   H3880     1.0  0.69715  0.58479  0.23654  1.0000
  C   C2212     1.0  0.72605  0.54233  0.31025  1.0000
  C   C2213     1.0  0.71828  0.54503  0.32705  1.0000
  C   C2214     1.0  0.72255  0.53215  0.34145  1.0000
  H   H3881     1.0  0.69959  0.43115  0.98667  1.0000
  H   H3882     1.0  0.63788  0.33883  0.03633  1.0000
  H   H3883     1.0  0.73030  0.45901  0.30799  1.0000
  H   H3884     1.0  0.70895  0.55687  0.32893  1.0000
  H   H3885     1.0  0.71658  0.53417  0.35446  1.0000
  C   C2215     1.0  0.71972  0.54488  0.25237  1.0000
  H   H3886     1.0  0.51490  0.61155  0.21602  1.0000
  H   H3887     1.0  0.70971  0.33256  0.10515  1.0000
  H   H3888     1.0  0.68256  0.42455  0.38112  1.0000
  H   H3889     1.0  0.69001  0.32732  0.30744  1.0000
  C   C2216     1.0  0.73461  0.42592  0.98950  1.0000
  H   H3890     1.0  0.70381  0.42541  0.14407  1.0000
  C   C2217     1.0  0.72445  0.50174  0.21868  1.0000
  S   S519      1.0  0.74046  0.34085  0.46885  1.0000
  H   H3891     1.0  0.72533  0.39988  0.28448  1.0000
  C   C2218     1.0  0.51774  0.39267  0.99079  1.0000
  H   H3892     1.0  0.58580  0.56059  0.21586  1.0000
  H   H3893     1.0  0.67245  0.63923  0.17833  1.0000
  C   C2219     1.0  0.64844  0.50724  0.28425  1.0000
  C   C2220     1.0  0.70109  0.32923  0.29629  1.0000
  C   C2221     1.0  0.57519  0.57227  0.21708  1.0000
  N   N120      1.0  0.69298  0.35970  0.43392  1.0000
  H   H3894     1.0  0.69417  0.36750  0.26140  1.0000
  H   H3895     1.0  0.72461  0.43747  0.12010  1.0000
  C   C2222     1.0  0.64909  0.56173  0.25555  1.0000
  H   H3896     1.0  0.71653  0.57311  0.07143  1.0000
  H   H3897     1.0  0.68863  0.56359  0.26161  1.0000
  C   C2223     1.0  0.67455  0.33383  0.11363  1.0000
  H   H3898     1.0  0.65509  0.55435  0.33481  1.0000
  H   H3899     1.0  0.53918  0.55302  0.22662  1.0000
  Fe  Fe259     1.0  0.70792  0.37067  0.99495  1.0000
  S   S520      1.0  0.73472  0.63498  0.25099  1.0000
  H   H3900     1.0  0.70868  0.51307  0.30647  1.0000
  H   H3901     1.0  0.64737  0.33845  0.44384  1.0000
  C   C2224     1.0  0.60570  0.36248  0.99439  1.0000
  H   H3902     1.0  0.69508  0.39527  0.37752  1.0000
  C   C2225     1.0  0.68116  0.37481  0.32220  1.0000
  C   C2226     1.0  0.63090  0.33895  0.99270  1.0000
  H   H3903     1.0  0.73405  0.38892  0.31305  1.0000
  H   H3904     1.0  0.73510  0.40777  0.06798  1.0000
  C   C2227     1.0  0.70468  0.32451  0.11777  1.0000
  C   C2228     1.0  0.72301  0.54000  0.06680  1.0000
  H   H3905     1.0  0.72231  0.40433  0.99029  1.0000
  H   H3906     1.0  0.74060  0.37605  0.35637  1.0000
  H   H3907     1.0  0.66670  0.32842  0.02479  1.0000
  C   C2229     1.0  0.74440  0.51781  0.19514  1.0000
  H   H3908     1.0  0.71545  0.61263  0.11143  1.0000
  H   H3909     1.0  0.73390  0.58108  0.09459  1.0000
  H   H3910     1.0  0.70590  0.35712  0.35293  1.0000
  C   C2230     1.0  0.69027  0.63480  0.20335  1.0000
  C   C2231     1.0  0.65986  0.55229  0.30783  1.0000
  H   H3911     1.0  0.72195  0.49309  0.21128  1.0000
  H   H3912     1.0  0.56846  0.59191  0.23302  1.0000
  H   H3913     1.0  0.65639  0.31852  0.14487  1.0000
  C   C2232     1.0  0.61452  0.37133  0.00098  1.0000
  H   H3914     1.0  0.72825  0.32326  0.13850  1.0000
  H   H3915     1.0  0.56144  0.56036  0.16433  1.0000
  C   C2233     1.0  0.55612  0.34315  0.99213  1.0000
  H   H3916     1.0  0.73864  0.52184  0.15312  1.0000
  H   H3917     1.0  0.71085  0.61557  0.15011  1.0000
  H   H3918     1.0  0.68741  0.64010  0.22887  1.0000
  H   H3919     1.0  0.62511  0.62911  0.29911  1.0000
  H   H3920     1.0  0.73613  0.43853  0.98055  1.0000
  C   C2234     1.0  0.73648  0.38875  0.28583  1.0000
  C   C2235     1.0  0.73984  0.41251  0.12968  1.0000
  H   H3921     1.0  0.71878  0.54781  0.23856  1.0000
  H   H3922     1.0  0.72550  0.42255  0.10760  1.0000
  H   H3923     1.0  0.56591  0.33132  0.98935  1.0000
  H   H3924     1.0  0.67441  0.42700  0.36159  1.0000
  H   H3925     1.0  0.71813  0.50372  0.15927  1.0000
  H   H3926     1.0  0.62273  0.33593  0.05612  1.0000
  C   C2236     1.0  0.70473  0.64409  0.16497  1.0000
  H   H3927     1.0  0.69487  0.39261  0.40789  1.0000
  H   H3928     1.0  0.58398  0.55739  0.16620  1.0000
  H   H3929     1.0  0.72053  0.39711  0.10913  1.0000
  H   H3930     1.0  0.57112  0.35223  0.01560  1.0000
  H   H3931     1.0  0.72608  0.55896  0.08840  1.0000
  H   H3932     1.0  0.71836  0.32989  0.42272  1.0000
  H   H3933     1.0  0.71924  0.44163  0.31820  1.0000
  H   H3934     1.0  0.70891  0.43288  0.35935  1.0000
  C   C2237     1.0  0.69710  0.63254  0.21980  1.0000
  C   C2238     1.0  0.65623  0.63096  0.15765  1.0000
  H   H3935     1.0  0.67453  0.33180  0.45637  1.0000
  H   H3936     1.0  0.63610  0.58899  0.25370  1.0000
  N   N121      1.0  0.72445  0.36837  0.27397  1.0000
  C   C2239     1.0  0.70859  0.38217  0.27048  1.0000
  H   H3937     1.0  0.68029  0.63958  0.14602  1.0000
  H   H3938     1.0  0.64672  0.64018  0.20069  1.0000
  S   S521      1.0  0.68432  0.34124  0.34062  1.0000
  C   C2240     1.0  0.70197  0.62205  0.19169  1.0000
  N   N122      1.0  0.55832  0.56913  0.21470  1.0000
  C   C2241     1.0  0.72941  0.35986  0.07041  1.0000
  H   H3939     1.0  0.69889  0.44052  0.34126  1.0000
  S   S522      1.0  0.69098  0.35142  0.00902  1.0000
  H   H3940     1.0  0.63748  0.50250  0.29414  1.0000
  H   H3941     1.0  0.71793  0.34877  0.44153  1.0000
  H   H3942     1.0  0.54034  0.59016  0.23979  1.0000
  H   H3943     1.0  0.70240  0.35352  0.40848  1.0000
  C   C2242     1.0  0.62944  0.62043  0.28961  1.0000
  C   C2243     1.0  0.50022  0.64644  0.27891  1.0000
  H   H3944     1.0  0.73875  0.46036  0.33329  1.0000
  H   H3945     1.0  0.73167  0.38227  0.13764  1.0000
  H   H3946     1.0  0.73444  0.33370  0.01289  1.0000
  H   H3947     1.0  0.71166  0.44339  0.38203  1.0000
  H   H3948     1.0  0.57393  0.57691  0.15317  1.0000
  H   H3949     1.0  0.72468  0.42950  0.00095  1.0000
  H   H3950     1.0  0.73480  0.36526  0.24743  1.0000
  H   H3951     1.0  0.69740  0.32779  0.28453  1.0000
  C   C2244     1.0  0.68862  0.36234  0.33511  1.0000
  N   N123      1.0  0.70008  0.57330  0.09703  1.0000
  H   H3952     1.0  0.67152  0.53584  0.32942  1.0000
  H   H3953     1.0  0.72547  0.61220  0.16424  1.0000
  C   C2245     1.0  0.64755  0.33997  0.05842  1.0000
  C   C2246     1.0  0.63126  0.64532  0.26360  1.0000
  C   C2247     1.0  0.70835  0.59391  0.17153  1.0000
  H   H3954     1.0  0.67046  0.46450  0.22848  1.0000
  C   C2248     1.0  0.71768  0.58190  0.15885  1.0000
  H   H3955     1.0  0.71242  0.46918  0.39366  1.0000
  H   H3956     1.0  0.67828  0.38205  0.40655  1.0000
  C   C2249     1.0  0.66618  0.54976  0.32469  1.0000
  C   C2250     1.0  0.72613  0.60561  0.10259  1.0000
  H   H3957     1.0  0.65415  0.56631  0.30414  1.0000
  H   H3958     1.0  0.71348  0.58847  0.18365  1.0000
  H   H3959     1.0  0.69428  0.59354  0.17430  1.0000
  N   N124      1.0  0.67103  0.54658  0.27608  1.0000
  Fe  Fe260     1.0  0.74210  0.49459  0.09493  1.0000
  H   H3960     1.0  0.69955  0.46862  0.32325  1.0000
  H   H3961     1.0  0.50834  0.39546  0.98204  1.0000
  H   H3962     1.0  0.71622  0.56842  0.16514  1.0000
  C   C2251     1.0  0.66316  0.36241  0.09476  1.0000
  H   H3963     1.0  0.73180  0.58219  0.15496  1.0000
  C   C2252     1.0  0.66731  0.34538  0.45325  1.0000
  N   N125      1.0  0.66392  0.48650  0.17001  1.0000
  C   C2253     1.0  0.64476  0.49461  0.17451  1.0000
  C   C2254     1.0  0.66848  0.47169  0.18464  1.0000
  C   C2255     1.0  0.67444  0.50025  0.16724  1.0000
  C   C2256     1.0  0.66811  0.47946  0.15361  1.0000
  C   C2257     1.0  0.65660  0.46696  0.15307  1.0000
  C   C2258     1.0  0.63720  0.50842  0.15977  1.0000
  C   C2259     1.0  0.69454  0.49395  0.16413  1.0000
  C   C2260     1.0  0.66688  0.47668  0.20227  1.0000
  C   C2261     1.0  0.68666  0.55037  0.26209  1.0000
  C   C2262     1.0  0.66172  0.46131  0.13561  1.0000
  C   C2263     1.0  0.61764  0.51522  0.16547  1.0000
  C   C2264     1.0  0.70388  0.50898  0.16069  1.0000
  H   H3964     1.0  0.64225  0.50122  0.18561  1.0000
  H   H3965     1.0  0.63667  0.48446  0.17919  1.0000
  H   H3966     1.0  0.65981  0.46224  0.18727  1.0000
  H   H3967     1.0  0.68198  0.46417  0.18090  1.0000
  H   H3968     1.0  0.67042  0.50701  0.17835  1.0000
  H   H3969     1.0  0.67175  0.51049  0.15576  1.0000
  H   H3970     1.0  0.66758  0.49023  0.14203  1.0000
  H   H3971     1.0  0.68181  0.47202  0.15145  1.0000
  H   H3972     1.0  0.64253  0.47312  0.15493  1.0000
  H   H3973     1.0  0.65833  0.45507  0.16327  1.0000
  H   H3974     1.0  0.64362  0.51971  0.15610  1.0000
  H   H3975     1.0  0.63899  0.50314  0.14799  1.0000
  H   H3976     1.0  0.69919  0.48812  0.15249  1.0000
  H   H3977     1.0  0.69868  0.48432  0.17543  1.0000
  H   H3978     1.0  0.67540  0.48587  0.20114  1.0000
  H   H3979     1.0  0.65317  0.48268  0.20730  1.0000
  H   H3980     1.0  0.70427  0.52526  0.25977  1.0000
  H   H3981     1.0  0.56826  0.53171  0.22108  1.0000
  H   H3982     1.0  0.56486  0.51241  0.24966  1.0000
  H   H3983     1.0  0.66005  0.47274  0.12485  1.0000
  H   H3984     1.0  0.67556  0.45429  0.13348  1.0000
  H   H3985     1.0  0.65330  0.45247  0.13541  1.0000
  H   H3986     1.0  0.61036  0.50447  0.16923  1.0000
  H   H3987     1.0  0.61519  0.52171  0.17657  1.0000
  H   H3988     1.0  0.61263  0.52490  0.15460  1.0000
  H   H3989     1.0  0.69941  0.51610  0.17154  1.0000
  H   H3990     1.0  0.73856  0.60378  0.10701  1.0000
  H   H3991     1.0  0.70162  0.51798  0.14836  1.0000
  Fe  Fe261     1.0  0.69584  0.32485  0.36340  1.0000
  H   H3992     1.0  0.71594  0.62090  0.19208  1.0000
  C   C2265     1.0  0.71159  0.61260  0.16402  1.0000
  H   H3993     1.0  0.63548  0.36667  0.04847  1.0000
  H   H3994     1.0  0.68998  0.58305  0.06434  1.0000
  H   H3995     1.0  0.71194  0.58585  0.14706  1.0000
  C   C2266     1.0  0.70993  0.32803  0.43580  1.0000
  H   H3996     1.0  0.71799  0.34697  0.26706  1.0000
  C   C2267     1.0  0.55120  0.55544  0.22923  1.0000
  C   C2268     1.0  0.69258  0.38116  0.40432  1.0000
  C   C2269     1.0  0.68844  0.56984  0.13022  1.0000
  H   H3997     1.0  0.53169  0.61903  0.22160  1.0000
  H   H3998     1.0  0.67149  0.34123  0.12422  1.0000
  H   H3999     1.0  0.62625  0.61959  0.26456  1.0000
  H   H4000     1.0  0.68838  0.50758  0.31956  1.0000
  H   H4001     1.0  0.64659  0.36414  0.06576  1.0000
  H   H4002     1.0  0.72821  0.35738  0.11763  1.0000
  H   H4003     1.0  0.72399  0.47436  0.35515  1.0000
  C   C2270     1.0  0.74407  0.38971  0.30087  1.0000
  C   C2271     1.0  0.63822  0.35828  0.06093  1.0000
  C   C2272     1.0  0.53290  0.59113  0.22977  1.0000
  H   H4004     1.0  0.68440  0.55554  0.29133  1.0000
  H   H4005     1.0  0.69013  0.35181  0.09440  1.0000
  H   H4006     1.0  0.71292  0.55604  0.11705  1.0000
  H   H4007     1.0  0.53538  0.58512  0.20524  1.0000
  H   H4008     1.0  0.65876  0.57374  0.27135  1.0000
  C   C2273     1.0  0.57156  0.56700  0.16524  1.0000
  H   H4009     1.0  0.67405  0.39541  0.26702  1.0000
  H   H4010     1.0  0.67678  0.63225  0.20726  1.0000
  H   H4011     1.0  0.68619  0.45457  0.21193  1.0000
  C   C2274     1.0  0.69975  0.36673  0.34328  1.0000
  H   H4012     1.0  0.73868  0.52605  0.22566  1.0000
  H   H4013     1.0  0.52324  0.58253  0.23533  1.0000
  H   H4014     1.0  0.62570  0.35795  0.07050  1.0000
  C   C2275     1.0  0.69983  0.38218  0.38489  1.0000
  C   C2276     1.0  0.68023  0.58867  0.07479  1.0000
  C   C2277     1.0  0.73804  0.52696  0.30794  1.0000
  H   H4015     1.0  0.59936  0.56151  0.23924  1.0000
  H   H4016     1.0  0.73381  0.44353  0.37033  1.0000
  H   H4017     1.0  0.57552  0.58285  0.18080  1.0000
  C   C2278     1.0  0.69170  0.51311  0.22694  1.0000
  H   H4018     1.0  0.64471  0.51058  0.27139  1.0000
  C   C2279     1.0  0.68346  0.39457  0.25452  1.0000
  S   S523      1.0  0.69387  0.33644  0.38617  1.0000
  C   C2280     1.0  0.68910  0.37499  0.44259  1.0000
  H   H4019     1.0  0.68239  0.53368  0.29860  1.0000
  C   C2281     1.0  0.72989  0.38467  0.11093  1.0000
  H   H4020     1.0  0.69624  0.42805  0.12433  1.0000
  H   H4021     1.0  0.64939  0.54485  0.31045  1.0000
  H   H4022     1.0  0.68303  0.37147  0.45650  1.0000
  H   H4023     1.0  0.67918  0.38563  0.43690  1.0000
  C   C2282     1.0  0.70500  0.38258  0.44230  1.0000
  C   C2283     1.0  0.70522  0.34499  0.44290  1.0000
  C   C2284     1.0  0.72253  0.58792  0.10295  1.0000
  C   C2285     1.0  0.71340  0.56398  0.08397  1.0000
  H   H4024     1.0  0.69645  0.55233  0.07451  1.0000
  H   H4025     1.0  0.65929  0.56418  0.24377  1.0000
  H   H4026     1.0  0.69885  0.38353  0.28271  1.0000
  C   C2286     1.0  0.69951  0.56156  0.11466  1.0000
  H   H4027     1.0  0.64394  0.61694  0.28687  1.0000
  H   H4028     1.0  0.67246  0.37150  0.31590  1.0000
  C   C2287     1.0  0.66825  0.52901  0.27577  1.0000
  C   C2288     1.0  0.52264  0.60979  0.22610  1.0000
  H   H4029     1.0  0.67412  0.45904  0.35574  1.0000
  C   C2289     1.0  0.70160  0.36420  0.41507  1.0000
  H   H4030     1.0  0.68369  0.45550  0.37441  1.0000
  C   C2290     1.0  0.74359  0.61728  0.22419  1.0000
  H   H4031     1.0  0.73185  0.34055  0.28221  1.0000
  H   H4032     1.0  0.66394  0.45102  0.21779  1.0000
  C   C2291     1.0  0.64007  0.34823  0.99879  1.0000
  C   C2292     1.0  0.63224  0.64291  0.20297  1.0000
  H   H4033     1.0  0.70809  0.37962  0.24426  1.0000
  C   C2293     1.0  0.70652  0.42068  0.13177  1.0000
  C   C2294     1.0  0.74016  0.51216  0.18013  1.0000
  H   H4034     1.0  0.69467  0.59847  0.10398  1.0000
  H   H4035     1.0  0.67968  0.51872  0.27899  1.0000
  H   H4036     1.0  0.60835  0.63299  0.27644  1.0000
  H   H4037     1.0  0.73624  0.53083  0.19656  1.0000
  C   C2295     1.0  0.70301  0.38359  0.33895  1.0000
  H   H4038     1.0  0.55143  0.52998  0.25969  1.0000
  C   C2296     1.0  0.67222  0.46067  0.21587  1.0000
  C   C2297     1.0  0.70844  0.54832  0.08005  1.0000
  H   H4039     1.0  0.71228  0.37129  0.10558  1.0000
  C   C2298     1.0  0.67819  0.34669  0.09606  1.0000
  H   H4040     1.0  0.69420  0.55004  0.11520  1.0000
  H   H4041     1.0  0.68945  0.47909  0.34094  1.0000
  C   C2299     1.0  0.56223  0.56236  0.19810  1.0000
  H   H4042     1.0  0.67955  0.34031  0.08510  1.0000
  C   C2300     1.0  0.73462  0.51672  0.33900  1.0000
  H   H4043     1.0  0.64973  0.33223  0.07126  1.0000
  H   H4044     1.0  0.67432  0.57272  0.12988  1.0000
  H   H4045     1.0  0.66596  0.37121  0.08196  1.0000
  H   H4046     1.0  0.60644  0.32474  0.04469  1.0000
  H   H4047     1.0  0.71324  0.38499  0.42918  1.0000
  H   H4048     1.0  0.69957  0.61870  0.22637  1.0000
  H   H4049     1.0  0.74013  0.48342  0.13680  1.0000
  H   H4050     1.0  0.70027  0.49635  0.30219  1.0000
  H   H4051     1.0  0.70212  0.47405  0.36569  1.0000
  H   H4052     1.0  0.67247  0.58478  0.10250  1.0000
  H   H4053     1.0  0.67664  0.39231  0.24525  1.0000
  H   H4054     1.0  0.71228  0.39509  0.26551  1.0000
  C   C2301     1.0  0.70539  0.58997  0.09653  1.0000
  H   H4055     1.0  0.69531  0.37267  0.38026  1.0000
  H   H4056     1.0  0.69272  0.35684  0.29189  1.0000
  H   H4057     1.0  0.66733  0.35199  0.46358  1.0000
  H   H4058     1.0  0.62352  0.63390  0.23850  1.0000
  C   C2302     1.0  0.68065  0.62762  0.17334  1.0000
  C   C2303     1.0  0.63677  0.33203  0.05017  1.0000
  C   C2304     1.0  0.62280  0.62934  0.27291  1.0000
  H   H4059     1.0  0.73699  0.52601  0.11591  1.0000
  C   C2305     1.0  0.64830  0.34483  0.45407  1.0000
  C   C2306     1.0  0.65204  0.52314  0.28847  1.0000
  H   H4060     1.0  0.54679  0.55987  0.24172  1.0000
  H   H4061     1.0  0.70582  0.40677  0.13489  1.0000
  H   H4062     1.0  0.68198  0.60202  0.07385  1.0000
  H   H4063     1.0  0.62937  0.57751  0.24110  1.0000
  H   H4064     1.0  0.70736  0.59764  0.08302  1.0000
  H   H4065     1.0  0.70105  0.33306  0.12743  1.0000
  H   H4066     1.0  0.71942  0.37152  0.30055  1.0000
  H   H4067     1.0  0.57579  0.53930  0.23637  1.0000
  C   C2307     1.0  0.68204  0.57755  0.09300  1.0000
  C   C2308     1.0  0.67585  0.35464  0.43504  1.0000
  H   H4068     1.0  0.64290  0.33733  0.46687  1.0000
  H   H4069     1.0  0.69078  0.40948  0.44004  1.0000
  H   H4070     1.0  0.71131  0.52740  0.22502  1.0000
  H   H4071     1.0  0.67730  0.34607  0.42579  1.0000
  C   C2309     1.0  0.66209  0.59006  0.07135  1.0000
  H   H4072     1.0  0.73426  0.40845  0.14367  1.0000
  C   C2310     1.0  0.70419  0.53734  0.26385  1.0000
  H   H4073     1.0  0.72184  0.58050  0.11645  1.0000
  C   C2311     1.0  0.67523  0.54666  0.29322  1.0000
  H   H4074     1.0  0.68784  0.40711  0.24910  1.0000
  H   H4075     1.0  0.69996  0.34207  0.45712  1.0000
  H   H4076     1.0  0.69890  0.60914  0.19827  1.0000
  H   H4077     1.0  0.56709  0.57036  0.24560  1.0000
  H   H4078     1.0  0.72733  0.63814  0.14409  1.0000
  H   H4079     1.0  0.72866  0.37335  0.07032  1.0000
  H   H4080     1.0  0.72516  0.48476  0.31796  1.0000
  H   H4081     1.0  0.70965  0.37146  0.12825  1.0000
  H   H4082     1.0  0.68221  0.61630  0.15098  1.0000
  H   H4083     1.0  0.69142  0.39781  0.46212  1.0000
  H   H4084     1.0  0.66024  0.57710  0.07089  1.0000
  H   H4085     1.0  0.73620  0.55025  0.12987  1.0000
  H   H4086     1.0  0.70492  0.55372  0.14826  1.0000
  S   S524      1.0  0.72230  0.48817  0.26971  1.0000
  C   C2312     1.0  0.55098  0.34050  0.01219  1.0000
  C   C2313     1.0  0.54477  0.58584  0.21291  1.0000
  H   H4087     1.0  0.69144  0.50712  0.24086  1.0000
  C   C2314     1.0  0.70942  0.51800  0.21822  1.0000
  H   H4088     1.0  0.71330  0.37349  0.45111  1.0000
  H   H4089     1.0  0.73566  0.43926  0.34420  1.0000
  H   H4090     1.0  0.71367  0.64671  0.17206  1.0000
  C   C2315     1.0  0.69896  0.39978  0.44857  1.0000
  H   H4091     1.0  0.58000  0.58259  0.20642  1.0000
  H   H4092     1.0  0.64403  0.55997  0.28291  1.0000
  S   S525      1.0  0.68615  0.39402  0.99684  1.0000
  H   H4093     1.0  0.68120  0.52494  0.22606  1.0000
  H   H4094     1.0  0.70866  0.52464  0.20465  1.0000
  H   H4095     1.0  0.51952  0.35784  0.00091  1.0000
  H   H4096     1.0  0.54375  0.52243  0.24432  1.0000
  H   H4097     1.0  0.67719  0.56546  0.09470  1.0000
  H   H4098     1.0  0.66014  0.49658  0.28413  1.0000
  H   H4099     1.0  0.54974  0.64762  0.20692  1.0000
  H   H4100     1.0  0.66222  0.33000  0.11387  1.0000
  H   H4101     1.0  0.72480  0.40667  0.37884  1.0000
  H   H4102     1.0  0.71840  0.53004  0.06292  1.0000
  C   C2316     1.0  0.74286  0.32963  0.07820  1.0000
  H   H4103     1.0  0.62424  0.60839  0.29548  1.0000
  H   H4104     1.0  0.74147  0.41986  0.42159  1.0000
  H   H4105     1.0  0.70619  0.53823  0.09195  1.0000
  H   H4106     1.0  0.65171  0.59536  0.08165  1.0000
  H   H4107     1.0  0.66606  0.36628  0.43078  1.0000
  C   C2317     1.0  0.57451  0.57790  0.23411  1.0000
  H   H4108     1.0  0.55119  0.59687  0.20541  1.0000
  C   C2318     1.0  0.56401  0.53773  0.23266  1.0000
  H   H4109     1.0  0.64514  0.54949  0.25594  1.0000
  H   H4110     1.0  0.72288  0.49439  0.23232  1.0000
  C   C2319     1.0  0.63313  0.57639  0.25362  1.0000
  C   C2320     1.0  0.69089  0.55763  0.14741  1.0000
  H   H4111     1.0  0.69211  0.58204  0.13031  1.0000
  N   N126      1.0  0.69965  0.62658  0.17312  1.0000
  H   H4112     1.0  0.68559  0.54590  0.14902  1.0000
  H   H4113     1.0  0.66778  0.52832  0.26239  1.0000
  H   H4114     1.0  0.68372  0.56434  0.15818  1.0000
  N   N127      1.0  0.71192  0.45883  0.34551  1.0000
  C   C2321     1.0  0.70242  0.47348  0.33368  1.0000
  C   C2322     1.0  0.70137  0.44474  0.35220  1.0000
  C   C2323     1.0  0.71440  0.46567  0.36016  1.0000
  C   C2324     1.0  0.72970  0.45131  0.33594  1.0000
  C   C2325     1.0  0.73046  0.44704  0.31820  1.0000
  C   C2326     1.0  0.71177  0.48893  0.32519  1.0000
  C   C2327     1.0  0.72124  0.45180  0.37522  1.0000
  C   C2328     1.0  0.68308  0.44966  0.36370  1.0000
  C   C2329     1.0  0.67490  0.43369  0.37179  1.0000
  C   C2330     1.0  0.73358  0.40323  0.38826  1.0000
  C   C2331     1.0  0.70159  0.50228  0.31257  1.0000
  C   C2332     1.0  0.72444  0.42367  0.12104  1.0000
  H   H4115     1.0  0.73924  0.32729  0.11591  1.0000
  C   C2333     1.0  0.73104  0.32494  0.07106  1.0000
  H   H4116     1.0  0.65322  0.63010  0.14533  1.0000
  H   H4117     1.0  0.69826  0.32390  0.43473  1.0000
  H   H4118     1.0  0.65095  0.62078  0.16816  1.0000
  H   H4119     1.0  0.73555  0.44165  0.01617  1.0000
  C   C2334     1.0  0.74293  0.64768  0.19873  1.0000
  S   S526      1.0  0.74005  0.50044  0.35681  1.0000
  H   H4120     1.0  0.74363  0.50530  0.23871  1.0000
  C   C2335     1.0  0.73994  0.64855  0.21626  1.0000
  H   H4121     1.0  0.72720  0.50851  0.18376  1.0000
  H   H4122     1.0  0.72952  0.53785  0.16653  1.0000
  C   C2336     1.0  0.74034  0.52669  0.16406  1.0000
  H   H4123     1.0  0.56301  0.33688  0.03429  1.0000
  H   H4124     1.0  0.73515  0.46758  0.38283  1.0000
  H   H4125     1.0  0.54241  0.37656  0.99463  1.0000
  H   H4126     1.0  0.72626  0.39820  0.40130  1.0000
  S   S527      1.0  0.73758  0.44105  0.07290  1.0000
  H   H4127     1.0  0.72652  0.54979  0.05495  1.0000
  H   H4128     1.0  0.73859  0.38349  0.09818  1.0000
  H   H4129     1.0  0.62766  0.63045  0.20764  1.0000
  H   H4130     1.0  0.65549  0.64852  0.34472  1.0000
  C   C2337     1.0  0.62963  0.64550  0.23393  1.0000
  C   C2338     1.0  0.72039  0.35043  0.27854  1.0000
  C   C2339     1.0  0.73981  0.63341  0.22906  1.0000
  H   H4131     1.0  0.71267  0.31905  0.29910  1.0000
  S   S528      1.0  0.53258  0.64179  0.18190  1.0000
  H   H4132     1.0  0.64555  0.64005  0.26033  1.0000
  C   C2340     1.0  0.74231  0.34712  0.07753  1.0000
  H   H4133     1.0  0.64953  0.64387  0.16069  1.0000
  C   C2341     1.0  0.67601  0.62849  0.15579  1.0000
  C   C2342     1.0  0.73030  0.37141  0.28900  1.0000
  H   H4134     1.0  0.50833  0.63512  0.28604  1.0000
  H   H4135     1.0  0.54052  0.35117  0.01654  1.0000
  H   H4136     1.0  0.54638  0.32809  0.01773  1.0000
  C   C2343     1.0  0.74435  0.41619  0.23204  1.0000
  H   H4137     1.0  0.59258  0.36836  0.99237  1.0000
  H   H4138     1.0  0.63727  0.32651  0.98934  1.0000
  H   H4139     1.0  0.74414  0.52496  0.29497  1.0000
  C   C2344     1.0  0.73857  0.36946  0.25775  1.0000
  H   H4140     1.0  0.74357  0.39183  0.00507  1.0000
  N   N128      1.0  0.68884  0.31812  0.11705  1.0000
  H   H4141     1.0  0.68954  0.64856  0.19663  1.0000
  H   H4142     1.0  0.70674  0.64468  0.13714  1.0000
  N   N129      1.0  0.74279  0.50517  0.21227  1.0000
  C   C2345     1.0  0.74219  0.51417  0.32221  1.0000
  H   H4143     1.0  0.74079  0.50128  0.28743  1.0000
  C   C2346     1.0  0.74360  0.45034  0.17164  1.0000
  H   H4144     1.0  0.74376  0.60552  0.23400  1.0000
  H   H4145     1.0  0.73771  0.41504  0.38888  1.0000
  C   C2347     1.0  0.53326  0.37831  0.98589  1.0000
  H   H4146     1.0  0.73877  0.36047  0.33499  1.0000
  H   H4147     1.0  0.62802  0.64938  0.19053  1.0000
  H   H4148     1.0  0.74418  0.47061  0.23327  1.0000
  H   H4149     1.0  0.73992  0.38315  0.25212  1.0000
  C   C2348     1.0  0.74281  0.47998  0.27553  1.0000
  S   S529      1.0  0.73977  0.34004  0.38709  1.0000
  H   H4150     1.0  0.62521  0.65071  0.31815  1.0000
  H   H4151     1.0  0.74085  0.36050  0.29315  1.0000
  C   C2349     1.0  0.71431  0.64700  0.14566  1.0000
  C   C2350     1.0  0.72605  0.41597  0.98099  1.0000
  N   N130      1.0  0.54128  0.34600  0.98291  1.0000
  S   S530      1.0  0.60167  0.33669  0.98116  1.0000
  C   C2351     1.0  0.56627  0.33868  0.93662  1.0000
  H   H4152     1.0  0.54635  0.36070  0.87033  1.0000
  S   S531      1.0  0.71193  0.33563  0.91427  1.0000
  H   H4153     1.0  0.51511  0.32492  0.67753  1.0000
  H   H4154     1.0  0.56106  0.35410  0.88545  1.0000
  C   C2352     1.0  0.73712  0.35301  0.94192  1.0000
  C   C2353     1.0  0.73363  0.34594  0.92936  1.0000
  S   S532      1.0  0.71582  0.33405  0.51649  1.0000
  H   H4155     1.0  0.50012  0.31863  0.52999  1.0000
  Fe  Fe262     1.0  0.74084  0.33769  0.49694  1.0000
  H   H4156     1.0  0.53990  0.38301  0.97244  1.0000
  H   H4157     1.0  0.66995  0.36895  0.51215  1.0000
  H   H4158     1.0  0.66121  0.32163  0.54691  1.0000
  H   H4159     1.0  0.68237  0.31978  0.93667  1.0000
  H   H4160     1.0  0.55933  0.32241  0.96134  1.0000
  H   H4161     1.0  0.51106  0.34092  0.97529  1.0000
  H   H4162     1.0  0.74396  0.34250  0.91866  1.0000
  C   C2354     1.0  0.55710  0.33290  0.87583  1.0000
  C   C2355     1.0  0.66366  0.34354  0.51677  1.0000
  H   H4163     1.0  0.50529  0.33244  0.73657  1.0000
  H   H4164     1.0  0.65290  0.36845  0.50163  1.0000
  Fe  Fe263     1.0  0.73514  0.31900  0.90000  1.0000
  C   C2356     1.0  0.70951  0.42745  0.97527  1.0000
  H   H4165     1.0  0.57015  0.35144  0.93099  1.0000
  C   C2357     1.0  0.71667  0.34391  0.93031  1.0000
  C   C2358     1.0  0.65672  0.33261  0.50789  1.0000
  H   H4166     1.0  0.56960  0.35473  0.86264  1.0000
  C   C2359     1.0  0.72391  0.35752  0.95588  1.0000
  C   C2360     1.0  0.70699  0.35519  0.95705  1.0000
  C   C2361     1.0  0.70334  0.34860  0.94417  1.0000
  H   H4167     1.0  0.73491  0.41175  0.96933  1.0000
  H   H4168     1.0  0.64452  0.33367  0.95595  1.0000
  H   H4169     1.0  0.69664  0.35882  0.96766  1.0000
  H   H4170     1.0  0.69017  0.34718  0.94494  1.0000
  H   H4171     1.0  0.71253  0.43936  0.96589  1.0000
  H   H4172     1.0  0.57713  0.32841  0.93193  1.0000
  H   H4173     1.0  0.51792  0.34437  0.68241  1.0000
  H   H4174     1.0  0.52822  0.32588  0.96468  1.0000
  H   H4175     1.0  0.52943  0.33606  0.88527  1.0000
  C   C2362     1.0  0.64656  0.33034  0.94305  1.0000
  H   H4176     1.0  0.62781  0.32301  0.50156  1.0000
  H   H4177     1.0  0.55446  0.33837  0.93211  1.0000
  H   H4178     1.0  0.69002  0.32180  0.54519  1.0000
  C   C2363     1.0  0.55855  0.35178  0.87348  1.0000
  C   C2364     1.0  0.54128  0.32848  0.89042  1.0000
  H   H4179     1.0  0.67561  0.35958  0.49317  1.0000
  H   H4180     1.0  0.69238  0.32383  0.49499  1.0000
  S   S533      1.0  0.72907  0.36611  0.97148  1.0000
  H   H4181     1.0  0.53745  0.35295  0.95641  1.0000
  C   C2365     1.0  0.49772  0.32233  0.74053  1.0000
  H   H4182     1.0  0.65421  0.34598  0.52886  1.0000
  C   C2366     1.0  0.52080  0.32869  0.97750  1.0000
  C   C2367     1.0  0.51096  0.33338  0.68726  1.0000
  C   C2368     1.0  0.56279  0.33532  0.95642  1.0000
  H   H4183     1.0  0.51479  0.32591  0.69963  1.0000
  H   H4184     1.0  0.66263  0.33510  0.49380  1.0000
  H   H4185     1.0  0.64258  0.33835  0.50866  1.0000
  H   H4186     1.0  0.55551  0.33112  0.86327  1.0000
  C   C2369     1.0  0.54828  0.34976  0.96361  1.0000
  H   H4187     1.0  0.70385  0.42024  0.96883  1.0000
  H   H4188     1.0  0.65322  0.33995  0.93301  1.0000
  H   H4189     1.0  0.67660  0.33717  0.51996  1.0000
  H   H4190     1.0  0.51267  0.33088  0.91617  1.0000
  H   H4191     1.0  0.63204  0.31961  0.56516  1.0000
  C   C2370     1.0  0.66558  0.36122  0.50514  1.0000
  H   H4192     1.0  0.55417  0.36149  0.95978  1.0000
  H   H4193     1.0  0.56970  0.32461  0.87835  1.0000
  H   H4194     1.0  0.63353  0.33121  0.94028  1.0000
  H   H4195     1.0  0.57518  0.33490  0.96026  1.0000
  H   H4196     1.0  0.51734  0.36441  0.97906  1.0000
  H   H4197     1.0  0.54116  0.33418  0.90158  1.0000
  C   C2371     1.0  0.71776  0.31807  0.53554  1.0000
  H   H4198     1.0  0.53377  0.31815  0.86287  1.0000
  H   H4199     1.0  0.63563  0.31808  0.53419  1.0000
  Fe  Fe264     1.0  0.56868  0.74455  0.26917  1.0000
  S   S534      1.0  0.58897  0.74258  0.28432  1.0000
  S   S535      1.0  0.56249  0.76821  0.24863  1.0000
  Fe  Fe265     1.0  0.55919  0.71055  0.28944  1.0000
  S   S536      1.0  0.57881  0.70522  0.30631  1.0000
  S   S537      1.0  0.54220  0.69207  0.29087  1.0000
  Fe  Fe266     1.0  0.56940  0.73339  0.30766  1.0000
  S   S538      1.0  0.56750  0.74255  0.33213  1.0000
  Fe  Fe267     1.0  0.59679  0.71473  0.28177  1.0000
  S   S539      1.0  0.62534  0.70392  0.27294  1.0000
  S   S540      1.0  0.54817  0.73796  0.29276  1.0000
  S   S541      1.0  0.57806  0.71743  0.26467  1.0000
  Fe  Fe268     1.0  0.53750  0.81290  0.14726  1.0000
  S   S542      1.0  0.54857  0.82202  0.11916  1.0000
  S   S543      1.0  0.51139  0.82595  0.16059  1.0000
  Fe  Fe269     1.0  0.56828  0.78336  0.15216  1.0000
  S   S544      1.0  0.58207  0.78999  0.12444  1.0000
  S   S545      1.0  0.57903  0.75962  0.17063  1.0000
  Fe  Fe270     1.0  0.57416  0.81779  0.12804  1.0000
  S   S546      1.0  0.58971  0.83947  0.12155  1.0000
  Fe  Fe271     1.0  0.55534  0.79357  0.11821  1.0000
  S   S547      1.0  0.55099  0.77880  0.09970  1.0000
  S   S548      1.0  0.56231  0.81069  0.15610  1.0000
  S   S549      1.0  0.54240  0.78499  0.14583  1.0000
  C   C2372     1.0  0.64602  0.97136  0.17681  1.0000
  S   S550      1.0  0.72809  0.87299  0.27974  1.0000
  H   H4200     1.0  0.55574  0.70120  0.20967  1.0000
  H   H4201     1.0  0.67523  0.65888  0.28729  1.0000
  S   S551      1.0  0.71813  0.90216  0.31555  1.0000
  H   H4202     1.0  0.65293  0.68307  0.35516  1.0000
  Fe  Fe272     1.0  0.68022  0.89786  0.13933  1.0000
  S   S552      1.0  0.69248  0.86943  0.14446  1.0000
  S   S553      1.0  0.68763  0.91607  0.11390  1.0000
  Fe  Fe273     1.0  0.65526  0.89445  0.17379  1.0000
  S   S554      1.0  0.66566  0.86613  0.18190  1.0000
  S   S555      1.0  0.63200  0.90780  0.19044  1.0000
  Fe  Fe274     1.0  0.69188  0.87352  0.17102  1.0000
  S   S556      1.0  0.71468  0.86127  0.18456  1.0000
  Fe  Fe275     1.0  0.66493  0.86472  0.15483  1.0000
  S   S557      1.0  0.65564  0.84201  0.15036  1.0000
  S   S558      1.0  0.68143  0.90222  0.16497  1.0000
  S   S559      1.0  0.65281  0.89280  0.14749  1.0000
  H   H4203     1.0  0.66447  0.97001  0.14570  1.0000
  C   C2373     1.0  0.71753  0.66550  0.13922  1.0000
  Fe  Fe276     1.0  0.51815  0.91921  0.21696  1.0000
  H   H4204     1.0  0.62954  0.65345  0.27332  1.0000
  N   N131      1.0  0.62790  0.91119  0.31399  1.0000
  C   C2374     1.0  0.58039  0.74266  0.13210  1.0000
  H   H4205     1.0  0.49647  0.75242  0.29664  1.0000
  H   H4206     1.0  0.70431  0.92375  0.34135  1.0000
  H   H4207     1.0  0.54805  0.88099  0.18390  1.0000
  H   H4208     1.0  0.62682  0.73966  0.28925  1.0000
  C   C2375     1.0  0.66117  0.66299  0.29034  1.0000
  Fe  Fe277     1.0  0.50536  0.69057  0.21454  1.0000
  H   H4209     1.0  0.62427  0.67292  0.36042  1.0000
  H   H4210     1.0  0.70218  0.92918  0.13716  1.0000
  H   H4211     1.0  0.64362  0.72032  0.29084  1.0000
  H   H4212     1.0  0.62853  0.68091  0.23053  1.0000
  S   S560      1.0  0.65745  0.95320  0.22716  1.0000
  C   C2376     1.0  0.65026  0.67571  0.34666  1.0000
  S   S561      1.0  0.53540  0.85607  0.21262  1.0000
  C   C2377     1.0  0.56622  0.89363  0.23190  1.0000
  H   H4213     1.0  0.51938  0.72977  0.11204  1.0000
  N   N132      1.0  0.62117  0.69740  0.34193  1.0000
  H   H4214     1.0  0.74239  0.65949  0.18894  1.0000
  S   S562      1.0  0.56916  0.96540  0.25918  1.0000
  C   C2378     1.0  0.56148  0.95667  0.24515  1.0000
  H   H4215     1.0  0.52697  0.78161  0.36792  1.0000
  C   C2379     1.0  0.55953  0.87869  0.17332  1.0000
  C   C2380     1.0  0.52115  0.75093  0.02785  1.0000
  C   C2381     1.0  0.57140  0.79182  0.31999  1.0000
  C   C2382     1.0  0.51324  0.77144  0.35444  1.0000
  H   H4216     1.0  0.51848  0.80009  0.03290  1.0000
  H   H4217     1.0  0.52737  0.77425  0.28531  1.0000
  H   H4218     1.0  0.60999  0.65686  0.21780  1.0000
  H   H4219     1.0  0.65765  0.67962  0.33330  1.0000
  H   H4220     1.0  0.57376  0.92739  0.16420  1.0000
  H   H4221     1.0  0.72571  0.66813  0.14706  1.0000
  C   C2383     1.0  0.61051  0.87013  0.34282  1.0000
  H   H4222     1.0  0.53067  0.73012  0.23625  1.0000
  H   H4223     1.0  0.58631  0.93741  0.34684  1.0000
  C   C2384     1.0  0.63872  0.91858  0.20288  1.0000
  C   C2385     1.0  0.62664  0.93139  0.21069  1.0000
  C   C2386     1.0  0.63231  0.94144  0.21902  1.0000
  C   C2387     1.0  0.65007  0.93886  0.21925  1.0000
  C   C2388     1.0  0.66198  0.92537  0.21238  1.0000
  C   C2389     1.0  0.65625  0.91511  0.20430  1.0000
  H   H4224     1.0  0.61299  0.93385  0.20993  1.0000
  H   H4225     1.0  0.62296  0.95148  0.22478  1.0000
  H   H4226     1.0  0.67562  0.92295  0.21309  1.0000
  H   H4227     1.0  0.66542  0.90457  0.19915  1.0000
  C   C2390     1.0  0.72919  0.88867  0.22037  1.0000
  H   H4228     1.0  0.59631  0.67557  0.36156  1.0000
  C   C2391     1.0  0.73164  0.86286  0.20930  1.0000
  C   C2392     1.0  0.71952  0.87189  0.19877  1.0000
  C   C2393     1.0  0.71205  0.88931  0.19929  1.0000
  C   C2394     1.0  0.71708  0.89772  0.20986  1.0000
  H   H4229     1.0  0.59370  0.68878  0.14991  1.0000
  H   H4230     1.0  0.50768  0.80617  0.12519  1.0000
  H   H4231     1.0  0.70261  0.89634  0.19138  1.0000
  H   H4232     1.0  0.71155  0.91127  0.20990  1.0000
  C   C2395     1.0  0.71998  0.92337  0.31567  1.0000
  C   C2396     1.0  0.63342  0.98209  0.31228  1.0000
  H   H4233     1.0  0.51735  0.69561  0.14738  1.0000
  C   C2397     1.0  0.72407  0.95676  0.31630  1.0000
  C   C2398     1.0  0.71402  0.94754  0.33058  1.0000
  C   C2399     1.0  0.71188  0.93092  0.33020  1.0000
  H   H4234     1.0  0.59849  0.65137  0.25199  1.0000
  C   C2400     1.0  0.58222  0.72441  0.14334  1.0000
  H   H4235     1.0  0.70824  0.95301  0.34205  1.0000
  C   C2401     1.0  0.54988  0.81235  0.30223  1.0000
  C   C2402     1.0  0.60678  0.83983  0.13167  1.0000
  C   C2403     1.0  0.61863  0.82470  0.13684  1.0000
  C   C2404     1.0  0.63326  0.82564  0.14287  1.0000
  C   C2405     1.0  0.63611  0.84163  0.14409  1.0000
  C   C2406     1.0  0.62389  0.85671  0.13958  1.0000
  C   C2407     1.0  0.60946  0.85583  0.13315  1.0000
  H   H4236     1.0  0.61693  0.81238  0.13545  1.0000
  H   H4237     1.0  0.64274  0.81395  0.14606  1.0000
  H   H4238     1.0  0.62575  0.86907  0.14068  1.0000
  H   H4239     1.0  0.60042  0.86762  0.12912  1.0000
  C   C2408     1.0  0.51571  0.83338  0.17720  1.0000
  H   H4240     1.0  0.49818  0.85812  0.17284  1.0000
  H   H4241     1.0  0.59454  0.71647  0.13739  1.0000
  C   C2409     1.0  0.52711  0.84713  0.19972  1.0000
  C   C2410     1.0  0.53414  0.83004  0.19769  1.0000
  C   C2411     1.0  0.52828  0.82311  0.18659  1.0000
  H   H4242     1.0  0.62903  0.66686  0.21090  1.0000
  H   H4243     1.0  0.51049  0.86049  0.08877  1.0000
  H   H4244     1.0  0.54432  0.82227  0.20446  1.0000
  H   H4245     1.0  0.53374  0.80991  0.18501  1.0000
  C   C2412     1.0  0.53097  0.78151  0.09298  1.0000
  C   C2413     1.0  0.52060  0.79791  0.08850  1.0000
  H   H4246     1.0  0.50129  0.79395  0.01597  1.0000
  H   H4247     1.0  0.67389  0.96389  0.19089  1.0000
  C   C2414     1.0  0.51086  0.76860  0.08443  1.0000
  C   C2415     1.0  0.52613  0.76692  0.09067  1.0000
  H   H4248     1.0  0.52441  0.80930  0.08979  1.0000
  C   C2416     1.0  0.57033  0.89303  0.16986  1.0000
  H   H4249     1.0  0.63755  0.69531  0.31661  1.0000
  H   H4250     1.0  0.53431  0.75424  0.09362  1.0000
  C   C2417     1.0  0.63494  0.68443  0.28526  1.0000
  C   C2418     1.0  0.65309  0.67876  0.28122  1.0000
  H   H4251     1.0  0.70491  0.93437  0.08274  1.0000
  C   C2419     1.0  0.62489  0.67439  0.29871  1.0000
  H   H4252     1.0  0.66098  0.68656  0.27100  1.0000
  H   H4253     1.0  0.59855  0.87204  0.33757  1.0000
  H   H4254     1.0  0.61086  0.67856  0.30178  1.0000
  C   C2420     1.0  0.56646  0.76522  0.22720  1.0000
  C   C2421     1.0  0.56145  0.77935  0.21430  1.0000
  C   C2422     1.0  0.56477  0.77752  0.19705  1.0000
  C   C2423     1.0  0.57361  0.76172  0.19242  1.0000
  C   C2424     1.0  0.57895  0.74765  0.20523  1.0000
  C   C2425     1.0  0.57519  0.74933  0.22261  1.0000
  H   H4255     1.0  0.55513  0.79182  0.21759  1.0000
  H   H4256     1.0  0.56062  0.78843  0.18736  1.0000
  H   H4257     1.0  0.58620  0.73551  0.20170  1.0000
  H   H4258     1.0  0.57951  0.73847  0.23230  1.0000
  C   C2426     1.0  0.53501  0.69726  0.27127  1.0000
  H   H4259     1.0  0.55675  0.82326  0.30009  1.0000
  H   H4260     1.0  0.63831  0.89337  0.28536  1.0000
  C   C2427     1.0  0.53014  0.71753  0.24461  1.0000
  C   C2428     1.0  0.53567  0.71353  0.26041  1.0000
  H   H4261     1.0  0.54537  0.76807  0.02258  1.0000
  H   H4262     1.0  0.54028  0.72312  0.26424  1.0000
  C   C2429     1.0  0.54644  0.75276  0.34134  1.0000
  C   C2430     1.0  0.54467  0.76346  0.35301  1.0000
  C   C2431     1.0  0.55253  0.80173  0.32047  1.0000
  C   C2432     1.0  0.53148  0.75065  0.33701  1.0000
  H   H4263     1.0  0.55613  0.76486  0.35673  1.0000
  H   H4264     1.0  0.53264  0.74188  0.32858  1.0000
  C   C2433     1.0  0.60494  0.66174  0.25271  1.0000
  C   C2434     1.0  0.72023  0.94903  0.08931  1.0000
  C   C2435     1.0  0.70867  0.93766  0.09319  1.0000
  C   C2436     1.0  0.70216  0.93033  0.11038  1.0000
  C   C2437     1.0  0.70713  0.93479  0.12383  1.0000
  H   H4265     1.0  0.52783  0.93735  0.24630  1.0000
  H   H4266     1.0  0.61729  0.73427  0.34353  1.0000
  H   H4267     1.0  0.68062  0.92868  0.31162  1.0000
  C   C2438     1.0  0.65993  0.68552  0.23090  1.0000
  Fe  Fe278     1.0  0.51846  0.88197  0.21566  1.0000
  C   C2439     1.0  0.58160  0.66651  0.15843  1.0000
  H   H4268     1.0  0.60101  0.66325  0.26651  1.0000
  H   H4269     1.0  0.59981  0.93530  0.18158  1.0000
  H   H4270     1.0  0.53702  0.78789  0.00932  1.0000
  N   N133      1.0  0.62463  0.65631  0.24768  1.0000
  H   H4271     1.0  0.52101  0.78009  0.04817  1.0000
  H   H4272     1.0  0.72236  0.95007  0.13022  1.0000
  H   H4273     1.0  0.64159  0.73624  0.30371  1.0000
  C   C2440     1.0  0.54713  0.94392  0.22346  1.0000
  H   H4274     1.0  0.68538  0.95019  0.15675  1.0000
  H   H4275     1.0  0.69312  0.65485  0.16627  1.0000
  C   C2441     1.0  0.59390  0.87339  0.18320  1.0000
  H   H4276     1.0  0.57451  0.78184  0.31190  1.0000
  H   H4277     1.0  0.60054  0.68060  0.22826  1.0000
  C   C2442     1.0  0.56633  0.71633  0.14447  1.0000
  H   H4278     1.0  0.51495  0.76555  0.30586  1.0000
  C   C2443     1.0  0.50488  0.85021  0.09885  1.0000
  H   H4279     1.0  0.59057  0.91790  0.32611  1.0000
  C   C2444     1.0  0.53093  0.83584  0.28594  1.0000
  H   H4280     1.0  0.49638  0.70260  0.32581  1.0000
  H   H4281     1.0  0.73745  0.84938  0.20899  1.0000
  H   H4282     1.0  0.55264  0.85142  0.24395  1.0000
  H   H4283     1.0  0.54442  0.86913  0.16050  1.0000
  C   C2445     1.0  0.54875  0.69395  0.15737  1.0000
  H   H4284     1.0  0.51617  0.72740  0.07062  1.0000
  N   N134      1.0  0.56591  0.69882  0.15635  1.0000
  S   S563      1.0  0.74040  0.96761  0.09619  1.0000
  H   H4285     1.0  0.50857  0.74533  0.15853  1.0000
  H   H4286     1.0  0.59551  0.93540  0.30826  1.0000
  C   C2446     1.0  0.59613  0.67923  0.24245  1.0000
  H   H4287     1.0  0.51025  0.75347  0.12692  1.0000
  C   C2447     1.0  0.54581  0.69113  0.14018  1.0000
  H   H4288     1.0  0.50211  0.90793  0.16343  1.0000
  H   H4289     1.0  0.56708  0.86546  0.17719  1.0000
  C   C2448     1.0  0.56737  0.69913  0.17441  1.0000
  H   H4290     1.0  0.50867  0.72407  0.05289  1.0000
  H   H4291     1.0  0.49523  0.84494  0.33675  1.0000
  C   C2449     1.0  0.52310  0.76923  0.99885  1.0000
  H   H4292     1.0  0.54543  0.70329  0.13022  1.0000
  H   H4293     1.0  0.60999  0.65832  0.15154  1.0000
  H   H4294     1.0  0.62883  0.67076  0.33844  1.0000
  H   H4295     1.0  0.56829  0.95203  0.20329  1.0000
  H   H4296     1.0  0.70320  0.92583  0.17345  1.0000
  H   H4297     1.0  0.49884  0.75611  0.23376  1.0000
  H   H4298     1.0  0.61215  0.87711  0.19792  1.0000
  H   H4299     1.0  0.60607  0.89638  0.34582  1.0000
  H   H4300     1.0  0.57958  0.74244  0.11872  1.0000
  H   H4301     1.0  0.68552  0.97544  0.11766  1.0000
  H   H4302     1.0  0.72463  0.66712  0.12549  1.0000
  C   C2450     1.0  0.56221  0.95117  0.21685  1.0000
  C   C2451     1.0  0.52028  0.79043  0.24557  1.0000
  C   C2452     1.0  0.69891  0.97910  0.23444  1.0000
  H   H4303     1.0  0.62071  0.73203  0.37358  1.0000
  H   H4304     1.0  0.65868  0.66053  0.22774  1.0000
  H   H4305     1.0  0.57118  0.68029  0.26077  1.0000
  C   C2453     1.0  0.52604  0.80707  0.24524  1.0000
  C   C2454     1.0  0.69413  0.96096  0.24224  1.0000
  H   H4306     1.0  0.61251  0.73030  0.31983  1.0000
  H   H4307     1.0  0.51766  0.76157  0.23679  1.0000
  H   H4308     1.0  0.50570  0.75563  0.05337  1.0000
  S   S564      1.0  0.62797  0.96843  0.30159  1.0000
  C   C2455     1.0  0.51882  0.72896  0.05628  1.0000
  H   H4309     1.0  0.55953  0.88246  0.23646  1.0000
  C   C2456     1.0  0.58113  0.92416  0.17480  1.0000
  H   H4310     1.0  0.52858  0.78489  0.23445  1.0000
  H   H4311     1.0  0.52260  0.78131  0.25768  1.0000
  H   H4312     1.0  0.55249  0.77963  0.04496  1.0000
  C   C2457     1.0  0.73630  0.87114  0.22024  1.0000
  H   H4313     1.0  0.59191  0.74815  0.13141  1.0000
  C   C2458     1.0  0.62441  0.65449  0.21630  1.0000
  C   C2459     1.0  0.72949  0.93286  0.30132  1.0000
  C   C2460     1.0  0.58608  0.94274  0.33289  1.0000
  C   C2461     1.0  0.56947  0.95735  0.22766  1.0000
  C   C2462     1.0  0.64156  0.90639  0.28265  1.0000
  H   H4314     1.0  0.52343  0.81702  0.23355  1.0000
  H   H4315     1.0  0.51898  0.81239  0.25692  1.0000
  H   H4316     1.0  0.54028  0.80426  0.24506  1.0000
  H   H4317     1.0  0.72942  0.89663  0.16149  1.0000
  H   H4318     1.0  0.56055  0.90544  0.16953  1.0000
  C   C2463     1.0  0.52387  0.70532  0.23968  1.0000
  H   H4319     1.0  0.53896  0.79930  0.05093  1.0000
  C   C2464     1.0  0.52816  0.77291  0.35938  1.0000
  H   H4320     1.0  0.68987  0.96077  0.30618  1.0000
  C   C2465     1.0  0.53316  0.77787  0.02092  1.0000
  H   H4321     1.0  0.60291  0.93590  0.15862  1.0000
  C   C2466     1.0  0.52307  0.76414  0.20309  1.0000
  N   N135      1.0  0.67089  0.87158  0.09444  1.0000
  C   C2467     1.0  0.67466  0.85225  0.10139  1.0000
  C   C2468     1.0  0.68448  0.87986  0.09743  1.0000
  C   C2469     1.0  0.65329  0.87893  0.10462  1.0000
  C   C2470     1.0  0.66973  0.87591  0.07555  1.0000
  C   C2471     1.0  0.68571  0.86797  0.06284  1.0000
  C   C2472     1.0  0.66157  0.84200  0.09958  1.0000
  C   C2473     1.0  0.64794  0.89906  0.10163  1.0000
  C   C2474     1.0  0.70356  0.86924  0.09595  1.0000
  C   C2475     1.0  0.71638  0.88028  0.09593  1.0000
  C   C2476     1.0  0.68156  0.87092  0.04486  1.0000
  C   C2477     1.0  0.66736  0.82256  0.10625  1.0000
  C   C2478     1.0  0.62908  0.90482  0.11087  1.0000
  H   H4322     1.0  0.67518  0.84971  0.11540  1.0000
  H   H4323     1.0  0.68777  0.84599  0.09513  1.0000
  H   H4324     1.0  0.68465  0.89282  0.08866  1.0000
  H   H4325     1.0  0.68089  0.88253  0.11079  1.0000
  H   H4326     1.0  0.65285  0.87410  0.11879  1.0000
  H   H4327     1.0  0.64264  0.87436  0.10170  1.0000
  H   H4328     1.0  0.65788  0.87228  0.07394  1.0000
  H   H4329     1.0  0.66786  0.89014  0.07058  1.0000
  H   H4330     1.0  0.68985  0.85380  0.06722  1.0000
  H   H4331     1.0  0.69676  0.87445  0.06126  1.0000
  H   H4332     1.0  0.64834  0.84608  0.10724  1.0000
  H   H4333     1.0  0.66061  0.84387  0.08584  1.0000
  H   H4334     1.0  0.64871  0.90505  0.08771  1.0000
  H   H4335     1.0  0.65653  0.90450  0.10669  1.0000
  H   H4336     1.0  0.70437  0.85825  0.10726  1.0000
  H   H4337     1.0  0.70817  0.86375  0.08410  1.0000
  H   H4338     1.0  0.58097  0.69965  0.17467  1.0000
  H   H4339     1.0  0.51204  0.74445  0.02472  1.0000
  H   H4340     1.0  0.50560  0.74241  0.26104  1.0000
  H   H4341     1.0  0.69336  0.86553  0.03586  1.0000
  H   H4342     1.0  0.67087  0.86429  0.04544  1.0000
  H   H4343     1.0  0.67762  0.88501  0.03959  1.0000
  H   H4344     1.0  0.66888  0.81999  0.11993  1.0000
  H   H4345     1.0  0.65732  0.81562  0.10570  1.0000
  H   H4346     1.0  0.67999  0.81738  0.09816  1.0000
  H   H4347     1.0  0.62579  0.91919  0.10897  1.0000
  H   H4348     1.0  0.61984  0.90054  0.10553  1.0000
  H   H4349     1.0  0.62737  0.89938  0.12500  1.0000
  H   H4350     1.0  0.58618  0.90286  0.21151  1.0000
  H   H4351     1.0  0.63138  0.93117  0.29085  1.0000
  H   H4352     1.0  0.62063  0.87830  0.17518  1.0000
  H   H4353     1.0  0.57181  0.92604  0.18705  1.0000
  H   H4354     1.0  0.56309  0.88087  0.20495  1.0000
  H   H4355     1.0  0.57855  0.89369  0.15653  1.0000
  H   H4356     1.0  0.61544  0.91936  0.29180  1.0000
  H   H4357     1.0  0.58503  0.95064  0.16906  1.0000
  C   C2479     1.0  0.72977  0.96609  0.19069  1.0000
  H   H4358     1.0  0.73488  0.90500  0.13854  1.0000
  H   H4359     1.0  0.58758  0.86329  0.19295  1.0000
  H   H4360     1.0  0.73326  0.93276  0.18878  1.0000
  C   C2480     1.0  0.63423  0.72971  0.29830  1.0000
  C   C2481     1.0  0.50884  0.77613  0.21344  1.0000
  H   H4361     1.0  0.55627  0.72697  0.17484  1.0000
  H   H4362     1.0  0.53439  0.74325  0.02376  1.0000
  H   H4363     1.0  0.51453  0.88737  0.15867  1.0000
  C   C2482     1.0  0.50592  0.89959  0.15362  1.0000
  S   S565      1.0  0.50823  0.68856  0.18694  1.0000
  C   C2483     1.0  0.62115  0.89453  0.31934  1.0000
  H   H4364     1.0  0.72991  0.87249  0.09423  1.0000
  H   H4365     1.0  0.58886  0.69679  0.36702  1.0000
  N   N136      1.0  0.58168  0.89097  0.18274  1.0000
  C   C2484     1.0  0.49941  0.85546  0.11651  1.0000
  Fe  Fe279     1.0  0.61983  0.97848  0.27577  1.0000
  H   H4366     1.0  0.64542  0.96052  0.32992  1.0000
  H   H4367     1.0  0.61388  0.84527  0.20217  1.0000
  H   H4368     1.0  0.50724  0.77555  0.14199  1.0000
  C   C2485     1.0  0.71854  0.94662  0.11991  1.0000
  H   H4369     1.0  0.71026  0.94593  0.17039  1.0000
  H   H4370     1.0  0.59934  0.69015  0.24614  1.0000
  H   H4371     1.0  0.52913  0.75183  0.05141  1.0000
  C   C2486     1.0  0.57922  0.89193  0.21489  1.0000
  H   H4372     1.0  0.60013  0.72474  0.38197  1.0000
  C   C2487     1.0  0.65569  0.92295  0.31181  1.0000
  Fe  Fe280     1.0  0.59439  0.97533  0.25441  1.0000
  H   H4373     1.0  0.61672  0.92109  0.33768  1.0000
  C   C2488     1.0  0.67412  0.91736  0.31557  1.0000
  H   H4374     1.0  0.55004  0.72458  0.20595  1.0000
  C   C2489     1.0  0.69023  0.96979  0.27849  1.0000
  C   C2490     1.0  0.64587  0.90760  0.31813  1.0000
  H   H4375     1.0  0.51342  0.78838  0.21155  1.0000
  C   C2491     1.0  0.56998  0.89198  0.20031  1.0000
  H   H4376     1.0  0.62087  0.93709  0.31908  1.0000
  C   C2492     1.0  0.53944  0.94285  0.24104  1.0000
  N   N137      1.0  0.51966  0.76946  0.01795  1.0000
  H   H4377     1.0  0.60931  0.89600  0.31397  1.0000
  C   C2493     1.0  0.51376  0.85709  0.19114  1.0000
  H   H4378     1.0  0.60095  0.90418  0.18502  1.0000
  H   H4379     1.0  0.55637  0.90588  0.23025  1.0000
  C   C2494     1.0  0.68284  0.94894  0.17099  1.0000
  H   H4380     1.0  0.51681  0.75568  0.26731  1.0000
  H   H4381     1.0  0.68206  0.90725  0.30821  1.0000
  C   C2495     1.0  0.61008  0.72568  0.35427  1.0000
  C   C2496     1.0  0.54648  0.94935  0.25175  1.0000
  H   H4382     1.0  0.65517  0.90479  0.28421  1.0000
  H   H4383     1.0  0.72532  0.95431  0.07590  1.0000
  C   C2497     1.0  0.61612  0.92477  0.32367  1.0000
  S   S566      1.0  0.53802  0.93700  0.20918  1.0000
  S   S567      1.0  0.61720  0.95716  0.26430  1.0000
  H   H4384     1.0  0.58110  0.96279  0.22241  1.0000
  N   N138      1.0  0.53126  0.81927  0.29955  1.0000
  C   C2498     1.0  0.63302  0.65860  0.30793  1.0000
  H   H4385     1.0  0.65869  0.66194  0.24955  1.0000
  C   C2499     1.0  0.73129  0.94952  0.30151  1.0000
  H   H4386     1.0  0.51896  0.81196  0.32669  1.0000
  C   C2500     1.0  0.52511  0.80664  0.29281  1.0000
  C   C2501     1.0  0.52300  0.78918  0.30521  1.0000
  C   C2502     1.0  0.54475  0.83494  0.26880  1.0000
  C   C2503     1.0  0.51707  0.77772  0.29649  1.0000
  C   C2504     1.0  0.54237  0.85216  0.25590  1.0000
  H   H4387     1.0  0.55745  0.80443  0.29239  1.0000
  C   C2505     1.0  0.61240  0.87155  0.18675  1.0000
  C   C2506     1.0  0.55477  0.71400  0.18281  1.0000
  H   H4388     1.0  0.53447  0.80321  0.28101  1.0000
  H   H4389     1.0  0.58852  0.87947  0.21754  1.0000
  H   H4390     1.0  0.53570  0.78187  0.30846  1.0000
  H   H4391     1.0  0.54359  0.82485  0.26243  1.0000
  H   H4392     1.0  0.55826  0.83211  0.27110  1.0000
  H   H4393     1.0  0.54393  0.79224  0.32590  1.0000
  H   H4394     1.0  0.57311  0.78508  0.33331  1.0000
  H   H4395     1.0  0.63470  0.85131  0.19256  1.0000
  H   H4396     1.0  0.60735  0.86522  0.35705  1.0000
  H   H4397     1.0  0.57324  0.89385  0.24195  1.0000
  H   H4398     1.0  0.52942  0.85502  0.25222  1.0000
  H   H4399     1.0  0.54336  0.86291  0.26153  1.0000
  H   H4400     1.0  0.64278  0.70963  0.32694  1.0000
  N   N139      1.0  0.70337  0.94938  0.25637  1.0000
  C   C2507     1.0  0.72153  0.95237  0.25468  1.0000
  C   C2508     1.0  0.69286  0.95174  0.27410  1.0000
  C   C2509     1.0  0.70509  0.93068  0.25540  1.0000
  C   C2510     1.0  0.50483  0.76733  0.23290  1.0000
  H   H4401     1.0  0.59682  0.72688  0.35198  1.0000
  C   C2511     1.0  0.57289  0.69026  0.35318  1.0000
  C   C2512     1.0  0.68781  0.92386  0.26007  1.0000
  H   H4402     1.0  0.56849  0.75132  0.13781  1.0000
  C   C2513     1.0  0.54204  0.76116  0.99055  1.0000
  C   C2514     1.0  0.62851  0.91789  0.29483  1.0000
  H   H4403     1.0  0.73711  0.66101  0.21996  1.0000
  C   C2515     1.0  0.69051  0.90691  0.25393  1.0000
  H   H4404     1.0  0.72668  0.94535  0.26651  1.0000
  H   H4405     1.0  0.72141  0.96617  0.25405  1.0000
  H   H4406     1.0  0.67941  0.94948  0.27588  1.0000
  H   H4407     1.0  0.69896  0.94184  0.28428  1.0000
  H   H4408     1.0  0.71380  0.92184  0.26406  1.0000
  H   H4409     1.0  0.71146  0.92869  0.24204  1.0000
  H   H4410     1.0  0.69656  0.95454  0.23101  1.0000
  H   H4411     1.0  0.50470  0.78441  0.29203  1.0000
  H   H4412     1.0  0.64779  0.95884  0.17272  1.0000
  H   H4413     1.0  0.50384  0.73378  0.19263  1.0000
  C   C2516     1.0  0.51933  0.82363  0.31610  1.0000
  C   C2517     1.0  0.50152  0.78014  0.02261  1.0000
  H   H4414     1.0  0.67743  0.93342  0.25411  1.0000
  H   H4415     1.0  0.68321  0.92118  0.27436  1.0000
  C   C2518     1.0  0.50581  0.72767  0.11453  1.0000
  H   H4416     1.0  0.73204  0.97645  0.19606  1.0000
  H   H4417     1.0  0.51891  0.75185  0.20406  1.0000
  H   H4418     1.0  0.56658  0.70391  0.34852  1.0000
  H   H4419     1.0  0.53267  0.84649  0.29134  1.0000
  H   H4420     1.0  0.51447  0.76174  0.99636  1.0000
  C   C2519     1.0  0.57623  0.68135  0.24660  1.0000
  H   H4421     1.0  0.59644  0.86925  0.17055  1.0000
  H   H4422     1.0  0.73012  0.95037  0.22716  1.0000
  H   H4423     1.0  0.62091  0.86021  0.33694  1.0000
  H   H4424     1.0  0.52895  0.67222  0.27438  1.0000
  H   H4425     1.0  0.69320  0.90934  0.23956  1.0000
  H   H4426     1.0  0.70157  0.89726  0.25872  1.0000
  H   H4427     1.0  0.67862  0.90128  0.25884  1.0000
  N   N140      1.0  0.61755  0.78441  0.19092  1.0000
  C   C2520     1.0  0.61148  0.77719  0.20992  1.0000
  C   C2521     1.0  0.60379  0.79953  0.18450  1.0000
  C   C2522     1.0  0.61980  0.77023  0.18105  1.0000
  C   C2523     1.0  0.63505  0.78953  0.18742  1.0000
  C   C2524     1.0  0.63587  0.80409  0.19607  1.0000
  C   C2525     1.0  0.62340  0.76061  0.21814  1.0000
  C   C2526     1.0  0.62155  0.77599  0.16103  1.0000
  C   C2527     1.0  0.59309  0.81153  0.19731  1.0000
  C   C2528     1.0  0.58258  0.82801  0.18797  1.0000
  C   C2529     1.0  0.65464  0.80664  0.19308  1.0000
  C   C2530     1.0  0.61592  0.75492  0.23744  1.0000
  C   C2531     1.0  0.62678  0.76032  0.15231  1.0000
  H   H4428     1.0  0.59836  0.77410  0.21194  1.0000
  H   H4429     1.0  0.60959  0.78695  0.21795  1.0000
  H   H4430     1.0  0.60977  0.80769  0.17237  1.0000
  H   H4431     1.0  0.59363  0.79472  0.18096  1.0000
  H   H4432     1.0  0.60853  0.76353  0.18586  1.0000
  H   H4433     1.0  0.63156  0.76005  0.18341  1.0000
  H   H4434     1.0  0.64532  0.77807  0.19097  1.0000
  H   H4435     1.0  0.63952  0.79418  0.17333  1.0000
  H   H4436     1.0  0.63083  0.80129  0.21026  1.0000
  H   H4437     1.0  0.62824  0.81647  0.19008  1.0000
  H   H4438     1.0  0.62450  0.74962  0.21187  1.0000
  H   H4439     1.0  0.63667  0.76291  0.21701  1.0000
  H   H4440     1.0  0.63152  0.78412  0.15514  1.0000
  H   H4441     1.0  0.60889  0.78357  0.15769  1.0000
  H   H4442     1.0  0.58366  0.80468  0.20745  1.0000
  H   H4443     1.0  0.60135  0.81547  0.20402  1.0000
  H   H4444     1.0  0.57458  0.83604  0.19750  1.0000
  H   H4445     1.0  0.59145  0.83573  0.17807  1.0000
  H   H4446     1.0  0.57356  0.82475  0.18152  1.0000
  H   H4447     1.0  0.66031  0.80964  0.17898  1.0000
  H   H4448     1.0  0.65474  0.81770  0.19875  1.0000
  H   H4449     1.0  0.66295  0.79482  0.19934  1.0000
  H   H4450     1.0  0.60275  0.75200  0.23936  1.0000
  H   H4451     1.0  0.62458  0.74299  0.24304  1.0000
  H   H4452     1.0  0.61491  0.76522  0.24461  1.0000
  H   H4453     1.0  0.62698  0.76480  0.13820  1.0000
  H   H4454     1.0  0.64000  0.75292  0.15410  1.0000
  H   H4455     1.0  0.61722  0.75163  0.15779  1.0000
  H   H4456     1.0  0.65441  0.89622  0.31294  1.0000
  H   H4457     1.0  0.53765  0.70423  0.16170  1.0000
  C   C2532     1.0  0.62139  0.85248  0.19038  1.0000
  H   H4458     1.0  0.57223  0.67131  0.24221  1.0000
  H   H4459     1.0  0.54708  0.68203  0.16749  1.0000
  H   H4460     1.0  0.54508  0.89190  0.15279  1.0000
  C   C2533     1.0  0.59669  0.92946  0.32189  1.0000
  C   C2534     1.0  0.54345  0.79178  0.04040  1.0000
  H   H4461     1.0  0.57233  0.71397  0.19934  1.0000
  H   H4462     1.0  0.52583  0.77065  0.18923  1.0000
  H   H4463     1.0  0.70495  0.67506  0.14002  1.0000
  C   C2535     1.0  0.72522  0.95364  0.10253  1.0000
  H   H4464     1.0  0.62858  0.67978  0.25242  1.0000
  C   C2536     1.0  0.55285  0.87889  0.15728  1.0000
  H   H4465     1.0  0.65581  0.69237  0.21849  1.0000
  C   C2537     1.0  0.62877  0.98261  0.17177  1.0000
  H   H4466     1.0  0.62735  0.91721  0.26139  1.0000
  H   H4467     1.0  0.53536  0.76096  0.20807  1.0000
  C   C2538     1.0  0.63157  0.70529  0.32478  1.0000
  H   H4468     1.0  0.51316  0.90656  0.14148  1.0000
  C   C2539     1.0  0.51490  0.75980  0.34374  1.0000
  H   H4469     1.0  0.62831  0.88472  0.34504  1.0000
  H   H4470     1.0  0.67968  0.96298  0.24696  1.0000
  H   H4471     1.0  0.56397  0.87544  0.14666  1.0000
  Fe  Fe281     1.0  0.73648  0.88794  0.29504  1.0000
  H   H4472     1.0  0.62254  0.84658  0.17914  1.0000
  H   H4473     1.0  0.52816  0.67311  0.15248  1.0000
  C   C2540     1.0  0.51841  0.74809  0.04780  1.0000
  H   H4474     1.0  0.71579  0.89185  0.08519  1.0000
  H   H4475     1.0  0.64505  0.90384  0.33239  1.0000
  C   C2541     1.0  0.52906  0.68494  0.26619  1.0000
  S   S568      1.0  0.51608  0.71097  0.22036  1.0000
  C   C2542     1.0  0.61670  0.88724  0.33914  1.0000
  H   H4476     1.0  0.50831  0.87033  0.19262  1.0000
  H   H4477     1.0  0.50313  0.66245  0.29472  1.0000
  H   H4478     1.0  0.51979  0.78271  0.99131  1.0000
  H   H4479     1.0  0.58068  0.80081  0.31472  1.0000
  H   H4480     1.0  0.56658  0.71554  0.13096  1.0000
  C   C2543     1.0  0.52361  0.68894  0.25033  1.0000
  C   C2544     1.0  0.63298  0.67205  0.24205  1.0000
  S   S569      1.0  0.52163  0.89406  0.23618  1.0000
  H   H4481     1.0  0.63097  0.88409  0.31362  1.0000
  H   H4482     1.0  0.73563  0.92724  0.29013  1.0000
  H   H4483     1.0  0.71336  0.88462  0.10844  1.0000
  C   C2545     1.0  0.60779  0.73250  0.37076  1.0000
  H   H4484     1.0  0.54953  0.81063  0.32968  1.0000
  C   C2546     1.0  0.62155  0.72048  0.31284  1.0000
  S   S570      1.0  0.51710  0.90655  0.19558  1.0000
  H   H4485     1.0  0.69792  0.93708  0.19122  1.0000
  H   H4486     1.0  0.67263  0.94106  0.17689  1.0000
  H   H4487     1.0  0.52457  0.83269  0.32079  1.0000
  H   H4488     1.0  0.67376  0.91221  0.32964  1.0000
  C   C2547     1.0  0.49854  0.74336  0.28782  1.0000
  H   H4489     1.0  0.51908  0.67940  0.24647  1.0000
  H   H4490     1.0  0.60052  0.90409  0.16349  1.0000
  H   H4491     1.0  0.54019  0.94875  0.26525  1.0000
  H   H4492     1.0  0.73457  0.92657  0.15496  1.0000
  H   H4493     1.0  0.68152  0.97954  0.27055  1.0000
  H   H4494     1.0  0.64912  0.90529  0.25523  1.0000
  H   H4495     1.0  0.56484  0.68683  0.18347  1.0000
  H   H4496     1.0  0.49790  0.78031  0.03663  1.0000
  C   C2548     1.0  0.65327  0.66855  0.23777  1.0000
  H   H4497     1.0  0.58353  0.72546  0.15626  1.0000
  H   H4498     1.0  0.64605  0.92657  0.25962  1.0000
  C   C2549     1.0  0.59301  0.93727  0.17072  1.0000
  H   H4499     1.0  0.64879  0.93373  0.31863  1.0000
  C   C2550     1.0  0.59195  0.90533  0.17639  1.0000
  C   C2551     1.0  0.69961  0.93879  0.17696  1.0000
  C   C2552     1.0  0.64092  0.91440  0.26362  1.0000
  H   H4500     1.0  0.55923  0.90363  0.19945  1.0000
  H   H4501     1.0  0.65696  0.92804  0.29768  1.0000
  H   H4502     1.0  0.55056  0.79964  0.02883  1.0000
  Fe  Fe282     1.0  0.51256  0.65983  0.19756  1.0000
  H   H4503     1.0  0.57009  0.66198  0.15738  1.0000
  H   H4504     1.0  0.51241  0.81269  0.28866  1.0000
  H   H4505     1.0  0.66889  0.96491  0.30024  1.0000
  H   H4506     1.0  0.60423  0.68955  0.32992  1.0000
  C   C2553     1.0  0.59089  0.68940  0.35667  1.0000
  C   C2554     1.0  0.58120  0.68578  0.14919  1.0000
  H   H4507     1.0  0.51129  0.85721  0.11987  1.0000
  C   C2555     1.0  0.60311  0.69706  0.34001  1.0000
  C   C2556     1.0  0.52768  0.78762  0.03624  1.0000
  H   H4508     1.0  0.58199  0.68677  0.13512  1.0000
  H   H4509     1.0  0.65483  0.69413  0.24049  1.0000
  H   H4510     1.0  0.60056  0.74619  0.36901  1.0000
  H   H4511     1.0  0.51797  0.84029  0.28206  1.0000
  H   H4512     1.0  0.50344  0.75773  0.34069  1.0000
  H   H4513     1.0  0.61361  0.71526  0.30678  1.0000
  C   C2557     1.0  0.50564  0.79964  0.08167  1.0000
  H   H4514     1.0  0.54095  0.71286  0.18470  1.0000
  H   H4515     1.0  0.57021  0.69433  0.23989  1.0000
  H   H4516     1.0  0.70277  0.97395  0.27652  1.0000
  C   C2558     1.0  0.63035  0.67877  0.34706  1.0000
  C   C2559     1.0  0.50086  0.79416  0.24450  1.0000
  H   H4517     1.0  0.59145  0.95482  0.32873  1.0000
  C   C2560     1.0  0.55849  0.71333  0.20052  1.0000
  H   H4518     1.0  0.59592  0.71022  0.33517  1.0000
  H   H4519     1.0  0.61538  0.69931  0.36894  1.0000
  H   H4520     1.0  0.50449  0.87349  0.13977  1.0000
  H   H4521     1.0  0.51314  0.79114  0.31718  1.0000
  H   H4522     1.0  0.57403  0.68248  0.34336  1.0000
  H   H4523     1.0  0.63399  0.70744  0.35660  1.0000
  C   C2561     1.0  0.64209  0.97449  0.32613  1.0000
  C   C2562     1.0  0.67718  0.96682  0.17649  1.0000
  H   H4524     1.0  0.53186  0.72093  0.05210  1.0000
  C   C2563     1.0  0.68133  0.96952  0.29745  1.0000
  C   C2564     1.0  0.62057  0.70678  0.35598  1.0000
  H   H4525     1.0  0.67445  0.68269  0.22860  1.0000
  C   C2565     1.0  0.50055  0.78496  0.07982  1.0000
  H   H4526     1.0  0.55626  0.68090  0.13495  1.0000
  H   H4527     1.0  0.57228  0.94611  0.33125  1.0000
  Fe  Fe283     1.0  0.63378  0.96954  0.24040  1.0000
  H   H4528     1.0  0.50737  0.75732  0.08258  1.0000
  C   C2566     1.0  0.50799  0.85017  0.17993  1.0000
  H   H4529     1.0  0.68876  0.97303  0.17326  1.0000
  H   H4530     1.0  0.71986  0.95945  0.20032  1.0000
  H   H4531     1.0  0.65331  0.97886  0.34574  1.0000
  H   H4532     1.0  0.73933  0.94489  0.16734  1.0000
  C   C2567     1.0  0.73541  0.94635  0.23919  1.0000
  H   H4533     1.0  0.56433  0.68493  0.36534  1.0000
  H   H4534     1.0  0.55410  0.72582  0.14809  1.0000
  S   S571      1.0  0.51171  0.66185  0.22477  1.0000
  C   C2568     1.0  0.65116  0.65272  0.30353  1.0000
  H   H4535     1.0  0.59815  0.65559  0.13646  1.0000
  H   H4536     1.0  0.69466  0.97687  0.14433  1.0000
  C   C2569     1.0  0.59798  0.65473  0.15035  1.0000
  H   H4537     1.0  0.67200  0.65454  0.35203  1.0000
  H   H4538     1.0  0.71271  0.97781  0.22737  1.0000
  H   H4539     1.0  0.49721  0.86254  0.25323  1.0000
  C   C2570     1.0  0.52846  0.68550  0.14287  1.0000
  H   H4540     1.0  0.54541  0.74713  0.99620  1.0000
  H   H4541     1.0  0.51502  0.83809  0.09955  1.0000
  H   H4542     1.0  0.72446  0.97233  0.17878  1.0000
  C   C2571     1.0  0.74004  0.90079  0.15071  1.0000
  H   H4543     1.0  0.55185  0.76763  0.99236  1.0000
  H   H4544     1.0  0.73935  0.93198  0.24190  1.0000
  H   H4545     1.0  0.50647  0.71357  0.11626  1.0000
  H   H4546     1.0  0.49928  0.80405  0.23243  1.0000
  H   H4547     1.0  0.58178  0.66462  0.17238  1.0000
  S   S572      1.0  0.72917  0.97658  0.31671  1.0000
  H   H4548     1.0  0.64399  0.96794  0.19121  1.0000
  H   H4549     1.0  0.52680  0.68347  0.13042  1.0000
  H   H4550     1.0  0.74340  0.90524  0.18172  1.0000
  S   S573      1.0  0.73620  0.90003  0.23236  1.0000
  C   C2572     1.0  0.61345  0.97350  0.18070  1.0000
  H   H4551     1.0  0.61609  0.96042  0.17758  1.0000
  C   C2573     1.0  0.66561  0.98173  0.14975  1.0000
  C   C2574     1.0  0.50399  0.75222  0.26893  1.0000
  H   H4552     1.0  0.68965  0.98314  0.21047  1.0000
  H   H4553     1.0  0.60141  0.98122  0.17614  1.0000
  H   H4554     1.0  0.50890  0.73199  0.29138  1.0000
  S   S574      1.0  0.74230  0.97795  0.14174  1.0000
  C   C2575     1.0  0.74415  0.93837  0.17944  1.0000
  H   H4555     1.0  0.49917  0.72494  0.14198  1.0000
  N   N141      1.0  0.66212  0.97910  0.16926  1.0000
  H   H4556     1.0  0.61115  0.97211  0.19499  1.0000
  H   H4557     1.0  0.49978  0.73424  0.10313  1.0000
  H   H4558     1.0  0.49792  0.81241  0.07787  1.0000
  H   H4559     1.0  0.73845  0.95672  0.29018  1.0000
  C   C2576     1.0  0.50000  0.83193  0.31506  1.0000
  H   H4560     1.0  0.50078  0.89268  0.12402  1.0000
  H   H4561     1.0  0.49890  0.84439  0.30555  1.0000
  H   H4562     1.0  0.49701  0.77905  0.20777  1.0000
  H   H4563     1.0  0.74091  0.98015  0.02340  1.0000
  C   C2577     1.0  0.65768  0.65652  0.35292  1.0000
  H   H4564     1.0  0.65147  0.65201  0.36662  1.0000
  H   H4565     1.0  0.50867  0.65183  0.26669  1.0000
  H   H4566     1.0  0.49724  0.76483  0.17800  1.0000
  H   H4567     1.0  0.49461  0.84449  0.12612  1.0000
  C   C2578     1.0  0.49606  0.75302  0.13013  1.0000
  H   H4568     1.0  0.49642  0.68303  0.12650  1.0000
  H   H4569     1.0  0.49536  0.69104  0.30049  1.0000
  H   H4570     1.0  0.67842  0.98278  0.30022  1.0000
  C   C2579     1.0  0.49463  0.73418  0.13071  1.0000
  H   H4571     1.0  0.54133  0.77672  0.96451  1.0000
  H   H4572     1.0  0.55749  0.75684  0.96542  1.0000
  C   C2580     1.0  0.54395  0.76284  0.97105  1.0000
  H   H4573     1.0  0.53475  0.75609  0.96845  1.0000
  H   H4574     1.0  0.82270  0.08338  0.04972  1.0000
  H   H4575     1.0  0.76695  0.02397  0.26483  1.0000
  C   C2581     1.0  0.82961  0.28801  0.05117  1.0000
  C   C2582     1.0  0.80720  0.24427  0.09438  1.0000
  H   H4576     1.0  0.80324  0.14745  0.45581  1.0000
  Fe  Fe284     1.0  0.84034  0.99522  0.20467  1.0000
  S   S575      1.0  0.85325  0.00012  0.22411  1.0000
  S   S576      1.0  0.83393  0.01085  0.17906  1.0000
  H   H4577     1.0  0.91126  0.21110  0.43670  1.0000
  S   S577      1.0  0.81464  0.00405  0.26715  1.0000
  H   H4578     1.0  0.87524  0.23227  0.37511  1.0000
  H   H4579     1.0  0.80127  0.02938  0.20068  1.0000
  S   S578      1.0  0.85531  0.21785  0.01025  1.0000
  C   C2583     1.0  0.81049  0.29257  0.98217  1.0000
  S   S579      1.0  0.77004  0.11806  0.31438  1.0000
  S   S580      1.0  0.81200  0.25595  0.02211  1.0000
  H   H4580     1.0  0.84481  0.24694  0.38370  1.0000
  C   C2584     1.0  0.87919  0.99639  0.16567  1.0000
  C   C2585     1.0  0.81207  0.26972  0.45544  1.0000
  H   H4581     1.0  0.75887  0.23536  0.07685  1.0000
  C   C2586     1.0  0.77278  0.10877  0.09545  1.0000
  C   C2587     1.0  0.77680  0.22831  0.10326  1.0000
  C   C2588     1.0  0.90997  0.21810  0.37823  1.0000
  C   C2589     1.0  0.86246  0.29667  0.13467  1.0000
  H   H4582     1.0  0.80548  0.26264  0.41693  1.0000
  C   C2590     1.0  0.81858  0.25780  0.09014  1.0000
  C   C2591     1.0  0.81851  0.16438  0.00681  1.0000
  H   H4583     1.0  0.79057  0.26210  0.43749  1.0000
  Fe  Fe285     1.0  0.81078  0.08951  0.29256  1.0000
  S   S581      1.0  0.80421  0.11863  0.28316  1.0000
  S   S582      1.0  0.83288  0.07177  0.27810  1.0000
  Fe  Fe286     1.0  0.77957  0.08964  0.32169  1.0000
  S   S583      1.0  0.81677  0.98985  0.22457  1.0000
  H   H4584     1.0  0.81348  0.02429  0.32879  1.0000
  Fe  Fe287     1.0  0.79791  0.12018  0.31155  1.0000
  S   S584      1.0  0.79728  0.14267  0.32409  1.0000
  S   S585      1.0  0.81466  0.29711  0.11282  1.0000
  S   S586      1.0  0.80707  0.09144  0.32057  1.0000
  Fe  Fe288     1.0  0.83951  0.18821  0.41903  1.0000
  S   S587      1.0  0.81331  0.20576  0.42404  1.0000
  S   S588      1.0  0.86238  0.18331  0.43226  1.0000
  Fe  Fe289     1.0  0.83033  0.17420  0.39112  1.0000
  S   S589      1.0  0.80340  0.19061  0.39389  1.0000
  S   S590      1.0  0.84193  0.15634  0.37180  1.0000
  Fe  Fe290     1.0  0.81585  0.21190  0.39509  1.0000
  S   S591      1.0  0.80851  0.23964  0.38137  1.0000
  Fe  Fe291     1.0  0.80296  0.18324  0.42236  1.0000
  S   S592      1.0  0.77858  0.17647  0.44002  1.0000
  S   S593      1.0  0.84313  0.19622  0.38994  1.0000
  S   S594      1.0  0.82891  0.16488  0.41982  1.0000
  H   H4585     1.0  0.78289  0.17650  0.29973  1.0000
  S   S595      1.0  0.84335  0.17108  0.02128  1.0000
  C   C2592     1.0  0.81233  0.29131  0.04910  1.0000
  C   C2593     1.0  0.79266  0.24992  0.08344  1.0000
  H   H4586     1.0  0.79565  0.05664  0.24647  1.0000
  C   C2594     1.0  0.79512  0.13270  0.06618  1.0000
  C   C2595     1.0  0.78620  0.24629  0.38027  1.0000
  C   C2596     1.0  0.77619  0.23405  0.38167  1.0000
  H   H4587     1.0  0.78744  0.08259  0.07716  1.0000
  H   H4588     1.0  0.84550  0.13459  0.03087  1.0000
  C   C2597     1.0  0.79809  0.12196  0.45951  1.0000
  C   C2598     1.0  0.77828  0.26394  0.37803  1.0000
  H   H4589     1.0  0.78200  0.22052  0.38348  1.0000
  H   H4590     1.0  0.74900  0.27782  0.00489  1.0000
  H   H4591     1.0  0.77479  0.04075  0.36092  1.0000
  H   H4592     1.0  0.78589  0.27351  0.37704  1.0000
  C   C2599     1.0  0.80964  0.14365  0.33893  1.0000
  C   C2600     1.0  0.82772  0.13741  0.33659  1.0000
  C   C2601     1.0  0.83742  0.14100  0.34704  1.0000
  C   C2602     1.0  0.82914  0.15067  0.36003  1.0000
  C   C2603     1.0  0.81098  0.15617  0.36290  1.0000
  C   C2604     1.0  0.80134  0.15283  0.35228  1.0000
  H   H4593     1.0  0.83433  0.13047  0.32625  1.0000
  H   H4594     1.0  0.85147  0.13658  0.34480  1.0000
  H   H4595     1.0  0.80440  0.16327  0.37310  1.0000
  H   H4596     1.0  0.78740  0.15768  0.35424  1.0000
  C   C2605     1.0  0.76953  0.12951  0.42515  1.0000
  H   H4597     1.0  0.79306  0.03972  0.33153  1.0000
  C   C2606     1.0  0.75961  0.15233  0.44184  1.0000
  C   C2607     1.0  0.77461  0.15902  0.43362  1.0000
  C   C2608     1.0  0.78655  0.15159  0.42041  1.0000
  C   C2609     1.0  0.78395  0.13691  0.41610  1.0000
  C   C2610     1.0  0.80730  0.28154  0.03994  1.0000
  C   C2611     1.0  0.87002  0.25938  0.45456  1.0000
  H   H4598     1.0  0.79809  0.15673  0.41382  1.0000
  H   H4599     1.0  0.79348  0.13093  0.40621  1.0000
  H   H4600     1.0  0.76304  0.00244  0.02656  1.0000
  H   H4601     1.0  0.87047  0.99852  0.29230  1.0000
  C   C2612     1.0  0.88473  0.18247  0.45228  1.0000
  C   C2613     1.0  0.86821  0.19033  0.44858  1.0000
  C   C2614     1.0  0.85762  0.20318  0.45759  1.0000
  C   C2615     1.0  0.76221  0.20029  0.99314  1.0000
  H   H4602     1.0  0.77825  0.01744  0.03743  1.0000
  H   H4603     1.0  0.89310  0.17273  0.44527  1.0000
  H   H4604     1.0  0.84485  0.20942  0.45475  1.0000
  H   H4605     1.0  0.76450  0.19656  0.38158  1.0000
  C   C2616     1.0  0.83163  0.15769  0.01662  1.0000
  H   H4606     1.0  0.83609  0.24868  0.40591  1.0000
  C   C2617     1.0  0.83813  0.27173  0.46547  1.0000
  C   C2618     1.0  0.78154  0.19005  0.30117  1.0000
  H   H4607     1.0  0.88912  0.22340  0.44093  1.0000
  H   H4608     1.0  0.76115  0.10117  0.38693  1.0000
  H   H4609     1.0  0.88273  0.20284  0.37648  1.0000
  H   H4610     1.0  0.81926  0.31655  0.46612  1.0000
  Fe  Fe292     1.0  0.83006  0.23645  0.00659  1.0000
  H   H4611     1.0  0.82642  0.25831  0.07677  1.0000
  H   H4612     1.0  0.84650  0.25530  0.02844  1.0000
  C   C2619     1.0  0.83696  0.26535  0.03415  1.0000
  C   C2620     1.0  0.79528  0.09588  0.05057  1.0000
  H   H4613     1.0  0.77825  0.09965  0.25513  1.0000
  H   H4614     1.0  0.89287  0.23995  0.41078  1.0000
  H   H4615     1.0  0.78051  0.24592  0.04884  1.0000
  C   C2621     1.0  0.90197  0.22739  0.41368  1.0000
  C   C2622     1.0  0.77515  0.03909  0.18102  1.0000
  H   H4616     1.0  0.80514  0.00953  0.38983  1.0000
  H   H4617     1.0  0.85647  0.22105  0.40463  1.0000
  C   C2623     1.0  0.75712  0.13756  0.43764  1.0000
  N   N142      1.0  0.82028  0.28109  0.46203  1.0000
  C   C2624     1.0  0.88922  0.00859  0.16950  1.0000
  C   C2625     1.0  0.77284  0.13046  0.19104  1.0000
  H   H4618     1.0  0.87527  0.19803  0.39897  1.0000
  H   H4619     1.0  0.89066  0.02269  0.29234  1.0000
  H   H4620     1.0  0.81595  0.23186  0.09201  1.0000
  H   H4621     1.0  0.90736  0.23408  0.43581  1.0000
  S   S596      1.0  0.83557  0.29924  0.06408  1.0000
  H   H4622     1.0  0.87007  0.99223  0.17796  1.0000
  C   C2626     1.0  0.75279  0.99654  0.37966  1.0000
  C   C2627     1.0  0.88708  0.20019  0.38901  1.0000
  H   H4623     1.0  0.91265  0.18328  0.38119  1.0000
  H   H4624     1.0  0.87416  0.26701  0.46186  1.0000
  H   H4625     1.0  0.88027  0.25774  0.44277  1.0000
  H   H4626     1.0  0.91341  0.23038  0.37871  1.0000
  C   C2628     1.0  0.81968  0.02304  0.26983  1.0000
  C   C2629     1.0  0.81155  0.02956  0.28493  1.0000
  C   C2630     1.0  0.81516  0.04475  0.28734  1.0000
  C   C2631     1.0  0.82728  0.05331  0.27485  1.0000
  C   C2632     1.0  0.83558  0.04666  0.25983  1.0000
  C   C2633     1.0  0.83165  0.03168  0.25724  1.0000
  H   H4627     1.0  0.80238  0.02289  0.29477  1.0000
  H   H4628     1.0  0.80880  0.04972  0.29899  1.0000
  H   H4629     1.0  0.84480  0.05334  0.25003  1.0000
  H   H4630     1.0  0.83776  0.02696  0.24543  1.0000
  H   H4631     1.0  0.79352  0.03521  0.24608  1.0000
  S   S597      1.0  0.80204  0.12051  0.00728  1.0000
  C   C2634     1.0  0.90246  0.22371  0.43294  1.0000
  H   H4632     1.0  0.85559  0.21762  0.47748  1.0000
  C   C2635     1.0  0.84816  0.24826  0.39570  1.0000
  C   C2636     1.0  0.76851  0.24141  0.42298  1.0000
  C   C2637     1.0  0.80170  0.00183  0.15219  1.0000
  C   C2638     1.0  0.81239  0.00977  0.15783  1.0000
  C   C2639     1.0  0.82026  0.00114  0.17207  1.0000
  Fe  Fe293     1.0  0.76721  0.98781  0.13684  1.0000
  H   H4633     1.0  0.82225  0.13076  0.45159  1.0000
  H   H4634     1.0  0.79580  0.00847  0.14112  1.0000
  H   H4635     1.0  0.81469  0.02251  0.15109  1.0000
  C   C2640     1.0  0.86211  0.23282  0.40162  1.0000
  C   C2641     1.0  0.90019  0.18256  0.39072  1.0000
  H   H4636     1.0  0.84279  0.27855  0.47320  1.0000
  H   H4637     1.0  0.76693  0.23895  0.33181  1.0000
  H   H4638     1.0  0.80708  0.23388  0.32471  1.0000
  H   H4639     1.0  0.78759  0.19746  0.28859  1.0000
  C   C2642     1.0  0.76253  0.30235  0.42222  1.0000
  H   H4640     1.0  0.77075  0.23180  0.47571  1.0000
  H   H4641     1.0  0.77611  0.21579  0.06320  1.0000
  H   H4642     1.0  0.92111  0.20767  0.38194  1.0000
  C   C2643     1.0  0.78964  0.20875  0.31754  1.0000
  C   C2644     1.0  0.79509  0.22931  0.33282  1.0000
  H   H4643     1.0  0.75224  0.05194  0.29362  1.0000
  H   H4644     1.0  0.79151  0.09262  0.39244  1.0000
  H   H4645     1.0  0.90037  0.99747  0.28486  1.0000
  S   S598      1.0  0.78384  0.08533  0.29467  1.0000
  H   H4646     1.0  0.77364  0.10019  0.12994  1.0000
  H   H4647     1.0  0.92993  0.23466  0.34815  1.0000
  H   H4648     1.0  0.87079  0.00470  0.15654  1.0000
  H   H4649     1.0  0.79381  0.31361  0.99353  1.0000
  C   C2645     1.0  0.76451  0.06494  0.05926  1.0000
  H   H4650     1.0  0.85548  0.27270  0.04473  1.0000
  H   H4651     1.0  0.85272  0.26062  0.39330  1.0000
  H   H4652     1.0  0.89691  0.00176  0.17967  1.0000
  H   H4653     1.0  0.79794  0.12268  0.44577  1.0000
  H   H4654     1.0  0.80244  0.22931  0.06213  1.0000
  S   S599      1.0  0.76459  0.07443  0.34493  1.0000
  C   C2646     1.0  0.92729  0.22215  0.34728  1.0000
  C   C2647     1.0  0.90983  0.21902  0.35898  1.0000
  C   C2648     1.0  0.76679  0.04010  0.39437  1.0000
  H   H4655     1.0  0.83745  0.25866  0.47377  1.0000
  C   C2649     1.0  0.81284  0.13536  0.01080  1.0000
  H   H4656     1.0  0.91530  0.22881  0.40627  1.0000
  H   H4657     1.0  0.86742  0.02896  0.29337  1.0000
  H   H4658     1.0  0.77578  0.21548  0.31814  1.0000
  H   H4659     1.0  0.79085  0.26538  0.32318  1.0000
  H   H4660     1.0  0.78530  0.02827  0.41993  1.0000
  H   H4661     1.0  0.86898  0.24634  0.46275  1.0000
  H   H4662     1.0  0.79111  0.01113  0.20317  1.0000
  H   H4663     1.0  0.93815  0.21144  0.35101  1.0000
  H   H4664     1.0  0.79453  0.18932  0.05486  1.0000
  H   H4665     1.0  0.75104  0.20830  0.00059  1.0000
  N   N143      1.0  0.79636  0.21039  0.33269  1.0000
  H   H4666     1.0  0.92688  0.22271  0.33360  1.0000
  C   C2650     1.0  0.75908  0.03742  0.26439  1.0000
  C   C2651     1.0  0.81548  0.20167  0.33032  1.0000
  C   C2652     1.0  0.78703  0.20141  0.34978  1.0000
  H   H4667     1.0  0.76249  0.08461  0.03596  1.0000
  C   C2653     1.0  0.79066  0.18999  0.31555  1.0000
  C   C2654     1.0  0.82527  0.20267  0.34413  1.0000
  H   H4668     1.0  0.84060  0.14396  0.45701  1.0000
  C   C2655     1.0  0.76683  0.20591  0.35364  1.0000
  H   H4669     1.0  0.86456  0.23456  0.41385  1.0000
  C   C2656     1.0  0.84489  0.19569  0.33899  1.0000
  H   H4670     1.0  0.81041  0.27080  0.09136  1.0000
  S   S600      1.0  0.75724  0.12886  0.27030  1.0000
  H   H4671     1.0  0.79468  0.23096  0.34613  1.0000
  H   H4672     1.0  0.79526  0.29353  0.00806  1.0000
  H   H4673     1.0  0.82266  0.20716  0.31727  1.0000
  H   H4674     1.0  0.81716  0.18756  0.33076  1.0000
  H   H4675     1.0  0.79100  0.18719  0.35099  1.0000
  H   H4676     1.0  0.79122  0.20411  0.36067  1.0000
  C   C2657     1.0  0.82838  0.31152  0.45498  1.0000
  H   H4677     1.0  0.87697  0.12706  0.46763  1.0000
  H   H4678     1.0  0.80444  0.18321  0.31203  1.0000
  H   H4679     1.0  0.78427  0.18228  0.32767  1.0000
  H   H4680     1.0  0.82049  0.19456  0.35678  1.0000
  H   H4681     1.0  0.82350  0.21612  0.34596  1.0000
  H   H4682     1.0  0.87328  0.14521  0.44983  1.0000
  H   H4683     1.0  0.89062  0.99612  0.13267  1.0000
  C   C2658     1.0  0.85260  0.26879  0.44933  1.0000
  H   H4684     1.0  0.77609  0.01957  0.32395  1.0000
  H   H4685     1.0  0.76111  0.03405  0.40783  1.0000
  H   H4686     1.0  0.88428  0.24355  0.38548  1.0000
  H   H4687     1.0  0.79803  0.98529  0.07215  1.0000
  C   C2659     1.0  0.75061  0.25688  0.37838  1.0000
  H   H4688     1.0  0.85148  0.19570  0.34945  1.0000
  H   H4689     1.0  0.84737  0.18213  0.33712  1.0000
  H   H4690     1.0  0.85066  0.20391  0.32683  1.0000
  C   C2660     1.0  0.89253  0.16841  0.38768  1.0000
  H   H4691     1.0  0.90307  0.17829  0.40396  1.0000
  H   H4692     1.0  0.90204  0.15587  0.38903  1.0000
  H   H4693     1.0  0.88029  0.16673  0.39739  1.0000
  H   H4694     1.0  0.88961  0.17172  0.37446  1.0000
  N   N144      1.0  0.88349  0.00859  0.26625  1.0000
  C   C2661     1.0  0.88255  0.00847  0.24796  1.0000
  C   C2662     1.0  0.82087  0.29832  0.44959  1.0000
  C   C2663     1.0  0.88296  0.02713  0.26702  1.0000
  H   H4695     1.0  0.79387  0.28430  0.03849  1.0000
  H   H4696     1.0  0.78760  0.21825  0.10816  1.0000
  C   C2664     1.0  0.89793  0.01407  0.23351  1.0000
  C   C2665     1.0  0.88038  0.03101  0.28538  1.0000
  H   H4697     1.0  0.79700  0.21545  0.30521  1.0000
  H   H4698     1.0  0.81172  0.01752  0.36082  1.0000
  H   H4699     1.0  0.92606  0.99075  0.11100  1.0000
  H   H4700     1.0  0.81647  0.99756  0.41702  1.0000
  C   C2666     1.0  0.88117  0.04988  0.28421  1.0000
  H   H4701     1.0  0.87018  0.01708  0.24475  1.0000
  C   C2667     1.0  0.77562  0.99804  0.06025  1.0000
  Fe  Fe294     1.0  0.77693  0.11429  0.28702  1.0000
  H   H4702     1.0  0.87380  0.28069  0.10722  1.0000
  H   H4703     1.0  0.87220  0.03610  0.26096  1.0000
  H   H4704     1.0  0.89525  0.03133  0.25938  1.0000
  H   H4705     1.0  0.91164  0.00347  0.26343  1.0000
  H   H4706     1.0  0.79107  0.19103  0.46565  1.0000
  C   C2668     1.0  0.79506  0.22277  0.07456  1.0000
  H   H4707     1.0  0.80581  0.00669  0.43594  1.0000
  H   H4708     1.0  0.89880  0.02760  0.23294  1.0000
  C   C2669     1.0  0.89989  0.98710  0.14058  1.0000
  H   H4709     1.0  0.76738  0.19579  0.30438  1.0000
  H   H4710     1.0  0.77203  0.02017  0.29446  1.0000
  H   H4711     1.0  0.81735  0.25572  0.46009  1.0000
  C   C2670     1.0  0.75552  0.05516  0.07400  1.0000
  C   C2671     1.0  0.84203  0.27525  0.04333  1.0000
  C   C2672     1.0  0.89641  0.21240  0.40909  1.0000
  H   H4712     1.0  0.80022  0.10874  0.09628  1.0000
  H   H4713     1.0  0.78219  0.23471  0.41881  1.0000
  C   C2673     1.0  0.77227  0.04886  0.26339  1.0000
  C   C2674     1.0  0.75726  0.26787  0.12889  1.0000
  H   H4714     1.0  0.76589  0.24748  0.01257  1.0000
  C   C2675     1.0  0.86037  0.98860  0.27507  1.0000
  C   C2676     1.0  0.75395  0.11824  0.25535  1.0000
  H   H4715     1.0  0.87103  0.05886  0.27738  1.0000
  H   H4716     1.0  0.87869  0.05254  0.29745  1.0000
  H   H4717     1.0  0.89425  0.05253  0.27719  1.0000
  C   C2677     1.0  0.81948  0.26834  0.03266  1.0000
  C   C2678     1.0  0.83534  0.13986  0.02337  1.0000
  C   C2679     1.0  0.81514  0.16159  0.47701  1.0000
  H   H4718     1.0  0.76041  0.18664  0.99809  1.0000
  C   C2680     1.0  0.81096  0.08149  0.04618  1.0000
  N   N145      1.0  0.89321  0.21555  0.39097  1.0000
  H   H4719     1.0  0.77862  0.06272  0.05683  1.0000
  H   H4720     1.0  0.74883  0.24919  0.04960  1.0000
  C   C2681     1.0  0.86369  0.20782  0.47043  1.0000
  H   H4721     1.0  0.79122  0.00813  0.07236  1.0000
  H   H4722     1.0  0.82772  0.25426  0.09923  1.0000
  H   H4723     1.0  0.80679  0.12321  0.06149  1.0000
  H   H4724     1.0  0.75619  0.16671  0.06618  1.0000
  H   H4725     1.0  0.78196  0.12001  0.12181  1.0000
  S   S601      1.0  0.77709  0.27152  0.13127  1.0000
  H   H4726     1.0  0.82719  0.27093  0.42847  1.0000
  C   C2682     1.0  0.78621  0.04865  0.24673  1.0000
  C   C2683     1.0  0.74516  0.98770  0.04570  1.0000
  C   C2684     1.0  0.77794  0.12753  0.06608  1.0000
  H   H4727     1.0  0.78438  0.09413  0.04563  1.0000
  H   H4728     1.0  0.90697  0.20084  0.41143  1.0000
  H   H4729     1.0  0.74994  0.15845  0.45149  1.0000
  H   H4730     1.0  0.85470  0.28128  0.44058  1.0000
  C   C2685     1.0  0.79924  0.98504  0.16053  1.0000
  H   H4731     1.0  0.90765  0.20673  0.35709  1.0000
  H   H4732     1.0  0.85641  0.01401  0.27964  1.0000
  C   C2686     1.0  0.85615  0.31015  0.11911  1.0000
  H   H4733     1.0  0.79896  0.25476  0.06981  1.0000
  H   H4734     1.0  0.80529  0.21506  0.08193  1.0000
  C   C2687     1.0  0.75897  0.10646  0.07286  1.0000
  C   C2688     1.0  0.89554  0.01325  0.21569  1.0000
  C   C2689     1.0  0.75097  0.08602  0.16557  1.0000
  H   H4735     1.0  0.89942  0.22978  0.35444  1.0000
  H   H4736     1.0  0.82587  0.31073  0.98330  1.0000
  H   H4737     1.0  0.77097  0.15789  0.18169  1.0000
  S   S602      1.0  0.75633  0.06910  0.45560  1.0000
  H   H4738     1.0  0.80330  0.10824  0.46509  1.0000
  C   C2690     1.0  0.87919  0.23152  0.38750  1.0000
  C   C2691     1.0  0.76193  0.14891  0.18865  1.0000
  C   C2692     1.0  0.84112  0.13915  0.47099  1.0000
  N   N146      1.0  0.86738  0.30888  0.10137  1.0000
  C   C2693     1.0  0.76829  0.01583  0.04963  1.0000
  H   H4739     1.0  0.76683  0.06202  0.11933  1.0000
  H   H4740     1.0  0.79532  0.13385  0.07941  1.0000
  H   H4741     1.0  0.81107  0.24644  0.43548  1.0000
  H   H4742     1.0  0.77690  0.07165  0.16905  1.0000
  Fe  Fe295     1.0  0.75641  0.01804  0.10807  1.0000
  C   C2694     1.0  0.75684  0.21180  0.12765  1.0000
  C   C2695     1.0  0.75196  0.05830  0.00714  1.0000
  H   H4743     1.0  0.75992  0.23720  0.41677  1.0000
  H   H4744     1.0  0.85488  0.98900  0.15204  1.0000
  H   H4745     1.0  0.88468  0.20916  0.41879  1.0000
  H   H4746     1.0  0.78767  0.27183  0.98595  1.0000
  H   H4747     1.0  0.78763  0.02191  0.22106  1.0000
  H   H4748     1.0  0.75216  0.30345  0.39989  1.0000
  H   H4749     1.0  0.78413  0.00664  0.41931  1.0000
  H   H4750     1.0  0.81179  0.19126  0.06428  1.0000
  S   S603      1.0  0.74605  0.19766  0.07978  1.0000
  H   H4751     1.0  0.78068  0.27203  0.00842  1.0000
  H   H4752     1.0  0.76404  0.14392  0.35863  1.0000
  H   H4753     1.0  0.84632  0.12493  0.47227  1.0000
  S   S604      1.0  0.77154  0.99073  0.10805  1.0000
  H   H4754     1.0  0.88386  0.03273  0.17858  1.0000
  H   H4755     1.0  0.75735  0.26763  0.03607  1.0000
  H   H4756     1.0  0.78444  0.12596  0.46641  1.0000
  Fe  Fe296     1.0  0.83049  0.99202  0.24430  1.0000
  H   H4757     1.0  0.84914  0.26059  0.44220  1.0000
  C   C2696     1.0  0.76259  0.25286  0.99953  1.0000
  C   C2697     1.0  0.77853  0.26063  0.32943  1.0000
  H   H4758     1.0  0.74546  0.13264  0.44390  1.0000
  H   H4759     1.0  0.82813  0.29071  0.99928  1.0000
  C   C2698     1.0  0.78703  0.20944  0.07005  1.0000
  H   H4760     1.0  0.88132  0.25968  0.08696  1.0000
  H   H4761     1.0  0.77334  0.04153  0.31178  1.0000
  C   C2699     1.0  0.80888  0.15326  0.00414  1.0000
  H   H4762     1.0  0.77186  0.04848  0.20521  1.0000
  H   H4763     1.0  0.81586  0.17808  0.00137  1.0000
  H   H4764     1.0  0.79238  0.99269  0.31763  1.0000
  H   H4765     1.0  0.76756  0.27001  0.32419  1.0000
  S   S605      1.0  0.75409  0.01546  0.13670  1.0000
  Fe  Fe297     1.0  0.84279  0.19812  0.00515  1.0000
  H   H4766     1.0  0.75546  0.03420  0.32812  1.0000
  H   H4767     1.0  0.77991  0.21551  0.99634  1.0000
  H   H4768     1.0  0.84264  0.30901  0.11933  1.0000
  C   C2700     1.0  0.81342  0.27266  0.43554  1.0000
  C   C2701     1.0  0.77319  0.01116  0.38751  1.0000
  H   H4769     1.0  0.90913  0.99500  0.14102  1.0000
  H   H4770     1.0  0.77330  0.08541  0.23362  1.0000
  H   H4771     1.0  0.80653  0.28595  0.43052  1.0000
  C   C2702     1.0  0.74890  0.17649  0.05759  1.0000
  H   H4772     1.0  0.80821  0.10332  0.37784  1.0000
  C   C2703     1.0  0.80463  0.26011  0.43117  1.0000
  H   H4773     1.0  0.79068  0.04696  0.14606  1.0000
  H   H4774     1.0  0.78357  0.26147  0.08786  1.0000
  H   H4775     1.0  0.82861  0.29647  0.43661  1.0000
  H   H4776     1.0  0.88326  0.02212  0.21271  1.0000
  C   C2704     1.0  0.87649  0.02415  0.17594  1.0000
  H   H4777     1.0  0.77851  0.99445  0.23942  1.0000
  H   H4778     1.0  0.76724  0.13760  0.07127  1.0000
  C   C2705     1.0  0.77266  0.05688  0.39456  1.0000
  C   C2706     1.0  0.78934  0.02387  0.20677  1.0000
  H   H4779     1.0  0.79087  0.19471  0.99148  1.0000
  Fe  Fe298     1.0  0.78654  0.29587  0.11597  1.0000
  H   H4780     1.0  0.76181  0.03030  0.20791  1.0000
  S   S606      1.0  0.75265  0.13012  0.02777  1.0000
  C   C2707     1.0  0.80064  0.19866  0.05801  1.0000
  H   H4781     1.0  0.80566  0.20712  0.04564  1.0000
  S   S607      1.0  0.81705  0.21618  0.00377  1.0000
  C   C2708     1.0  0.75851  0.23932  0.38064  1.0000
  H   H4782     1.0  0.75725  0.09297  0.07931  1.0000
  C   C2709     1.0  0.77879  0.20177  0.99869  1.0000
  C   C2710     1.0  0.75541  0.07734  0.04744  1.0000
  H   H4783     1.0  0.79377  0.08820  0.10456  1.0000
  C   C2711     1.0  0.77331  0.03617  0.20096  1.0000
  H   H4784     1.0  0.80131  0.24268  0.10844  1.0000
  H   H4785     1.0  0.84131  0.30563  0.45847  1.0000
  H   H4786     1.0  0.77640  0.02631  0.17765  1.0000
  H   H4787     1.0  0.74461  0.20667  0.13102  1.0000
  H   H4788     1.0  0.77914  0.04394  0.27439  1.0000
  C   C2712     1.0  0.80482  0.03322  0.33716  1.0000
  N   N147      1.0  0.78269  0.23612  0.08430  1.0000
  H   H4789     1.0  0.76682  0.20173  0.02589  1.0000
  C   C2713     1.0  0.78206  0.11472  0.37317  1.0000
  H   H4790     1.0  0.76310  0.03099  0.01055  1.0000
  H   H4791     1.0  0.81390  0.08191  0.03200  1.0000
  H   H4792     1.0  0.79777  0.27143  0.46094  1.0000
  Fe  Fe299     1.0  0.74826  0.13679  0.97986  1.0000
  H   H4793     1.0  0.79022  0.19497  0.02165  1.0000
  C   C2714     1.0  0.76043  0.26924  0.37727  1.0000
  H   H4794     1.0  0.75942  0.28024  0.10191  1.0000
  C   C2715     1.0  0.79591  0.09900  0.37878  1.0000
  C   C2716     1.0  0.77969  0.24273  0.32589  1.0000
  C   C2717     1.0  0.75854  0.01366  0.37732  1.0000
  H   H4795     1.0  0.78013  0.05408  0.23517  1.0000
  C   C2718     1.0  0.75574  0.10296  0.16597  1.0000
  S   S608      1.0  0.76216  0.15291  0.98840  1.0000
  H   H4796     1.0  0.80744  0.30490  0.44758  1.0000
  H   H4797     1.0  0.79509  0.15081  0.04124  1.0000
  H   H4798     1.0  0.79868  0.08950  0.37024  1.0000
  H   H4799     1.0  0.90697  0.98813  0.10475  1.0000
  H   H4800     1.0  0.78025  0.12398  0.38161  1.0000
  H   H4801     1.0  0.82951  0.11495  0.02524  1.0000
  C   C2719     1.0  0.77808  0.19426  0.01802  1.0000
  H   H4802     1.0  0.75176  0.08571  0.15186  1.0000
  C   C2720     1.0  0.79664  0.15044  0.05451  1.0000
  S   S609      1.0  0.77189  0.30185  0.45250  1.0000
  H   H4803     1.0  0.78812  0.04266  0.17496  1.0000
  C   C2721     1.0  0.76304  0.23676  0.44267  1.0000
  H   H4804     1.0  0.76067  0.07152  0.18819  1.0000
  C   C2722     1.0  0.76474  0.10927  0.37391  1.0000
  H   H4805     1.0  0.74772  0.00970  0.28685  1.0000
  H   H4806     1.0  0.76588  0.06249  0.26380  1.0000
  H   H4807     1.0  0.76833  0.10030  0.36462  1.0000
  H   H4808     1.0  0.77139  0.04315  0.02140  1.0000
  H   H4809     1.0  0.89378  0.30963  0.08703  1.0000
  N   N148      1.0  0.76083  0.05255  0.17360  1.0000
  H   H4810     1.0  0.78245  0.20029  0.08196  1.0000
  H   H4811     1.0  0.77685  0.12916  0.05234  1.0000
  S   S610      1.0  0.76772  0.03961  0.08823  1.0000
  H   H4812     1.0  0.80814  0.06855  0.05310  1.0000
  H   H4813     1.0  0.88274  0.14722  0.46694  1.0000
  C   C2723     1.0  0.78921  0.10242  0.10376  1.0000
  H   H4814     1.0  0.75183  0.21606  0.47395  1.0000
  H   H4815     1.0  0.76442  0.12103  0.19845  1.0000
  H   H4816     1.0  0.77966  0.06919  0.14118  1.0000
  H   H4817     1.0  0.78657  0.16082  0.05993  1.0000
  C   C2724     1.0  0.76354  0.09610  0.23787  1.0000
  H   H4818     1.0  0.76475  0.28835  0.42591  1.0000
  H   H4819     1.0  0.78612  0.05436  0.39680  1.0000
  C   C2725     1.0  0.76311  0.07017  0.17447  1.0000
  H   H4820     1.0  0.77700  0.18041  0.02112  1.0000
  H   H4821     1.0  0.76649  0.99453  0.07262  1.0000
  H   H4822     1.0  0.79897  0.10833  0.04336  1.0000
  C   C2726     1.0  0.86773  0.00284  0.27895  1.0000
  H   H4823     1.0  0.75895  0.16215  0.32439  1.0000
  H   H4824     1.0  0.80284  0.30160  0.05435  1.0000
  H   H4825     1.0  0.75995  0.10721  0.05887  1.0000
  H   H4826     1.0  0.78751  0.12068  0.35969  1.0000
  C   C2727     1.0  0.77873  0.05562  0.14211  1.0000
  C   C2728     1.0  0.76009  0.22047  0.10845  1.0000
  H   H4827     1.0  0.75549  0.04455  0.38773  1.0000
  H   H4828     1.0  0.76136  0.20359  0.34340  1.0000
  C   C2729     1.0  0.79639  0.02121  0.39429  1.0000
  C   C2730     1.0  0.88021  0.19943  0.47429  1.0000
  Fe  Fe300     1.0  0.77398  0.12816  0.00418  1.0000
  H   H4829     1.0  0.80969  0.15321  0.05361  1.0000
  H   H4830     1.0  0.81257  0.27829  0.98395  1.0000
  N   N149      1.0  0.78068  0.02691  0.38578  1.0000
  C   C2731     1.0  0.87681  0.28796  0.07961  1.0000
  H   H4831     1.0  0.75468  0.04117  0.25178  1.0000
  C   C2732     1.0  0.75555  0.13727  0.35485  1.0000
  H   H4832     1.0  0.79646  0.09982  0.12840  1.0000
  C   C2733     1.0  0.77861  0.05360  0.12396  1.0000
  C   C2734     1.0  0.76023  0.27261  0.99525  1.0000
  H   H4833     1.0  0.75967  0.29606  0.01729  1.0000
  H   H4834     1.0  0.83683  0.99238  0.29517  1.0000
  C   C2735     1.0  0.86739  0.29141  0.09796  1.0000
  S   S611      1.0  0.78598  0.30554  0.08785  1.0000
  C   C2736     1.0  0.90029  0.99761  0.27118  1.0000
  H   H4835     1.0  0.76103  0.21069  0.10085  1.0000
  H   H4836     1.0  0.74838  0.15913  0.04178  1.0000
  C   C2737     1.0  0.82670  0.29651  0.98568  1.0000
  H   H4837     1.0  0.76215  0.21960  0.35493  1.0000
  H   H4838     1.0  0.77940  0.12696  0.17829  1.0000
  H   H4839     1.0  0.76783  0.20087  0.13046  1.0000
  H   H4840     1.0  0.77370  0.23845  0.11123  1.0000
  C   C2738     1.0  0.88605  0.30984  0.10041  1.0000
  C   C2739     1.0  0.75940  0.04124  0.01835  1.0000
  H   H4841     1.0  0.79553  0.29205  0.47689  1.0000
  C   C2740     1.0  0.78503  0.10583  0.12212  1.0000
  H   H4842     1.0  0.76753  0.00634  0.40136  1.0000
  H   H4843     1.0  0.88141  0.26834  0.06423  1.0000
  S   S612      1.0  0.76219  0.11144  0.99384  1.0000
  H   H4844     1.0  0.76188  0.06159  0.99526  1.0000
  C   C2741     1.0  0.76697  0.24481  0.07621  1.0000
  H   H4845     1.0  0.80470  0.03117  0.39015  1.0000
  C   C2742     1.0  0.80874  0.28471  0.47902  1.0000
  H   H4846     1.0  0.80259  0.09617  0.07384  1.0000
  H   H4847     1.0  0.76433  0.22247  0.44631  1.0000
  C   C2743     1.0  0.76073  0.06592  0.40880  1.0000
  H   H4848     1.0  0.79237  0.04636  0.36605  1.0000
  C   C2744     1.0  0.76637  0.10416  0.25004  1.0000
  H   H4849     1.0  0.77233  0.24069  0.44816  1.0000
  C   C2745     1.0  0.77088  0.25440  0.05708  1.0000
  H   H4850     1.0  0.86737  0.01977  0.18809  1.0000
  C   C2746     1.0  0.85037  0.29994  0.15181  1.0000
  C   C2747     1.0  0.87304  0.14139  0.46398  1.0000
  C   C2748     1.0  0.82621  0.12875  0.02025  1.0000
  H   H4851     1.0  0.88186  0.99544  0.24660  1.0000
  H   H4852     1.0  0.89512  0.99981  0.21525  1.0000
  C   C2749     1.0  0.79369  0.29980  0.99457  1.0000
  C   C2750     1.0  0.79036  0.09559  0.07032  1.0000
  H   H4853     1.0  0.85525  0.29035  0.16279  1.0000
  H   H4854     1.0  0.81194  0.04330  0.33715  1.0000
  H   H4855     1.0  0.79043  0.05726  0.11473  1.0000
  H   H4856     1.0  0.75823  0.25445  0.08380  1.0000
  C   C2751     1.0  0.79961  0.02310  0.35560  1.0000
  H   H4857     1.0  0.81756  0.01948  0.41738  1.0000
  C   C2752     1.0  0.80957  0.13391  0.46055  1.0000
  H   H4858     1.0  0.90669  0.01730  0.20558  1.0000
  H   H4859     1.0  0.78299  0.12949  0.19848  1.0000
  H   H4860     1.0  0.74891  0.30761  0.99996  1.0000
  C   C2753     1.0  0.79233  0.01663  0.41443  1.0000
  C   C2754     1.0  0.74704  0.25899  0.14326  1.0000
  H   H4861     1.0  0.91054  0.00535  0.23564  1.0000
  C   C2755     1.0  0.75523  0.31089  0.40763  1.0000
  H   H4862     1.0  0.77877  0.03991  0.12394  1.0000
  C   C2756     1.0  0.74606  0.03639  0.03532  1.0000
  H   H4863     1.0  0.75061  0.18985  0.46703  1.0000
  H   H4864     1.0  0.77222  0.06602  0.38190  1.0000
  H   H4865     1.0  0.75435  0.28286  0.37556  1.0000
  C   C2757     1.0  0.76674  0.03036  0.31782  1.0000
  C   C2758     1.0  0.78635  0.03512  0.36706  1.0000
  S   S613      1.0  0.76729  0.11026  0.42066  1.0000
  H   H4866     1.0  0.74695  0.20843  0.40909  1.0000
  H   H4867     1.0  0.81668  0.16566  0.46265  1.0000
  H   H4868     1.0  0.79391  0.01231  0.35479  1.0000
  H   H4869     1.0  0.77601  0.26010  0.34358  1.0000
  H   H4870     1.0  0.77607  0.26604  0.05622  1.0000
  C   C2759     1.0  0.74737  0.03984  0.29564  1.0000
  H   H4871     1.0  0.78171  0.24409  0.31162  1.0000
  H   H4872     1.0  0.89823  0.01378  0.15769  1.0000
  H   H4873     1.0  0.75330  0.10472  0.17954  1.0000
  H   H4874     1.0  0.76196  0.03747  0.15488  1.0000
  H   H4875     1.0  0.86100  0.26967  0.07965  1.0000
  H   H4876     1.0  0.86872  0.03179  0.16603  1.0000
  C   C2760     1.0  0.81227  0.13123  0.47933  1.0000
  H   H4877     1.0  0.76970  0.10307  0.16000  1.0000
  H   H4878     1.0  0.76778  0.25561  0.41844  1.0000
  C   C2761     1.0  0.75944  0.19474  0.37079  1.0000
  N   N150      1.0  0.77541  0.10971  0.07614  1.0000
  N   N151      1.0  0.75036  0.01821  0.04581  1.0000
  H   H4879     1.0  0.74496  0.19852  0.37371  1.0000
  H   H4880     1.0  0.75846  0.14164  0.39215  1.0000
  C   C2762     1.0  0.76051  0.02473  0.30418  1.0000
  C   C2763     1.0  0.80913  0.00966  0.42154  1.0000
  N   N152      1.0  0.77661  0.29748  0.99183  1.0000
  C   C2764     1.0  0.89055  0.18678  0.46512  1.0000
  H   H4881     1.0  0.77196  0.98643  0.32991  1.0000
  H   H4882     1.0  0.86241  0.28329  0.13378  1.0000
  H   H4883     1.0  0.76844  0.02610  0.05645  1.0000
  C   C2765     1.0  0.76213  0.05101  0.15521  1.0000
  H   H4884     1.0  0.76381  0.98674  0.37440  1.0000
  C   C2766     1.0  0.76136  0.30532  0.00458  1.0000
  H   H4885     1.0  0.78370  0.00025  0.38354  1.0000
  H   H4886     1.0  0.76293  0.01824  0.36321  1.0000
  Fe  Fe301     1.0  0.74853  0.09647  0.44150  1.0000
  H   H4887     1.0  0.90330  0.18028  0.46792  1.0000
  H   H4888     1.0  0.79875  0.15844  0.99662  1.0000
  H   H4889     1.0  0.80288  0.00096  0.05247  1.0000
  H   H4890     1.0  0.87128  0.29795  0.06927  1.0000
  C   C2767     1.0  0.85485  0.14776  0.47422  1.0000
  C   C2768     1.0  0.75426  0.26049  0.04962  1.0000
  H   H4891     1.0  0.74520  0.30669  0.12989  1.0000
  H   H4892     1.0  0.75116  0.18515  0.41477  1.0000
  C   C2769     1.0  0.87500  0.27032  0.07757  1.0000
  H   H4893     1.0  0.74873  0.26202  0.47034  1.0000
  H   H4894     1.0  0.76420  0.13115  0.34413  1.0000
  C   C2770     1.0  0.74641  0.07145  0.33886  1.0000
  H   H4895     1.0  0.77325  0.24714  0.98971  1.0000
  Fe  Fe302     1.0  0.81341  0.30877  0.08495  1.0000
  H   H4896     1.0  0.85353  0.99424  0.26405  1.0000
  H   H4897     1.0  0.74753  0.11403  0.15866  1.0000
  H   H4898     1.0  0.85368  0.28963  0.10007  1.0000
  C   C2771     1.0  0.75169  0.27321  0.11303  1.0000
  H   H4899     1.0  0.76392  0.09965  0.10290  1.0000
  N   N153      1.0  0.74930  0.12350  0.36973  1.0000
  H   H4900     1.0  0.75085  0.22980  0.38173  1.0000
  C   C2772     1.0  0.79300  0.99817  0.06453  1.0000
  H   H4901     1.0  0.74856  0.06903  0.01433  1.0000
  H   H4902     1.0  0.87580  0.29741  0.13535  1.0000
  H   H4903     1.0  0.74698  0.06929  0.40703  1.0000
  H   H4904     1.0  0.76591  0.12161  0.09873  1.0000
  H   H4905     1.0  0.76505  0.07785  0.40871  1.0000
  H   H4906     1.0  0.89253  0.29808  0.10865  1.0000
  H   H4907     1.0  0.76317  0.18079  0.37002  1.0000
  H   H4908     1.0  0.85142  0.16207  0.47005  1.0000
  H   H4909     1.0  0.75406  0.01358  0.31090  1.0000
  H   H4910     1.0  0.89099  0.28779  0.07735  1.0000
  C   C2773     1.0  0.76599  0.31203  0.43253  1.0000
  C   C2774     1.0  0.77722  0.27817  0.99551  1.0000
  H   H4911     1.0  0.75038  0.05900  0.15014  1.0000
  C   C2775     1.0  0.74477  0.24972  0.47816  1.0000
  H   H4912     1.0  0.75530  0.22138  0.13584  1.0000
  H   H4913     1.0  0.74472  0.15723  0.37886  1.0000
  H   H4914     1.0  0.74857  0.09111  0.31546  1.0000
  H   H4915     1.0  0.75228  0.18399  0.16754  1.0000
  H   H4916     1.0  0.91163  0.31305  0.11673  1.0000
  H   H4917     1.0  0.75607  0.15627  0.47831  1.0000
  C   C2776     1.0  0.74806  0.10167  0.23142  1.0000
  H   H4918     1.0  0.76156  0.05735  0.42166  1.0000
  H   H4919     1.0  0.74839  0.23081  0.10640  1.0000
  H   H4920     1.0  0.74781  0.99145  0.39359  1.0000
  H   H4921     1.0  0.75534  0.14983  0.16466  1.0000
  H   H4922     1.0  0.75408  0.17299  0.34247  1.0000
  H   H4923     1.0  0.75028  0.24908  0.99951  1.0000
  H   H4924     1.0  0.74981  0.02104  0.18765  1.0000
  H   H4925     1.0  0.75635  0.15192  0.20168  1.0000
  H   H4926     1.0  0.83691  0.29858  0.15210  1.0000
  C   C2777     1.0  0.74853  0.16661  0.33512  1.0000
  H   H4927     1.0  0.77823  0.99006  0.26995  1.0000
  H   H4928     1.0  0.77830  0.98782  0.05256  1.0000
  C   C2778     1.0  0.75010  0.00530  0.03536  1.0000
  H   H4929     1.0  0.75129  0.25480  0.15552  1.0000
  C   C2779     1.0  0.74777  0.15086  0.17800  1.0000
  H   H4930     1.0  0.84985  0.31318  0.15362  1.0000
  H   H4931     1.0  0.74464  0.04610  0.04333  1.0000
  H   H4932     1.0  0.74776  0.21599  0.16957  1.0000
  H   H4933     1.0  0.74692  0.02314  0.38205  1.0000
  Fe  Fe303     1.0  0.86355  0.22445  0.98102  1.0000
  H   H4934     1.0  0.74568  0.18012  0.19036  1.0000
  H   H4935     1.0  0.75690  0.27716  0.98221  1.0000
  C   C2780     1.0  0.74508  0.14577  0.38963  1.0000
  C   C2781     1.0  0.75449  0.08532  0.51257  1.0000
  H   H4936     1.0  0.79328  0.28526  0.85057  1.0000
  S   S614      1.0  0.81297  0.22356  0.95578  1.0000
  S   S615      1.0  0.94214  0.26028  0.63596  1.0000
  H   H4937     1.0  0.91291  0.30447  0.65293  1.0000
  S   S616      1.0  0.88819  0.23389  0.96549  1.0000
  C   C2782     1.0  0.94024  0.15706  0.85136  1.0000
  H   H4938     1.0  0.86201  0.30235  0.65911  1.0000
  Fe  Fe304     1.0  0.95456  0.14481  0.73096  1.0000
  S   S617      1.0  0.96623  0.16400  0.73754  1.0000
  S   S618      1.0  0.94147  0.15920  0.70852  1.0000
  Fe  Fe305     1.0  0.95836  0.15159  0.76529  1.0000
  S   S619      1.0  0.94301  0.16946  0.78373  1.0000
  C   C2783     1.0  0.86071  0.29319  0.67173  1.0000
  S   S620      1.0  0.94496  0.13352  0.75892  1.0000
  H   H4939     1.0  0.83887  0.29242  0.53895  1.0000
  H   H4940     1.0  0.81388  0.29319  0.48440  1.0000
  Fe  Fe306     1.0  0.85877  0.28821  0.77761  1.0000
  Fe  Fe307     1.0  0.94777  0.22327  0.87557  1.0000
  S   S621      1.0  0.94218  0.22885  0.84878  1.0000
  S   S622      1.0  0.92983  0.20769  0.89625  1.0000
  Fe  Fe308     1.0  0.97085  0.21934  0.84002  1.0000
  H   H4941     1.0  0.78311  0.24324  0.88054  1.0000
  Fe  Fe309     1.0  0.94937  0.25443  0.84626  1.0000
  S   S623      1.0  0.93350  0.27979  0.83523  1.0000
  S   S624      1.0  0.97618  0.21199  0.86693  1.0000
  S   S625      1.0  0.95287  0.24968  0.87368  1.0000
  C   C2784     1.0  0.74581  0.23298  0.63021  1.0000
  H   H4942     1.0  0.99392  0.22851  0.71369  1.0000
  S   S626      1.0  0.76927  0.12740  0.57613  1.0000
  H   H4943     1.0  0.79146  0.25177  0.82116  1.0000
  Fe  Fe310     1.0  0.77965  0.16974  0.54423  1.0000
  S   S627      1.0  0.80038  0.14616  0.54945  1.0000
  S   S628      1.0  0.78554  0.19380  0.52478  1.0000
  Fe  Fe311     1.0  0.78122  0.13097  0.54754  1.0000
  S   S629      1.0  0.78975  0.11311  0.52809  1.0000
  Fe  Fe312     1.0  0.78689  0.14462  0.57747  1.0000
  S   S630      1.0  0.80326  0.13878  0.59810  1.0000
  S   S631      1.0  0.76164  0.15478  0.54027  1.0000
  S   S632      1.0  0.76764  0.16948  0.57219  1.0000
  Fe  Fe313     1.0  0.85700  0.17865  0.67415  1.0000
  S   S633      1.0  0.82773  0.18647  0.68271  1.0000
  S   S634      1.0  0.87243  0.15395  0.68792  1.0000
  Fe  Fe314     1.0  0.85901  0.21113  0.64658  1.0000
  S   S635      1.0  0.83032  0.22164  0.65309  1.0000
  S   S636      1.0  0.87627  0.22693  0.62605  1.0000
  Fe  Fe315     1.0  0.83312  0.21284  0.68092  1.0000
  S   S637      1.0  0.82035  0.23014  0.70076  1.0000
  Fe  Fe316     1.0  0.82750  0.19450  0.65404  1.0000
  S   S638      1.0  0.80627  0.19426  0.64007  1.0000
  S   S639      1.0  0.86219  0.20445  0.67414  1.0000
  S   S640      1.0  0.85637  0.18460  0.64564  1.0000
  Fe  Fe317     1.0  0.85252  0.23896  0.53417  1.0000
  S   S641      1.0  0.82737  0.23397  0.55234  1.0000
  H   H4944     1.0  0.82758  0.11982  0.57070  1.0000
  S   S642      1.0  0.86657  0.25921  0.53529  1.0000
  Fe  Fe318     1.0  0.96059  0.23467  0.63633  1.0000
  S   S643      1.0  0.94995  0.21037  0.64630  1.0000
  H   H4945     1.0  0.80440  0.25774  0.48908  1.0000
  C   C2785     1.0  0.87537  0.27661  0.67175  1.0000
  S   S644      1.0  0.87255  0.26353  0.72267  1.0000
  H   H4946     1.0  0.88237  0.23253  0.88123  1.0000
  H   H4947     1.0  0.80462  0.27294  0.77499  1.0000
  C   C2786     1.0  0.90799  0.22543  0.67941  1.0000
  H   H4948     1.0  0.78051  0.23961  0.49859  1.0000
  C   C2787     1.0  0.91874  0.24482  0.56068  1.0000
  C   C2788     1.0  0.90941  0.26149  0.56254  1.0000
  C   C2789     1.0  0.91524  0.27130  0.57128  1.0000
  H   H4949     1.0  0.90292  0.22626  0.69315  1.0000
  H   H4950     1.0  0.90816  0.28431  0.57231  1.0000
  C   C2790     1.0  0.89746  0.22136  0.63015  1.0000
  C   C2791     1.0  0.90212  0.20668  0.64259  1.0000
  C   C2792     1.0  0.91865  0.20285  0.64687  1.0000
  C   C2793     1.0  0.93037  0.21394  0.63905  1.0000
  C   C2794     1.0  0.92598  0.22826  0.62603  1.0000
  C   C2795     1.0  0.90955  0.23194  0.62154  1.0000
  H   H4951     1.0  0.89306  0.19814  0.64881  1.0000
  H   H4952     1.0  0.92212  0.19157  0.65661  1.0000
  H   H4953     1.0  0.93519  0.23655  0.61936  1.0000
  H   H4954     1.0  0.90615  0.24312  0.61159  1.0000
  C   C2796     1.0  0.85683  0.25381  0.71916  1.0000
  C   C2797     1.0  0.83882  0.26060  0.72223  1.0000
  C   C2798     1.0  0.82747  0.25304  0.71701  1.0000
  C   C2799     1.0  0.83414  0.23879  0.70872  1.0000
  C   C2800     1.0  0.85200  0.23184  0.70636  1.0000
  C   C2801     1.0  0.86319  0.23931  0.71149  1.0000
  H   H4955     1.0  0.83374  0.27191  0.72805  1.0000
  H   H4956     1.0  0.81360  0.25852  0.71895  1.0000
  H   H4957     1.0  0.85728  0.22073  0.70045  1.0000
  H   H4958     1.0  0.87699  0.23404  0.70919  1.0000
  C   C2802     1.0  0.80427  0.15452  0.60932  1.0000
  C   C2803     1.0  0.79374  0.17113  0.60716  1.0000
  C   C2804     1.0  0.79458  0.18313  0.61662  1.0000
  C   C2805     1.0  0.80623  0.17882  0.62806  1.0000
  C   C2806     1.0  0.81706  0.16235  0.62993  1.0000
  C   C2807     1.0  0.81595  0.15021  0.62072  1.0000
  H   H4959     1.0  0.78466  0.17464  0.59850  1.0000
  H   H4960     1.0  0.78613  0.19579  0.61509  1.0000
  H   H4961     1.0  0.82597  0.15883  0.63879  1.0000
  H   H4962     1.0  0.82410  0.13737  0.62254  1.0000
  C   C2808     1.0  0.79644  0.20559  0.53253  1.0000
  C   C2809     1.0  0.79567  0.20339  0.55030  1.0000
  C   C2810     1.0  0.80481  0.21252  0.55629  1.0000
  C   C2811     1.0  0.81519  0.22352  0.54453  1.0000
  C   C2812     1.0  0.81578  0.22590  0.52676  1.0000
  C   C2813     1.0  0.80629  0.21709  0.52077  1.0000
  H   H4963     1.0  0.78803  0.19470  0.55951  1.0000
  H   H4964     1.0  0.80403  0.21082  0.57007  1.0000
  H   H4965     1.0  0.82349  0.23454  0.51763  1.0000
  H   H4966     1.0  0.80703  0.21878  0.50701  1.0000
  C   C2814     1.0  0.77539  0.10304  0.52244  1.0000
  C   C2815     1.0  0.77789  0.10143  0.50516  1.0000
  H   H4967     1.0  0.92474  0.26758  0.52409  1.0000
  H   H4968     1.0  0.76751  0.25686  0.95095  1.0000
  H   H4969     1.0  0.98939  0.17509  0.70225  1.0000
  C   C2816     1.0  0.76243  0.09561  0.53487  1.0000
  H   H4970     1.0  0.78821  0.10658  0.49561  1.0000
  S   S645      1.0  0.85327  0.20311  0.97642  1.0000
  H   H4971     1.0  0.75050  0.22934  0.94528  1.0000
  C   C2817     1.0  0.98249  0.28832  0.77896  1.0000
  H   H4972     1.0  0.87205  0.26816  0.68468  1.0000
  C   C2818     1.0  0.91906  0.29317  0.78890  1.0000
  H   H4973     1.0  0.84801  0.11811  0.50039  1.0000
  H   H4974     1.0  0.86196  0.30137  0.84766  1.0000
  H   H4975     1.0  0.94541  0.20426  0.74899  1.0000
  C   C2819     1.0  0.98204  0.16653  0.86940  1.0000
  H   H4976     1.0  0.93516  0.30605  0.64286  1.0000
  H   H4977     1.0  0.92770  0.30301  0.71332  1.0000
  S   S646      1.0  0.91292  0.23229  0.54865  1.0000
  H   H4978     1.0  0.90437  0.14731  0.91342  1.0000
  H   H4979     1.0  0.90246  0.15656  0.65594  1.0000
  C   C2820     1.0  0.76075  0.23802  0.48556  1.0000
  H   H4980     1.0  0.87422  0.29552  0.62889  1.0000
  H   H4981     1.0  0.77186  0.23027  0.59587  1.0000
  H   H4982     1.0  0.80654  0.28637  0.94537  1.0000
  Fe  Fe319     1.0  0.89098  0.23850  0.53342  1.0000
  H   H4983     1.0  0.95714  0.22608  0.72250  1.0000
  H   H4984     1.0  0.92237  0.22062  0.67765  1.0000
  H   H4985     1.0  0.83857  0.11435  0.58878  1.0000
  Fe  Fe320     1.0  0.95596  0.26633  0.60816  1.0000
  C   C2821     1.0  0.93910  0.24746  0.57739  1.0000
  C   C2822     1.0  0.93018  0.26437  0.57873  1.0000
  H   H4986     1.0  0.90620  0.25303  0.67417  1.0000
  C   C2823     1.0  0.97274  0.27732  0.72561  1.0000
  H   H4987     1.0  0.74883  0.19565  0.59220  1.0000
  H   H4988     1.0  0.80494  0.19177  0.93493  1.0000
  H   H4989     1.0  0.80293  0.31093  0.86097  1.0000
  H   H4990     1.0  0.91581  0.17724  0.63169  1.0000
  C   C2824     1.0  0.78681  0.25333  0.61013  1.0000
  N   N154      1.0  0.76902  0.25031  0.61032  1.0000
  H   H4991     1.0  0.79105  0.26324  0.59876  1.0000
  C   C2825     1.0  0.93351  0.23786  0.56829  1.0000
  H   H4992     1.0  0.84186  0.29559  0.55915  1.0000
  C   C2826     1.0  0.92147  0.15774  0.70450  1.0000
  C   C2827     1.0  0.91381  0.17121  0.69250  1.0000
  C   C2828     1.0  0.89869  0.17022  0.68759  1.0000
  C   C2829     1.0  0.89098  0.15574  0.69468  1.0000
  C   C2830     1.0  0.89842  0.14235  0.70702  1.0000
  C   C2831     1.0  0.91359  0.14339  0.71203  1.0000
  H   H4993     1.0  0.91982  0.18237  0.68675  1.0000
  H   H4994     1.0  0.89334  0.18043  0.67791  1.0000
  H   H4995     1.0  0.89254  0.13108  0.71255  1.0000
  H   H4996     1.0  0.91946  0.13289  0.72126  1.0000
  C   C2832     1.0  0.95446  0.17786  0.79453  1.0000
  C   C2833     1.0  0.97224  0.17135  0.79441  1.0000
  H   H4997     1.0  0.79682  0.19375  0.48486  1.0000
  C   C2834     1.0  0.97213  0.19134  0.81238  1.0000
  C   C2835     1.0  0.95439  0.19804  0.81232  1.0000
  C   C2836     1.0  0.94553  0.19117  0.80358  1.0000
  C   C2837     1.0  0.87063  0.30291  0.53232  1.0000
  C   C2838     1.0  0.82373  0.13847  0.50114  1.0000
  H   H4998     1.0  0.94756  0.20865  0.81879  1.0000
  H   H4999     1.0  0.93179  0.19636  0.80359  1.0000
  H   H5000     1.0  0.94093  0.22508  0.56682  1.0000
  H   H5001     1.0  0.87648  0.24285  0.67633  1.0000
  S   S647      1.0  0.87634  0.21777  0.53481  1.0000
  H   H5002     1.0  0.87003  0.19724  0.93600  1.0000
  C   C2839     1.0  0.89948  0.22660  0.94618  1.0000
  C   C2840     1.0  0.89768  0.21107  0.94301  1.0000
  C   C2841     1.0  0.90703  0.20546  0.92764  1.0000
  C   C2842     1.0  0.91826  0.21531  0.91531  1.0000
  C   C2843     1.0  0.91998  0.23091  0.91840  1.0000
  C   C2844     1.0  0.91069  0.23648  0.93382  1.0000
  H   H5003     1.0  0.88935  0.20321  0.95260  1.0000
  H   H5004     1.0  0.90574  0.19331  0.92542  1.0000
  H   H5005     1.0  0.92866  0.23857  0.90904  1.0000
  H   H5006     1.0  0.91226  0.24843  0.93625  1.0000
  C   C2845     1.0  0.81536  0.30512  0.80430  1.0000
  N   N155      1.0  0.76225  0.20544  0.97391  1.0000
  H   H5007     1.0  0.86599  0.18796  0.91980  1.0000
  C   C2846     1.0  0.94572  0.21284  0.75754  1.0000
  H   H5008     1.0  0.92034  0.13933  0.64975  1.0000
  H   H5009     1.0  0.86978  0.29167  0.81184  1.0000
  N   N156      1.0  0.76306  0.25975  0.82741  1.0000
  H   H5010     1.0  0.76709  0.23906  0.63779  1.0000
  C   C2847     1.0  0.98420  0.30667  0.79943  1.0000
  C   C2848     1.0  0.90401  0.24335  0.66788  1.0000
  S   S648      1.0  0.88902  0.20351  0.49039  1.0000
  Fe  Fe321     1.0  0.77257  0.30107  0.90100  1.0000
  H   H5011     1.0  0.92275  0.18117  0.56692  1.0000
  C   C2849     1.0  0.95546  0.15520  0.66142  1.0000
  C   C2850     1.0  0.98102  0.17801  0.80338  1.0000
  C   C2851     1.0  0.77853  0.19476  0.96469  1.0000
  C   C2852     1.0  0.96634  0.17147  0.86058  1.0000
  H   H5012     1.0  0.96384  0.18573  0.85599  1.0000
  C   C2853     1.0  0.96584  0.30965  0.84758  1.0000
  N   N157      1.0  0.82307  0.14261  0.48211  1.0000
  H   H5013     1.0  0.96575  0.29258  0.83114  1.0000
  H   H5014     1.0  0.93152  0.23623  0.74415  1.0000
  C   C2854     1.0  0.93911  0.26539  0.78976  1.0000
  S   S649      1.0  0.74712  0.29524  0.91713  1.0000
  S   S650      1.0  0.88930  0.29903  0.73306  1.0000
  C   C2855     1.0  0.97014  0.31185  0.64986  1.0000
  S   S651      1.0  0.97428  0.08719  0.77007  1.0000
  H   H5015     1.0  0.88778  0.28020  0.67191  1.0000
  H   H5016     1.0  0.77373  0.22841  0.94064  1.0000
  H   H5017     1.0  0.82409  0.31648  0.83271  1.0000
  H   H5018     1.0  0.75463  0.24813  0.59203  1.0000
  H   H5019     1.0  0.94596  0.25446  0.78376  1.0000
  H   H5020     1.0  0.93860  0.19147  0.84768  1.0000
  H   H5021     1.0  0.92379  0.16895  0.90234  1.0000
  H   H5022     1.0  0.95798  0.20807  0.76265  1.0000
  Fe  Fe322     1.0  0.76042  0.30908  0.86737  1.0000
  C   C2856     1.0  0.92655  0.14855  0.84789  1.0000
  H   H5023     1.0  0.94585  0.13093  0.83283  1.0000
  H   H5024     1.0  0.97014  0.16532  0.84910  1.0000
  C   C2857     1.0  0.81569  0.28250  0.83008  1.0000
  H   H5025     1.0  0.75639  0.15574  0.50043  1.0000
  C   C2858     1.0  0.80663  0.26853  0.49375  1.0000
  H   H5026     1.0  0.83053  0.27777  0.89525  1.0000
  C   C2859     1.0  0.77783  0.19050  0.94734  1.0000
  C   C2860     1.0  0.79600  0.18246  0.93828  1.0000
  C   C2861     1.0  0.76963  0.24842  0.49274  1.0000
  H   H5027     1.0  0.76291  0.13595  0.49217  1.0000
  H   H5028     1.0  0.90076  0.28814  0.60683  1.0000
  H   H5029     1.0  0.91505  0.18573  0.83781  1.0000
  H   H5030     1.0  0.75021  0.21568  0.55480  1.0000
  H   H5031     1.0  0.95372  0.15257  0.88050  1.0000
  H   H5032     1.0  0.85776  0.29452  0.69877  1.0000
  H   H5033     1.0  0.79508  0.17913  0.92616  1.0000
  N   N158      1.0  0.88518  0.31299  0.52510  1.0000
  H   H5034     1.0  0.76603  0.23345  0.87896  1.0000
  H   H5035     1.0  0.98347  0.05511  0.79230  1.0000
  H   H5036     1.0  0.83372  0.30837  0.86293  1.0000
  H   H5037     1.0  0.90388  0.29233  0.53681  1.0000
  C   C2862     1.0  0.76118  0.23276  0.94925  1.0000
  C   C2863     1.0  0.90232  0.30002  0.52369  1.0000
  H   H5038     1.0  0.87363  0.26787  0.83779  1.0000
  H   H5039     1.0  0.84828  0.29445  0.83781  1.0000
  H   H5040     1.0  0.99172  0.27473  0.74156  1.0000
  H   H5041     1.0  0.96940  0.28452  0.75033  1.0000
  H   H5042     1.0  0.92673  0.31308  0.67221  1.0000
  H   H5043     1.0  0.99403  0.20383  0.70260  1.0000
  H   H5044     1.0  0.98001  0.25028  0.73781  1.0000
  H   H5045     1.0  0.92562  0.14643  0.88507  1.0000
  C   C2864     1.0  0.86079  0.30274  0.68568  1.0000
  C   C2865     1.0  0.85118  0.30349  0.49196  1.0000
  H   H5046     1.0  0.94666  0.16536  0.54832  1.0000
  S   S652      1.0  0.77385  0.28451  0.88242  1.0000
  C   C2866     1.0  0.79947  0.27835  0.92530  1.0000
  H   H5047     1.0  0.97180  0.22575  0.73557  1.0000
  H   H5048     1.0  0.92341  0.13782  0.85894  1.0000
  H   H5049     1.0  0.91896  0.15769  0.59278  1.0000
  H   H5050     1.0  0.97518  0.19823  0.71825  1.0000
  H   H5051     1.0  0.91600  0.21647  0.83501  1.0000
  C   C2867     1.0  0.97531  0.17040  0.66962  1.0000
  H   H5052     1.0  0.95705  0.17412  0.59826  1.0000
  C   C2868     1.0  0.79935  0.29100  0.83785  1.0000
  C   C2869     1.0  0.79074  0.30648  0.82891  1.0000
  C   C2870     1.0  0.85809  0.30285  0.83507  1.0000
  C   C2871     1.0  0.97182  0.16311  0.65514  1.0000
  H   H5053     1.0  0.97251  0.23115  0.76753  1.0000
  H   H5054     1.0  0.79368  0.28279  0.51445  1.0000
  H   H5055     1.0  0.95255  0.31768  0.84730  1.0000
  C   C2872     1.0  0.83554  0.11793  0.52680  1.0000
  C   C2873     1.0  0.75549  0.26660  0.61281  1.0000
  H   H5056     1.0  0.81030  0.13917  0.50921  1.0000
  H   H5057     1.0  0.82884  0.14849  0.50444  1.0000
  H   H5058     1.0  0.78611  0.25751  0.84946  1.0000
  H   H5059     1.0  0.77392  0.27664  0.79217  1.0000
  C   C2874     1.0  0.96693  0.30398  0.68099  1.0000
  H   H5060     1.0  0.76457  0.26392  0.86197  1.0000
  H   H5061     1.0  0.81843  0.11733  0.48292  1.0000
  S   S653      1.0  0.97382  0.24027  0.60854  1.0000
  H   H5062     1.0  0.83755  0.28458  0.51015  1.0000
  Fe  Fe323     1.0  0.86850  0.31693  0.74770  1.0000
  H   H5063     1.0  0.89389  0.21341  0.83897  1.0000
  H   H5064     1.0  0.90885  0.16033  0.87482  1.0000
  C   C2875     1.0  0.78436  0.26650  0.79742  1.0000
  H   H5065     1.0  0.91443  0.30452  0.81133  1.0000
  H   H5066     1.0  0.74916  0.21332  0.65361  1.0000
  H   H5067     1.0  0.96292  0.29298  0.80122  1.0000
  H   H5068     1.0  0.85580  0.14482  0.48804  1.0000
  H   H5069     1.0  0.85083  0.27632  0.91087  1.0000
  C   C2876     1.0  0.85161  0.26309  0.91914  1.0000
  H   H5070     1.0  0.87372  0.30613  0.68387  1.0000
  H   H5071     1.0  0.77317  0.23441  0.84165  1.0000
  H   H5072     1.0  0.77531  0.19046  0.48580  1.0000
  H   H5073     1.0  0.82253  0.11720  0.53532  1.0000
  H   H5074     1.0  0.84464  0.10558  0.53068  1.0000
  H   H5075     1.0  0.84037  0.12881  0.52870  1.0000
  H   H5076     1.0  0.93992  0.15672  0.59632  1.0000
  H   H5077     1.0  0.77264  0.20214  0.93823  1.0000
  Fe  Fe324     1.0  0.99047  0.14346  0.73714  1.0000
  N   N159      1.0  0.88385  0.19555  0.74572  1.0000
  C   C2877     1.0  0.89887  0.19722  0.73038  1.0000
  C   C2878     1.0  0.86773  0.19423  0.74009  1.0000
  C   C2879     1.0  0.87950  0.21191  0.75298  1.0000
  C   C2880     1.0  0.88870  0.18037  0.75985  1.0000
  C   C2881     1.0  0.89446  0.16236  0.75483  1.0000
  C   C2882     1.0  0.91650  0.19810  0.73423  1.0000
  C   C2883     1.0  0.86262  0.21409  0.76728  1.0000
  C   C2884     1.0  0.87042  0.18551  0.72442  1.0000
  C   C2885     1.0  0.85295  0.18306  0.72221  1.0000
  C   C2886     1.0  0.89948  0.14829  0.77018  1.0000
  C   C2887     1.0  0.92934  0.20334  0.71743  1.0000
  C   C2888     1.0  0.85908  0.23158  0.77262  1.0000
  H   H5078     1.0  0.89500  0.20888  0.72055  1.0000
  H   H5079     1.0  0.90198  0.18615  0.72371  1.0000
  H   H5080     1.0  0.85892  0.18755  0.75121  1.0000
  H   H5081     1.0  0.85987  0.20739  0.73609  1.0000
  H   H5082     1.0  0.87820  0.22358  0.74233  1.0000
  H   H5083     1.0  0.89020  0.21273  0.75888  1.0000
  H   H5084     1.0  0.89931  0.18241  0.76521  1.0000
  H   H5085     1.0  0.87746  0.17933  0.77096  1.0000
  H   H5086     1.0  0.90591  0.16194  0.74390  1.0000
  H   H5087     1.0  0.88352  0.15893  0.75130  1.0000
  H   H5088     1.0  0.91502  0.20769  0.74229  1.0000
  H   H5089     1.0  0.92253  0.18517  0.74108  1.0000
  H   H5090     1.0  0.86393  0.20385  0.77907  1.0000
  H   H5091     1.0  0.85087  0.21356  0.76283  1.0000
  H   H5092     1.0  0.87607  0.19386  0.71228  1.0000
  H   H5093     1.0  0.87934  0.17269  0.72574  1.0000
  H   H5094     1.0  0.84344  0.19561  0.72085  1.0000
  H   H5095     1.0  0.85494  0.17787  0.71036  1.0000
  H   H5096     1.0  0.84737  0.17371  0.73346  1.0000
  H   H5097     1.0  0.91003  0.15123  0.77486  1.0000
  H   H5098     1.0  0.88798  0.14728  0.78101  1.0000
  H   H5099     1.0  0.90425  0.13557  0.76612  1.0000
  H   H5100     1.0  0.93046  0.19517  0.70799  1.0000
  H   H5101     1.0  0.92492  0.21708  0.71142  1.0000
  H   H5102     1.0  0.94247  0.20175  0.72024  1.0000
  H   H5103     1.0  0.85738  0.24239  0.76130  1.0000
  H   H5104     1.0  0.84691  0.23298  0.78269  1.0000
  H   H5105     1.0  0.87004  0.23252  0.77809  1.0000
  C   C2889     1.0  0.76477  0.23621  0.62592  1.0000
  C   C2890     1.0  0.80164  0.23689  0.61071  1.0000
  H   H5106     1.0  0.88872  0.27858  0.84247  1.0000
  C   C2891     1.0  0.81977  0.24140  0.60407  1.0000
  H   H5107     1.0  0.96284  0.20345  0.58402  1.0000
  C   C2892     1.0  0.96446  0.29505  0.86357  1.0000
  H   H5108     1.0  0.95117  0.14601  0.85436  1.0000
  H   H5109     1.0  0.77381  0.22363  0.62426  1.0000
  H   H5110     1.0  0.80096  0.22983  0.62437  1.0000
  H   H5111     1.0  0.80033  0.22792  0.60304  1.0000
  C   C2893     1.0  0.79880  0.31353  0.81207  1.0000
  H   H5112     1.0  0.82154  0.24754  0.59007  1.0000
  H   H5113     1.0  0.82165  0.25028  0.61154  1.0000
  H   H5114     1.0  0.82992  0.22935  0.60570  1.0000
  H   H5115     1.0  0.94386  0.16518  0.66527  1.0000
  C   C2894     1.0  0.97349  0.30229  0.83080  1.0000
  H   H5116     1.0  0.93362  0.28295  0.50570  1.0000
  H   H5117     1.0  0.91363  0.30658  0.51899  1.0000
  S   S654      1.0  0.98403  0.13265  0.76568  1.0000
  H   H5118     1.0  0.74755  0.19516  0.50711  1.0000
  N   N160      1.0  0.85124  0.16245  0.55939  1.0000
  C   C2895     1.0  0.84184  0.17830  0.56702  1.0000
  C   C2896     1.0  0.84822  0.16459  0.54119  1.0000
  C   C2897     1.0  0.84342  0.14729  0.57057  1.0000
  C   C2898     1.0  0.87053  0.15823  0.55942  1.0000
  C   C2899     1.0  0.88049  0.17308  0.55051  1.0000
  C   C2900     1.0  0.84465  0.17821  0.58527  1.0000
  C   C2901     1.0  0.85172  0.12948  0.56521  1.0000
  C   C2902     1.0  0.84541  0.18320  0.53004  1.0000
  C   C2903     1.0  0.84432  0.18306  0.51159  1.0000
  C   C2904     1.0  0.89946  0.16786  0.55275  1.0000
  C   C2905     1.0  0.83613  0.19559  0.59071  1.0000
  C   C2906     1.0  0.84054  0.11593  0.57449  1.0000
  H   H5119     1.0  0.82749  0.18023  0.56784  1.0000
  H   H5120     1.0  0.84569  0.19030  0.55851  1.0000
  H   H5121     1.0  0.85914  0.15646  0.53353  1.0000
  H   H5122     1.0  0.83628  0.15978  0.54160  1.0000
  H   H5123     1.0  0.82913  0.15007  0.57072  1.0000
  H   H5124     1.0  0.84449  0.14531  0.58431  1.0000
  H   H5125     1.0  0.87277  0.15347  0.57293  1.0000
  H   H5126     1.0  0.87727  0.14729  0.55270  1.0000
  H   H5127     1.0  0.87447  0.18473  0.55620  1.0000
  H   H5128     1.0  0.88073  0.17633  0.53639  1.0000
  H   H5129     1.0  0.83874  0.16814  0.59523  1.0000
  H   H5130     1.0  0.85871  0.17584  0.58560  1.0000
  H   H5131     1.0  0.86477  0.12451  0.56875  1.0000
  H   H5132     1.0  0.85342  0.13046  0.55109  1.0000
  H   H5133     1.0  0.83285  0.19079  0.53584  1.0000
  H   H5134     1.0  0.85591  0.19007  0.52924  1.0000
  H   H5135     1.0  0.84175  0.19662  0.50424  1.0000
  H   H5136     1.0  0.85685  0.17608  0.50483  1.0000
  H   H5137     1.0  0.83343  0.17689  0.51173  1.0000
  H   H5138     1.0  0.90627  0.17875  0.54598  1.0000
  H   H5139     1.0  0.90002  0.16498  0.56672  1.0000
  H   H5140     1.0  0.90635  0.15632  0.54702  1.0000
  H   H5141     1.0  0.82185  0.19848  0.59117  1.0000
  H   H5142     1.0  0.83816  0.19506  0.60386  1.0000
  H   H5143     1.0  0.84197  0.20627  0.58154  1.0000
  H   H5144     1.0  0.84713  0.10323  0.57089  1.0000
  S   S655      1.0  0.93780  0.27755  0.58867  1.0000
  H   H5145     1.0  0.84811  0.20076  0.93231  1.0000
  H   H5146     1.0  0.98245  0.29678  0.73250  1.0000
  C   C2907     1.0  0.86217  0.19946  0.92595  1.0000
  H   H5147     1.0  0.87945  0.21372  0.90629  1.0000
  H   H5148     1.0  0.89747  0.31005  0.60977  1.0000
  S   S656      1.0  0.79484  0.29940  0.91344  1.0000
  H   H5149     1.0  0.90468  0.24599  0.85830  1.0000
  C   C2908     1.0  0.86528  0.21568  0.91218  1.0000
  H   H5150     1.0  0.85778  0.21651  0.90224  1.0000
  C   C2909     1.0  0.76832  0.24466  0.59418  1.0000
  H   H5151     1.0  0.79402  0.24411  0.57675  1.0000
  C   C2910     1.0  0.96824  0.25916  0.73352  1.0000
  Fe  Fe325     1.0  0.87011  0.28123  0.74098  1.0000
  C   C2911     1.0  0.77799  0.23839  0.87158  1.0000
  C   C2912     1.0  0.85526  0.27820  0.94147  1.0000
  H   H5152     1.0  0.96969  0.24354  0.69731  1.0000
  H   H5153     1.0  0.93216  0.24249  0.71464  1.0000
  H   H5154     1.0  0.95065  0.24197  0.58290  1.0000
  H   H5155     1.0  0.97923  0.27597  0.77855  1.0000
  H   H5156     1.0  0.92483  0.26597  0.50241  1.0000
  H   H5157     1.0  0.88770  0.16259  0.90291  1.0000
  H   H5158     1.0  0.80116  0.23652  0.92376  1.0000
  H   H5159     1.0  0.92380  0.13445  0.82960  1.0000
  H   H5160     1.0  0.84764  0.28981  0.67458  1.0000
  C   C2913     1.0  0.95944  0.23323  0.73141  1.0000
  C   C2914     1.0  0.96103  0.19922  0.59833  1.0000
  C   C2915     1.0  0.83872  0.30229  0.54628  1.0000
  H   H5161     1.0  0.94922  0.25482  0.81317  1.0000
  C   C2916     1.0  0.97400  0.25066  0.70496  1.0000
  H   H5162     1.0  0.88077  0.31560  0.49935  1.0000
  C   C2917     1.0  0.93178  0.27960  0.81427  1.0000
  C   C2918     1.0  0.85978  0.23197  0.92041  1.0000
  H   H5163     1.0  0.86941  0.23021  0.92866  1.0000
  C   C2919     1.0  0.80697  0.24468  0.94455  1.0000
  H   H5164     1.0  0.89779  0.26682  0.55711  1.0000
  C   C2920     1.0  0.92118  0.29355  0.80537  1.0000
  H   H5165     1.0  0.88679  0.24521  0.90548  1.0000
  H   H5166     1.0  0.96340  0.29524  0.69301  1.0000
  C   C2921     1.0  0.87656  0.25202  0.89770  1.0000
  C   C2922     1.0  0.88252  0.24637  0.87993  1.0000
  H   H5167     1.0  0.84693  0.23136  0.92955  1.0000
  C   C2923     1.0  0.94454  0.23167  0.74777  1.0000
  H   H5168     1.0  0.97398  0.26388  0.69678  1.0000
  H   H5169     1.0  0.86112  0.25081  0.94333  1.0000
  H   H5170     1.0  0.97433  0.31773  0.84921  1.0000
  H   H5171     1.0  0.98683  0.29447  0.83165  1.0000
  H   H5172     1.0  0.89800  0.13741  0.65214  1.0000
  C   C2924     1.0  0.94090  0.26558  0.80641  1.0000
  C   C2925     1.0  0.90712  0.14658  0.64777  1.0000
  H   H5173     1.0  0.91055  0.24087  0.87928  1.0000
  H   H5174     1.0  0.89387  0.27049  0.82274  1.0000
  Fe  Fe326     1.0  0.74693  0.28118  0.89678  1.0000
  H   H5175     1.0  0.94506  0.23941  0.75698  1.0000
  H   H5176     1.0  0.95953  0.30060  0.87546  1.0000
  N   N161      1.0  0.96146  0.25140  0.72211  1.0000
  C   C2926     1.0  0.83971  0.26944  0.88652  1.0000
  C   C2927     1.0  0.75534  0.25122  0.81739  1.0000
  C   C2928     1.0  0.78045  0.25162  0.57703  1.0000
  C   C2929     1.0  0.84562  0.25104  0.89711  1.0000
  C   C2930     1.0  0.77379  0.25312  0.85640  1.0000
  C   C2931     1.0  0.80183  0.24743  0.92875  1.0000
  H   H5177     1.0  0.89378  0.16146  0.62755  1.0000
  H   H5178     1.0  0.83355  0.24682  0.90540  1.0000
  H   H5179     1.0  0.94257  0.25481  0.69488  1.0000
  H   H5180     1.0  0.84613  0.26169  0.67778  1.0000
  C   C2932     1.0  0.90744  0.15510  0.62869  1.0000
  C   C2933     1.0  0.90102  0.24923  0.87137  1.0000
  H   H5181     1.0  0.76917  0.09213  0.48670  1.0000
  H   H5182     1.0  0.74784  0.28824  0.55596  1.0000
  N   N162      1.0  0.85869  0.24942  0.90815  1.0000
  H   H5183     1.0  0.78089  0.26542  0.57541  1.0000
  H   H5184     1.0  0.93301  0.16078  0.62432  1.0000
  H   H5185     1.0  0.77022  0.28645  0.59624  1.0000
  C   C2934     1.0  0.91981  0.16831  0.62246  1.0000
  Fe  Fe327     1.0  0.88027  0.22487  0.50579  1.0000
  S   S657      1.0  0.87118  0.28900  0.48816  1.0000
  H   H5186     1.0  0.77317  0.23643  0.56225  1.0000
  C   C2935     1.0  0.92790  0.27900  0.78117  1.0000
  H   H5187     1.0  0.91080  0.30393  0.78207  1.0000
  C   C2936     1.0  0.93475  0.25553  0.70809  1.0000
  H   H5188     1.0  0.87013  0.29518  0.52303  1.0000
  H   H5189     1.0  0.90403  0.29388  0.49829  1.0000
  H   H5190     1.0  0.89399  0.19085  0.61477  1.0000
  H   H5191     1.0  0.92468  0.20134  0.61003  1.0000
  H   H5192     1.0  0.74588  0.31201  0.53027  1.0000
  S   S658      1.0  0.97766  0.24567  0.83473  1.0000
  H   H5193     1.0  0.78622  0.25894  0.62150  1.0000
  C   C2937     1.0  0.94421  0.26247  0.71858  1.0000
  C   C2938     1.0  0.88524  0.24783  0.66419  1.0000
  H   H5194     1.0  0.98289  0.15308  0.65058  1.0000
  H   H5195     1.0  0.98000  0.20279  0.67014  1.0000
  C   C2939     1.0  0.77458  0.24990  0.56122  1.0000
  H   H5196     1.0  0.97410  0.19418  0.60180  1.0000
  C   C2940     1.0  0.96581  0.30027  0.66544  1.0000
  H   H5197     1.0  0.88731  0.30098  0.64112  1.0000
  H   H5198     1.0  0.90210  0.21591  0.67628  1.0000
  C   C2941     1.0  0.84770  0.25887  0.66478  1.0000
  H   H5199     1.0  0.75245  0.20472  0.63428  1.0000
  H   H5200     1.0  0.91356  0.24324  0.65545  1.0000
  H   H5201     1.0  0.96085  0.28689  0.72288  1.0000
  N   N163      1.0  0.87824  0.26678  0.65741  1.0000
  H   H5202     1.0  0.82477  0.28197  0.86627  1.0000
  C   C2942     1.0  0.94321  0.15946  0.56231  1.0000
  H   H5203     1.0  0.87876  0.22275  0.57680  1.0000
  H   H5204     1.0  0.95696  0.14433  0.67273  1.0000
  H   H5205     1.0  0.82499  0.27880  0.65901  1.0000
  H   H5206     1.0  0.85161  0.24458  0.66587  1.0000
  H   H5207     1.0  0.85059  0.24211  0.88789  1.0000
  H   H5208     1.0  0.83104  0.26189  0.64642  1.0000
  H   H5209     1.0  0.90421  0.27198  0.64586  1.0000
  H   H5210     1.0  0.88396  0.30229  0.81705  1.0000
  C   C2943     1.0  0.75367  0.14863  0.49172  1.0000
  H   H5211     1.0  0.78503  0.25437  0.79310  1.0000
  C   C2944     1.0  0.98064  0.20158  0.70417  1.0000
  C   C2945     1.0  0.88711  0.29228  0.63266  1.0000
  H   H5212     1.0  0.94578  0.16508  0.83884  1.0000
  H   H5213     1.0  0.96782  0.18445  0.69796  1.0000
  S   S659      1.0  0.97970  0.12507  0.72848  1.0000
  H   H5214     1.0  0.78988  0.20107  0.96229  1.0000
  C   C2946     1.0  0.80171  0.27234  0.78920  1.0000
  C   C2947     1.0  0.89919  0.16127  0.90867  1.0000
  S   S660      1.0  0.84817  0.30037  0.75329  1.0000
  C   C2948     1.0  0.82996  0.26470  0.65938  1.0000
  H   H5215     1.0  0.93507  0.26475  0.73087  1.0000
  C   C2949     1.0  0.82373  0.28948  0.81331  1.0000
  H   H5216     1.0  0.75780  0.29582  0.80840  1.0000
  C   C2950     1.0  0.90183  0.18734  0.60226  1.0000
  H   H5217     1.0  0.88520  0.23986  0.65494  1.0000
  C   C2951     1.0  0.80477  0.27557  0.94099  1.0000
  H   H5218     1.0  0.89511  0.17825  0.59944  1.0000
  C   C2952     1.0  0.88042  0.20991  0.58576  1.0000
  H   H5219     1.0  0.93444  0.15037  0.56380  1.0000
  H   H5220     1.0  0.85547  0.28151  0.64685  1.0000
  C   C2953     1.0  0.86173  0.26787  0.65132  1.0000
  C   C2954     1.0  0.89165  0.27313  0.64199  1.0000
  C   C2955     1.0  0.92320  0.27521  0.51097  1.0000
  H   H5221     1.0  0.97230  0.21354  0.69823  1.0000
  C   C2956     1.0  0.90508  0.28701  0.51173  1.0000
  C   C2957     1.0  0.93364  0.14079  0.83161  1.0000
  H   H5222     1.0  0.78443  0.25341  0.54940  1.0000
  H   H5223     1.0  0.87093  0.21103  0.59816  1.0000
  H   H5224     1.0  0.75643  0.22756  0.49633  1.0000
  Fe  Fe328     1.0  0.96309  0.26917  0.64312  1.0000
  S   S661      1.0  0.92486  0.27797  0.76092  1.0000
  H   H5225     1.0  0.94604  0.27551  0.71101  1.0000
  H   H5226     1.0  0.97917  0.16109  0.78750  1.0000
  H   H5227     1.0  0.99192  0.24822  0.76984  1.0000
  H   H5228     1.0  0.96381  0.18112  0.67196  1.0000
  H   H5229     1.0  0.87753  0.20033  0.57981  1.0000
  C   C2958     1.0  0.89918  0.20457  0.58877  1.0000
  H   H5230     1.0  0.82147  0.31055  0.79128  1.0000
  H   H5231     1.0  0.81106  0.25681  0.96342  1.0000
  H   H5232     1.0  0.81266  0.26322  0.79474  1.0000
  H   H5233     1.0  0.91054  0.26227  0.69865  1.0000
  C   C2959     1.0  0.86222  0.26245  0.93288  1.0000
  C   C2960     1.0  0.93132  0.19202  0.60141  1.0000
  Fe  Fe329     1.0  0.98086  0.23904  0.86231  1.0000
  C   C2961     1.0  0.91181  0.19095  0.84985  1.0000
  H   H5234     1.0  0.90187  0.21521  0.59342  1.0000
  C   C2962     1.0  0.83441  0.12024  0.50787  1.0000
  H   H5235     1.0  0.95846  0.26059  0.74565  1.0000
  C   C2963     1.0  0.91719  0.26750  0.70602  1.0000
  H   H5236     1.0  0.77497  0.25852  0.48221  1.0000
  H   H5237     1.0  0.87627  0.26213  0.92701  1.0000
  H   H5238     1.0  0.84121  0.27891  0.94768  1.0000
  H   H5239     1.0  0.75413  0.25933  0.80442  1.0000
  H   H5240     1.0  0.90984  0.31646  0.54521  1.0000
  C   C2964     1.0  0.92943  0.31542  0.71534  1.0000
  C   C2965     1.0  0.78098  0.26307  0.81754  1.0000
  N   N164      1.0  0.92043  0.17857  0.60410  1.0000
  H   H5241     1.0  0.87390  0.25418  0.87088  1.0000
  H   H5242     1.0  0.76025  0.25479  0.50291  1.0000
  S   S662      1.0  0.87931  0.26796  0.76565  1.0000
  C   C2966     1.0  0.85179  0.31385  0.53627  1.0000
  C   C2967     1.0  0.74614  0.29053  0.81611  1.0000
  H   H5243     1.0  0.90867  0.26827  0.71895  1.0000
  H   H5244     1.0  0.74785  0.24114  0.53305  1.0000
  C   C2968     1.0  0.75233  0.08642  0.52999  1.0000
  H   H5245     1.0  0.77893  0.27765  0.50384  1.0000
  H   H5246     1.0  0.82036  0.25758  0.66890  1.0000
  H   H5247     1.0  0.80155  0.17040  0.94680  1.0000
  H   H5248     1.0  0.85685  0.29035  0.93180  1.0000
  S   S663      1.0  0.89715  0.24365  0.50423  1.0000
  H   H5249     1.0  0.78397  0.27415  0.82123  1.0000
  H   H5250     1.0  0.90799  0.20364  0.57615  1.0000
  C   C2969     1.0  0.98132  0.18672  0.69559  1.0000
  H   H5251     1.0  0.90217  0.21655  0.85635  1.0000
  H   H5252     1.0  0.93219  0.20014  0.58817  1.0000
  S   S664      1.0  0.95758  0.28179  0.66636  1.0000
  H   H5253     1.0  0.95543  0.15210  0.56675  1.0000
  C   C2970     1.0  0.76718  0.09309  0.50012  1.0000
  H   H5254     1.0  0.76190  0.25885  0.55999  1.0000
  H   H5255     1.0  0.87739  0.26597  0.89486  1.0000
  H   H5256     1.0  0.78730  0.16105  0.48027  1.0000
  Fe  Fe330     1.0  0.89670  0.28713  0.75876  1.0000
  H   H5257     1.0  0.82205  0.27035  0.83703  1.0000
  C   C2971     1.0  0.98906  0.19117  0.67589  1.0000
  H   H5258     1.0  0.86488  0.26182  0.63970  1.0000
  C   C2972     1.0  0.80789  0.25879  0.95092  1.0000
  H   H5259     1.0  0.80944  0.30573  0.51532  1.0000
  H   H5260     1.0  0.92576  0.19450  0.86799  1.0000
  N   N165      1.0  0.99225  0.17679  0.66609  1.0000
  H   H5261     1.0  0.74600  0.20300  0.95725  1.0000
  H   H5262     1.0  0.91190  0.14470  0.62105  1.0000
  H   H5263     1.0  0.79386  0.26636  0.90708  1.0000
  H   H5264     1.0  0.95520  0.28722  0.86304  1.0000
  H   H5265     1.0  0.83897  0.26162  0.86295  1.0000
  C   C2973     1.0  0.92044  0.16033  0.87981  1.0000
  H   H5266     1.0  0.90186  0.26300  0.86981  1.0000
  H   H5267     1.0  0.94705  0.31283  0.81575  1.0000
  H   H5268     1.0  0.76436  0.23886  0.81487  1.0000
  H   H5269     1.0  0.91905  0.28071  0.69889  1.0000
  H   H5270     1.0  0.89459  0.26476  0.63222  1.0000
  C   C2974     1.0  0.75734  0.28290  0.59830  1.0000
  H   H5271     1.0  0.97746  0.28649  0.86444  1.0000
  C   C2975     1.0  0.82068  0.30988  0.50627  1.0000
  C   C2976     1.0  0.87408  0.29413  0.82276  1.0000
  H   H5272     1.0  0.83803  0.26222  0.92611  1.0000
  S   S665      1.0  0.98019  0.24256  0.64642  1.0000
  C   C2977     1.0  0.83001  0.26868  0.87287  1.0000
  C   C2978     1.0  0.95016  0.18507  0.60483  1.0000
  H   H5273     1.0  0.87319  0.29340  0.54440  1.0000
  H   H5274     1.0  0.93449  0.21190  0.76868  1.0000
  S   S666      1.0  0.85562  0.24484  0.50523  1.0000
  S   S667      1.0  0.97541  0.27810  0.61524  1.0000
  Fe  Fe331     1.0  0.82834  0.22271  0.97552  1.0000
  H   H5275     1.0  0.85101  0.27576  0.87995  1.0000
  Fe  Fe332     1.0  0.87188  0.26309  0.50621  1.0000
  H   H5276     1.0  0.80085  0.28550  0.79133  1.0000
  H   H5277     1.0  0.75553  0.28068  0.58602  1.0000
  C   C2979     1.0  0.79778  0.26432  0.91927  1.0000
  H   H5278     1.0  0.93638  0.15111  0.82004  1.0000
  Fe  Fe333     1.0  0.97143  0.11544  0.75706  1.0000
  H   H5279     1.0  0.74569  0.18740  0.97667  1.0000
  H   H5280     1.0  0.79019  0.26092  0.51868  1.0000
  H   H5281     1.0  0.79921  0.13267  0.48819  1.0000
  H   H5282     1.0  0.85064  0.31485  0.68501  1.0000
  C   C2980     1.0  0.79141  0.27282  0.50855  1.0000
  S   S668      1.0  0.84412  0.27801  0.80429  1.0000
  H   H5283     1.0  0.82531  0.31034  0.54828  1.0000
  H   H5284     1.0  0.96932  0.30914  0.63776  1.0000
  C   C2981     1.0  0.93417  0.17376  0.57258  1.0000
  C   C2982     1.0  0.92813  0.18650  0.85807  1.0000
  C   C2983     1.0  0.90067  0.29618  0.61609  1.0000
  H   H5285     1.0  0.82821  0.10981  0.50705  1.0000
  H   H5286     1.0  0.94361  0.18229  0.57049  1.0000
  S   S669      1.0  0.76977  0.31684  0.83832  1.0000
  H   H5287     1.0  0.75530  0.26994  0.62535  1.0000
  H   H5288     1.0  0.90072  0.18571  0.85892  1.0000
  H   H5289     1.0  0.89486  0.16774  0.91998  1.0000
  H   H5290     1.0  0.94976  0.18063  0.61898  1.0000
  C   C2984     1.0  0.76530  0.24721  0.84429  1.0000
  C   C2985     1.0  0.97956  0.28364  0.73832  1.0000
  C   C2986     1.0  0.92833  0.16596  0.59203  1.0000
  H   H5291     1.0  0.89543  0.27844  0.51661  1.0000
  S   S670      1.0  0.87723  0.30625  0.77300  1.0000
  H   H5292     1.0  0.97099  0.22972  0.79032  1.0000
  C   C2987     1.0  0.91334  0.16969  0.89541  1.0000
  C   C2988     1.0  0.94985  0.16612  0.87340  1.0000
  H   H5293     1.0  0.90745  0.18353  0.89111  1.0000
  H   H5294     1.0  0.86270  0.27699  0.95165  1.0000
  H   H5295     1.0  0.94652  0.17452  0.88313  1.0000
  H   H5296     1.0  0.97413  0.16043  0.68185  1.0000
  S   S671      1.0  0.83921  0.24456  0.97796  1.0000
  N   N166      1.0  0.93429  0.16761  0.86552  1.0000
  H   H5297     1.0  0.91395  0.29346  0.61902  1.0000
  C   C2989     1.0  0.75121  0.27635  0.83167  1.0000
  H   H5298     1.0  0.81878  0.26211  0.87905  1.0000
  H   H5299     1.0  0.76931  0.18090  0.94988  1.0000
  H   H5300     1.0  0.91422  0.15790  0.84617  1.0000
  H   H5301     1.0  0.95456  0.21061  0.60440  1.0000
  C   C2990     1.0  0.90564  0.21056  0.84477  1.0000
  H   H5302     1.0  0.79304  0.16365  0.49939  1.0000
  H   H5303     1.0  0.78803  0.22757  0.86685  1.0000
  C   C2991     1.0  0.88305  0.27669  0.83212  1.0000
  C   C2992     1.0  0.83659  0.29797  0.50343  1.0000
  C   C2993     1.0  0.75782  0.25254  0.94626  1.0000
  C   C2994     1.0  0.79551  0.16721  0.48503  1.0000
  H   H5304     1.0  0.76063  0.09637  0.54832  1.0000
  H   H5305     1.0  0.95317  0.15020  0.65086  1.0000
  H   H5306     1.0  0.98656  0.19483  0.64279  1.0000
  C   C2995     1.0  0.92199  0.31364  0.64738  1.0000
  Fe  Fe334     1.0  0.75104  0.15276  0.56879  1.0000
  H   H5307     1.0  0.75248  0.24467  0.85226  1.0000
  C   C2996     1.0  0.76243  0.22452  0.96831  1.0000
  H   H5308     1.0  0.77474  0.22712  0.96999  1.0000
  H   H5309     1.0  0.81869  0.26384  0.49920  1.0000
  H   H5310     1.0  0.98280  0.27916  0.80618  1.0000
  H   H5311     1.0  0.78321  0.29651  0.96468  1.0000
  Fe  Fe335     1.0  0.99178  0.25099  0.61846  1.0000
  C   C2997     1.0  0.97732  0.29116  0.79754  1.0000
  N   N167      1.0  0.97372  0.31553  0.81405  1.0000
  H   H5312     1.0  0.80979  0.29849  0.96845  1.0000
  H   H5313     1.0  0.78221  0.18184  0.97311  1.0000
  H   H5314     1.0  0.74727  0.18910  0.53853  1.0000
  H   H5315     1.0  0.83857  0.29083  0.97696  1.0000
  S   S672      1.0  0.74698  0.14597  0.95144  1.0000
  C   C2998     1.0  0.74662  0.20999  0.58972  1.0000
  H   H5316     1.0  0.75903  0.21414  0.58264  1.0000
  H   H5317     1.0  0.96955  0.17375  0.64382  1.0000
  H   H5318     1.0  0.76091  0.30407  0.97214  1.0000
  C   C2999     1.0  0.74599  0.20134  0.97119  1.0000
  C   C3000     1.0  0.77410  0.30477  0.97344  1.0000
  S   S673      1.0  0.98386  0.19956  0.82304  1.0000
  H   H5319     1.0  0.98581  0.15221  0.87330  1.0000
  C   C3001     1.0  0.97975  0.22620  0.77825  1.0000
  H   H5320     1.0  0.98283  0.27733  0.71351  1.0000
  H   H5321     1.0  0.99332  0.17142  0.86021  1.0000
  H   H5322     1.0  0.97503  0.29906  0.77057  1.0000
  H   H5323     1.0  0.97897  0.17240  0.88104  1.0000
  H   H5324     1.0  0.94287  0.31382  0.71742  1.0000
  H   H5325     1.0  0.98539  0.31623  0.78697  1.0000
  H   H5326     1.0  0.98350  0.21187  0.77994  1.0000
  H   H5327     1.0  0.75902  0.25798  0.93216  1.0000
  H   H5328     1.0  0.75176  0.23195  0.97686  1.0000
  H   H5329     1.0  0.84567  0.31538  0.80595  1.0000
  H   H5330     1.0  0.75748  0.28260  0.83856  1.0000
  C   C3002     1.0  0.99317  0.24187  0.70598  1.0000
  H   H5331     1.0  0.74467  0.30995  0.59204  1.0000
  C   C3003     1.0  0.74452  0.21501  0.64142  1.0000
  C   C3004     1.0  0.99446  0.07224  0.76966  1.0000
  H   H5332     1.0  0.82235  0.16969  0.48071  1.0000
  C   C3005     1.0  0.78937  0.18684  0.47997  1.0000
  Fe  Fe336     1.0  0.77559  0.58027  0.14155  1.0000
  S   S674      1.0  0.76143  0.58070  0.16916  1.0000
  S   S675      1.0  0.76015  0.57221  0.12575  1.0000
  Fe  Fe337     1.0  0.80476  0.59639  0.14626  1.0000
  S   S676      1.0  0.79275  0.59733  0.17403  1.0000
  Fe  Fe338     1.0  0.78799  0.57101  0.17562  1.0000
  S   S677      1.0  0.79329  0.54892  0.19761  1.0000
  H   H5333     1.0  0.77157  0.44866  0.23542  1.0000
  S   S678      1.0  0.80207  0.56883  0.14847  1.0000
  C   C3006     1.0  0.75824  0.37803  0.03438  1.0000
  H   H5334     1.0  0.83426  0.47264  0.22851  1.0000
  C   C3007     1.0  0.77120  0.41048  0.24280  1.0000
  H   H5335     1.0  0.80140  0.63361  0.14771  1.0000
  H   H5336     1.0  0.75023  0.45261  0.03299  1.0000
  C   C3008     1.0  0.85662  0.63331  0.22511  1.0000
  H   H5337     1.0  0.85251  0.59546  0.17194  1.0000
  H   H5338     1.0  0.77747  0.40333  0.98392  1.0000
  H   H5339     1.0  0.76849  0.49046  0.20307  1.0000
  Fe  Fe339     1.0  0.96517  0.62014  0.25642  1.0000
  S   S679      1.0  0.94825  0.59942  0.26736  1.0000
  C   C3009     1.0  0.76425  0.48207  0.29081  1.0000
  H   H5340     1.0  0.89349  0.33307  0.47176  1.0000
  Fe  Fe340     1.0  0.78995  0.44721  0.36074  1.0000
  S   S680      1.0  0.81130  0.45311  0.33751  1.0000
  S   S681      1.0  0.79592  0.42019  0.37723  1.0000
  H   H5341     1.0  0.93863  0.60068  0.16424  1.0000
  H   H5342     1.0  0.83077  0.47670  0.24965  1.0000
  H   H5343     1.0  0.84608  0.56258  0.16962  1.0000
  H   H5344     1.0  0.75162  0.55447  0.25926  1.0000
  H   H5345     1.0  0.83850  0.36651  0.08041  1.0000
  Fe  Fe341     1.0  0.80486  0.47979  0.34331  1.0000
  S   S682      1.0  0.82316  0.49770  0.34009  1.0000
  H   H5346     1.0  0.84059  0.32324  0.42898  1.0000
  S   S683      1.0  0.78523  0.47334  0.36780  1.0000
  Fe  Fe342     1.0  0.86498  0.54547  0.23935  1.0000
  S   S684      1.0  0.88463  0.54710  0.21443  1.0000
  S   S685      1.0  0.83987  0.56520  0.24101  1.0000
  Fe  Fe343     1.0  0.88672  0.51261  0.25614  1.0000
  S   S686      1.0  0.90770  0.51147  0.23216  1.0000
  S   S687      1.0  0.88902  0.49082  0.27911  1.0000
  Fe  Fe344     1.0  0.90470  0.54004  0.23133  1.0000
  S   S688      1.0  0.92892  0.55197  0.22554  1.0000
  Fe  Fe345     1.0  0.88530  0.51856  0.21818  1.0000
  S   S689      1.0  0.88147  0.50933  0.19548  1.0000
  S   S690      1.0  0.88471  0.54068  0.25602  1.0000
  S   S691      1.0  0.86468  0.51740  0.24240  1.0000
  H   H5347     1.0  0.83615  0.64059  0.20148  1.0000
  S   S692      1.0  0.78191  0.34438  0.46016  1.0000
  H   H5348     1.0  0.86537  0.62525  0.23395  1.0000
  C   C3010     1.0  0.75608  0.33863  0.41298  1.0000
  C   C3011     1.0  0.76318  0.33012  0.42762  1.0000
  H   H5349     1.0  0.74677  0.42115  0.32199  1.0000
  C   C3012     1.0  0.86443  0.46884  0.24681  1.0000
  H   H5350     1.0  0.77779  0.41043  0.25288  1.0000
  H   H5351     1.0  0.76414  0.48992  0.14601  1.0000
  Fe  Fe346     1.0  0.84257  0.43491  0.18057  1.0000
  S   S693      1.0  0.81732  0.44076  0.19924  1.0000
  S   S694      1.0  0.86788  0.44064  0.18312  1.0000
  Fe  Fe347     1.0  0.82688  0.41727  0.16019  1.0000
  S   S695      1.0  0.80046  0.42181  0.17748  1.0000
  S   S696      1.0  0.82974  0.40697  0.13572  1.0000
  Fe  Fe348     1.0  0.80495  0.44818  0.17597  1.0000
  S   S697      1.0  0.78380  0.47194  0.17214  1.0000
  Fe  Fe349     1.0  0.81490  0.41390  0.19925  1.0000
  S   S698      1.0  0.80363  0.39856  0.22473  1.0000
  S   S699      1.0  0.83047  0.44467  0.15692  1.0000
  S   S700      1.0  0.84123  0.40705  0.18232  1.0000
  H   H5352     1.0  0.88616  0.47983  0.24731  1.0000
  C   C3013     1.0  0.82458  0.38677  0.13654  1.0000
  C   C3014     1.0  0.82533  0.37345  0.15119  1.0000
  C   C3015     1.0  0.82231  0.35715  0.15107  1.0000
  C   C3016     1.0  0.81812  0.35409  0.13649  1.0000
  C   C3017     1.0  0.81691  0.36755  0.12195  1.0000
  C   C3018     1.0  0.82034  0.38376  0.12192  1.0000
  H   H5353     1.0  0.82863  0.37557  0.16250  1.0000
  H   H5354     1.0  0.76613  0.60548  0.25097  1.0000
  H   H5355     1.0  0.81363  0.36539  0.11067  1.0000
  H   H5356     1.0  0.81978  0.39397  0.11050  1.0000
  H   H5357     1.0  0.75095  0.50213  0.32025  1.0000
  C   C3019     1.0  0.78086  0.40518  0.22752  1.0000
  H   H5358     1.0  0.77495  0.57240  0.27069  1.0000
  C   C3020     1.0  0.80386  0.63975  0.20096  1.0000
  H   H5359     1.0  0.77956  0.40056  0.20298  1.0000
  H   H5360     1.0  0.77669  0.62837  0.22650  1.0000
  C   C3021     1.0  0.85003  0.34057  0.09241  1.0000
  H   H5361     1.0  0.82135  0.52895  0.26347  1.0000
  S   S701      1.0  0.78517  0.49013  0.32635  1.0000
  H   H5362     1.0  0.83714  0.50245  0.28092  1.0000
  C   C3022     1.0  0.75793  0.45358  0.17641  1.0000
  C   C3023     1.0  0.88888  0.32608  0.10515  1.0000
  C   C3024     1.0  0.83753  0.44408  0.26719  1.0000
  H   H5363     1.0  0.88597  0.58362  0.20408  1.0000
  H   H5364     1.0  0.77300  0.37242  0.17391  1.0000
  C   C3025     1.0  0.91543  0.64352  0.34962  1.0000
  C   C3026     1.0  0.87714  0.48863  0.19704  1.0000
  C   C3027     1.0  0.85991  0.48645  0.19906  1.0000
  C   C3028     1.0  0.85671  0.47159  0.19528  1.0000
  C   C3029     1.0  0.87073  0.45879  0.18964  1.0000
  C   C3030     1.0  0.88783  0.46057  0.18858  1.0000
  C   C3031     1.0  0.89102  0.47546  0.19203  1.0000
  H   H5365     1.0  0.84906  0.49665  0.20271  1.0000
  H   H5366     1.0  0.84346  0.47022  0.19631  1.0000
  H   H5367     1.0  0.89876  0.45073  0.18427  1.0000
  H   H5368     1.0  0.90434  0.47714  0.18996  1.0000
  H   H5369     1.0  0.84946  0.31829  0.08351  1.0000
  C   C3032     1.0  0.78220  0.41165  0.39650  1.0000
  C   C3033     1.0  0.78825  0.39511  0.40592  1.0000
  C   C3034     1.0  0.77752  0.38747  0.42091  1.0000
  S   S702      1.0  0.76882  0.45518  0.34521  1.0000
  H   H5370     1.0  0.75137  0.40239  0.35593  1.0000
  H   H5371     1.0  0.80008  0.63411  0.23785  1.0000
  H   H5372     1.0  0.80135  0.38817  0.40164  1.0000
  H   H5373     1.0  0.78233  0.37473  0.42803  1.0000
  C   C3035     1.0  0.75400  0.41059  0.21687  1.0000
  H   H5374     1.0  0.78283  0.52367  0.23436  1.0000
  C   C3036     1.0  0.84097  0.49573  0.32266  1.0000
  C   C3037     1.0  0.84850  0.47970  0.31791  1.0000
  C   C3038     1.0  0.86333  0.47821  0.30452  1.0000
  C   C3039     1.0  0.87018  0.49290  0.29541  1.0000
  C   C3040     1.0  0.86229  0.50905  0.29976  1.0000
  C   C3041     1.0  0.84799  0.51036  0.31368  1.0000
  H   H5375     1.0  0.84329  0.46832  0.32497  1.0000
  H   H5376     1.0  0.86944  0.46570  0.30119  1.0000
  H   H5377     1.0  0.86746  0.52043  0.29273  1.0000
  H   H5378     1.0  0.84236  0.52270  0.31754  1.0000
  C   C3042     1.0  0.94252  0.58713  0.25502  1.0000
  C   C3043     1.0  0.95339  0.58312  0.23959  1.0000
  C   C3044     1.0  0.94913  0.57216  0.23094  1.0000
  C   C3045     1.0  0.93372  0.56549  0.23724  1.0000
  C   C3046     1.0  0.92264  0.56979  0.25247  1.0000
  C   C3047     1.0  0.92716  0.58032  0.26142  1.0000
  H   H5379     1.0  0.96534  0.58807  0.23458  1.0000
  H   H5380     1.0  0.95794  0.56878  0.21932  1.0000
  H   H5381     1.0  0.91066  0.56496  0.25739  1.0000
  H   H5382     1.0  0.91866  0.58331  0.27335  1.0000
  H   H5383     1.0  0.89303  0.57572  0.23331  1.0000
  C   C3048     1.0  0.74955  0.38944  0.38309  1.0000
  C   C3049     1.0  0.76971  0.35936  0.24229  1.0000
  H   H5384     1.0  0.88494  0.64860  0.10769  1.0000
  H   H5385     1.0  0.91457  0.62297  0.15212  1.0000
  C   C3050     1.0  0.84633  0.35431  0.07638  1.0000
  H   H5386     1.0  0.78983  0.54376  0.26119  1.0000
  N   N168      1.0  0.91575  0.59455  0.18353  1.0000
  C   C3051     1.0  0.91977  0.64906  0.18939  1.0000
  C   C3052     1.0  0.84011  0.43725  0.23825  1.0000
  C   C3053     1.0  0.78816  0.53702  0.32132  1.0000
  H   H5387     1.0  0.83096  0.54007  0.28164  1.0000
  Fe  Fe350     1.0  0.78979  0.46298  0.32256  1.0000
  H   H5388     1.0  0.85613  0.41944  0.30247  1.0000
  C   C3054     1.0  0.85181  0.41895  0.24118  1.0000
  C   C3055     1.0  0.96116  0.60551  0.18129  1.0000
  C   C3056     1.0  0.82097  0.54824  0.28997  1.0000
  N   N169      1.0  0.81458  0.62725  0.21333  1.0000
  H   H5389     1.0  0.92287  0.62791  0.21125  1.0000
  C   C3057     1.0  0.92047  0.57540  0.18339  1.0000
  C   C3058     1.0  0.76610  0.51540  0.22218  1.0000
  C   C3059     1.0  0.80626  0.55387  0.20930  1.0000
  C   C3060     1.0  0.79985  0.56745  0.21835  1.0000
  C   C3061     1.0  0.81006  0.57063  0.22844  1.0000
  C   C3062     1.0  0.82701  0.56094  0.22867  1.0000
  C   C3063     1.0  0.83359  0.54783  0.21907  1.0000
  C   C3064     1.0  0.82307  0.54397  0.20981  1.0000
  H   H5390     1.0  0.78689  0.57524  0.21782  1.0000
  H   H5391     1.0  0.80491  0.58058  0.23605  1.0000
  H   H5392     1.0  0.84683  0.54066  0.21861  1.0000
  H   H5393     1.0  0.82810  0.53349  0.20283  1.0000
  C   C3065     1.0  0.76822  0.56152  0.27262  1.0000
  C   C3066     1.0  0.75308  0.46423  0.27172  1.0000
  H   H5394     1.0  0.85356  0.41404  0.21555  1.0000
  S   S703      1.0  0.90084  0.64447  0.18633  1.0000
  S   S704      1.0  0.83004  0.60642  0.13664  1.0000
  S   S705      1.0  0.75762  0.35349  0.08527  1.0000
  H   H5395     1.0  0.74829  0.42159  0.12933  1.0000
  H   H5396     1.0  0.92326  0.46074  0.33649  1.0000
  H   H5397     1.0  0.83684  0.41700  0.29670  1.0000
  H   H5398     1.0  0.91633  0.58732  0.21089  1.0000
  C   C3067     1.0  0.88403  0.46805  0.24426  1.0000
  H   H5399     1.0  0.74965  0.37019  0.12525  1.0000
  C   C3068     1.0  0.77224  0.40522  0.21456  1.0000
  H   H5400     1.0  0.87966  0.60593  0.20539  1.0000
  C   C3069     1.0  0.96803  0.62374  0.31957  1.0000
  Fe  Fe351     1.0  0.76762  0.60702  0.16462  1.0000
  C   C3070     1.0  0.75691  0.47445  0.22687  1.0000
  C   C3071     1.0  0.93254  0.55052  0.16750  1.0000
  C   C3072     1.0  0.92800  0.63886  0.20284  1.0000
  H   H5401     1.0  0.87048  0.44148  0.24599  1.0000
  C   C3073     1.0  0.88496  0.58860  0.22903  1.0000
  C   C3074     1.0  0.76378  0.52491  0.10254  1.0000
  N   N170      1.0  0.79231  0.54006  0.28788  1.0000
  H   H5402     1.0  0.78948  0.55164  0.10521  1.0000
  H   H5403     1.0  0.87098  0.58772  0.23382  1.0000
  H   H5404     1.0  0.84236  0.44264  0.22400  1.0000
  S   S706      1.0  0.81491  0.33314  0.13707  1.0000
  H   H5405     1.0  0.76985  0.37006  0.03961  1.0000
  H   H5406     1.0  0.75658  0.34467  0.26526  1.0000
  H   H5407     1.0  0.77371  0.38360  0.00882  1.0000
  H   H5408     1.0  0.78587  0.38901  0.09861  1.0000
  C   C3075     1.0  0.85956  0.32277  0.08756  1.0000
  S   S707      1.0  0.77676  0.32204  0.12324  1.0000
  H   H5409     1.0  0.77406  0.37774  0.12735  1.0000
  C   C3076     1.0  0.84520  0.42631  0.29572  1.0000
  H   H5410     1.0  0.80616  0.51672  0.26222  1.0000
  H   H5411     1.0  0.93837  0.57595  0.15792  1.0000
  H   H5412     1.0  0.82322  0.34684  0.16240  1.0000
  H   H5413     1.0  0.76482  0.39412  0.07035  1.0000
  C   C3077     1.0  0.77820  0.54574  0.10799  1.0000
  C   C3078     1.0  0.90008  0.63972  0.36445  1.0000
  H   H5414     1.0  0.75062  0.34550  0.35044  1.0000
  H   H5415     1.0  0.74958  0.38497  0.04451  1.0000
  C   C3079     1.0  0.76280  0.55249  0.11871  1.0000
  H   H5416     1.0  0.92770  0.61693  0.17635  1.0000
  S   S708      1.0  0.95028  0.64771  0.25067  1.0000
  C   C3080     1.0  0.82947  0.62591  0.14295  1.0000
  C   C3081     1.0  0.89418  0.61731  0.14320  1.0000
  C   C3082     1.0  0.94237  0.64339  0.20607  1.0000
  C   C3083     1.0  0.79877  0.48389  0.24602  1.0000
  C   C3084     1.0  0.78626  0.61729  0.23198  1.0000
  C   C3085     1.0  0.84946  0.40805  0.22941  1.0000
  H   H5417     1.0  0.74818  0.43228  0.29972  1.0000
  C   C3086     1.0  0.76061  0.39635  0.42662  1.0000
  H   H5418     1.0  0.83079  0.62121  0.17900  1.0000
  S   S709      1.0  0.77972  0.60778  0.13653  1.0000
  C   C3087     1.0  0.75454  0.41291  0.41721  1.0000
  H   H5419     1.0  0.86158  0.44171  0.27651  1.0000
  H   H5420     1.0  0.80710  0.55805  0.26914  1.0000
  H   H5421     1.0  0.79568  0.56546  0.28835  1.0000
  H   H5422     1.0  0.75079  0.37728  0.15601  1.0000
  H   H5423     1.0  0.83558  0.62059  0.23949  1.0000
  S   S710      1.0  0.80593  0.33618  0.08931  1.0000
  H   H5424     1.0  0.79439  0.63339  0.19819  1.0000
  C   C3088     1.0  0.77650  0.39470  0.07492  1.0000
  C   C3089     1.0  0.93176  0.60264  0.17744  1.0000
  H   H5425     1.0  0.75794  0.45989  0.01015  1.0000
  C   C3090     1.0  0.82801  0.50140  0.27320  1.0000
  H   H5426     1.0  0.79436  0.54793  0.32084  1.0000
  H   H5427     1.0  0.77512  0.39906  0.12814  1.0000
  N   N171      1.0  0.84531  0.51767  0.15442  1.0000
  C   C3091     1.0  0.83210  0.50663  0.16446  1.0000
  C   C3092     1.0  0.86300  0.50596  0.15058  1.0000
  C   C3093     1.0  0.84669  0.52902  0.16600  1.0000
  C   C3094     1.0  0.84027  0.52918  0.13794  1.0000
  C   C3095     1.0  0.82901  0.52264  0.12893  1.0000
  C   C3096     1.0  0.81439  0.51655  0.17318  1.0000
  C   C3097     1.0  0.86110  0.54003  0.15883  1.0000
  C   C3098     1.0  0.86429  0.49179  0.14040  1.0000
  C   C3099     1.0  0.88238  0.47992  0.13894  1.0000
  C   C3100     1.0  0.82706  0.53440  0.11135  1.0000
  C   C3101     1.0  0.80022  0.50581  0.17809  1.0000
  C   C3102     1.0  0.85887  0.55344  0.16987  1.0000
  H   H5428     1.0  0.83747  0.49680  0.17499  1.0000
  H   H5429     1.0  0.82945  0.49887  0.15633  1.0000
  H   H5430     1.0  0.87300  0.51366  0.14288  1.0000
  H   H5431     1.0  0.86752  0.49935  0.16291  1.0000
  H   H5432     1.0  0.84907  0.52103  0.17879  1.0000
  H   H5433     1.0  0.83411  0.53836  0.16884  1.0000
  H   H5434     1.0  0.83268  0.54211  0.14038  1.0000
  H   H5435     1.0  0.85219  0.53207  0.12822  1.0000
  H   H5436     1.0  0.81564  0.52272  0.13695  1.0000
  H   H5437     1.0  0.83471  0.50929  0.12683  1.0000
  H   H5438     1.0  0.81594  0.51937  0.18532  1.0000
  H   H5439     1.0  0.80984  0.52901  0.16464  1.0000
  H   H5440     1.0  0.86068  0.54705  0.14531  1.0000
  H   H5441     1.0  0.87424  0.53159  0.15916  1.0000
  H   H5442     1.0  0.85466  0.48337  0.14687  1.0000
  H   H5443     1.0  0.86237  0.49787  0.12703  1.0000
  H   H5444     1.0  0.88309  0.46999  0.13145  1.0000
  H   H5445     1.0  0.89276  0.48748  0.13223  1.0000
  H   H5446     1.0  0.88487  0.47307  0.15201  1.0000
  H   H5447     1.0  0.84003  0.53446  0.10250  1.0000
  H   H5448     1.0  0.81877  0.52958  0.10532  1.0000
  H   H5449     1.0  0.82069  0.54787  0.11294  1.0000
  H   H5450     1.0  0.79707  0.50394  0.16625  1.0000
  H   H5451     1.0  0.80444  0.49298  0.18629  1.0000
  H   H5452     1.0  0.78825  0.51282  0.18549  1.0000
  H   H5453     1.0  0.85961  0.54692  0.18350  1.0000
  H   H5454     1.0  0.86945  0.56099  0.16466  1.0000
  H   H5455     1.0  0.84802  0.41209  0.25476  1.0000
  H   H5456     1.0  0.89061  0.46749  0.23061  1.0000
  N   N172      1.0  0.80528  0.45448  0.10271  1.0000
  C   C3103     1.0  0.79697  0.45410  0.08820  1.0000
  C   C3104     1.0  0.80009  0.44065  0.11810  1.0000
  C   C3105     1.0  0.79917  0.47226  0.10719  1.0000
  C   C3106     1.0  0.82499  0.45089  0.09755  1.0000
  C   C3107     1.0  0.83352  0.43505  0.08873  1.0000
  C   C3108     1.0  0.80146  0.46716  0.07102  1.0000
  C   C3109     1.0  0.80378  0.47412  0.12394  1.0000
  C   C3110     1.0  0.78023  0.44186  0.12523  1.0000
  C   C3111     1.0  0.77684  0.42982  0.14286  1.0000
  C   C3112     1.0  0.85344  0.43156  0.08608  1.0000
  C   C3113     1.0  0.79336  0.46459  0.05697  1.0000
  C   C3114     1.0  0.80032  0.49315  0.12528  1.0000
  H   H5457     1.0  0.78252  0.45724  0.09214  1.0000
  H   H5458     1.0  0.80004  0.44077  0.08552  1.0000
  H   H5459     1.0  0.80493  0.42760  0.11482  1.0000
  H   H5460     1.0  0.80650  0.44022  0.12888  1.0000
  H   H5461     1.0  0.78476  0.47658  0.10842  1.0000
  H   H5462     1.0  0.80476  0.48208  0.09642  1.0000
  H   H5463     1.0  0.82966  0.46242  0.08872  1.0000
  H   H5464     1.0  0.83085  0.44854  0.10917  1.0000
  H   H5465     1.0  0.83015  0.43735  0.07582  1.0000
  H   H5466     1.0  0.82924  0.42307  0.09666  1.0000
  H   H5467     1.0  0.79606  0.48069  0.07291  1.0000
  H   H5468     1.0  0.81577  0.46571  0.06613  1.0000
  H   H5469     1.0  0.81773  0.46863  0.12437  1.0000
  H   H5470     1.0  0.79568  0.46727  0.13550  1.0000
  H   H5471     1.0  0.77343  0.45516  0.12682  1.0000
  H   H5472     1.0  0.77437  0.43775  0.11632  1.0000
  H   H5473     1.0  0.78466  0.41650  0.14257  1.0000
  H   H5474     1.0  0.78039  0.43503  0.15251  1.0000
  C   C3115     1.0  0.81445  0.51823  0.27059  1.0000
  H   H5475     1.0  0.85751  0.42822  0.09881  1.0000
  H   H5476     1.0  0.85923  0.42042  0.07948  1.0000
  H   H5477     1.0  0.85860  0.44309  0.07796  1.0000
  H   H5478     1.0  0.79646  0.47425  0.04488  1.0000
  H   H5479     1.0  0.79865  0.45138  0.05413  1.0000
  H   H5480     1.0  0.77889  0.46648  0.06115  1.0000
  H   H5481     1.0  0.78657  0.49947  0.12453  1.0000
  H   H5482     1.0  0.80269  0.49401  0.13788  1.0000
  C   C3116     1.0  0.94567  0.59640  0.18902  1.0000
  N   N173      1.0  0.77527  0.38311  0.35756  1.0000
  C   C3117     1.0  0.78385  0.39174  0.33985  1.0000
  C   C3118     1.0  0.76888  0.36795  0.35549  1.0000
  C   C3119     1.0  0.76040  0.39627  0.36510  1.0000
  C   C3120     1.0  0.78797  0.37647  0.36966  1.0000
  C   C3121     1.0  0.80504  0.36398  0.36326  1.0000
  C   C3122     1.0  0.79371  0.40601  0.33942  1.0000
  H   H5483     1.0  0.74680  0.39032  0.27403  1.0000
  C   C3123     1.0  0.75274  0.37255  0.34681  1.0000
  H   H5484     1.0  0.86460  0.63570  0.21178  1.0000
  C   C3124     1.0  0.81712  0.35899  0.37628  1.0000
  C   C3125     1.0  0.80192  0.41341  0.32081  1.0000
  C   C3126     1.0  0.77683  0.37508  0.15954  1.0000
  H   H5485     1.0  0.77396  0.39801  0.33164  1.0000
  H   H5486     1.0  0.79316  0.38195  0.33280  1.0000
  H   H5487     1.0  0.77268  0.31988  0.01686  1.0000
  H   H5488     1.0  0.81810  0.33361  0.43615  1.0000
  Fe  Fe352     1.0  0.80486  0.32440  0.11754  1.0000
  H   H5489     1.0  0.76545  0.40711  0.36693  1.0000
  H   H5490     1.0  0.79153  0.38746  0.37289  1.0000
  H   H5491     1.0  0.78171  0.36927  0.38231  1.0000
  H   H5492     1.0  0.81236  0.37001  0.35066  1.0000
  H   H5493     1.0  0.80208  0.35187  0.36180  1.0000
  H   H5494     1.0  0.78469  0.41692  0.34490  1.0000
  H   H5495     1.0  0.80441  0.40087  0.34677  1.0000
  C   C3127     1.0  0.75937  0.56458  0.25727  1.0000
  H   H5496     1.0  0.92476  0.63099  0.34882  1.0000
  H   H5497     1.0  0.88590  0.33763  0.09489  1.0000
  H   H5498     1.0  0.75345  0.38369  0.33575  1.0000
  H   H5499     1.0  0.75233  0.31969  0.08421  1.0000
  C   C3128     1.0  0.90795  0.32416  0.10626  1.0000
  H   H5500     1.0  0.76397  0.54761  0.33792  1.0000
  H   H5501     1.0  0.82914  0.34981  0.37165  1.0000
  H   H5502     1.0  0.82099  0.37069  0.37769  1.0000
  C   C3129     1.0  0.76237  0.32241  0.00915  1.0000
  H   H5503     1.0  0.79170  0.41922  0.31289  1.0000
  H   H5504     1.0  0.80872  0.42372  0.32078  1.0000
  H   H5505     1.0  0.81161  0.40312  0.31482  1.0000
  C   C3130     1.0  0.77787  0.61040  0.25072  1.0000
  H   H5506     1.0  0.76916  0.56437  0.24499  1.0000
  H   H5507     1.0  0.78315  0.46126  0.21655  1.0000
  H   H5508     1.0  0.75027  0.60390  0.20285  1.0000
  C   C3131     1.0  0.83623  0.61182  0.18969  1.0000
  H   H5509     1.0  0.97058  0.60126  0.19015  1.0000
  H   H5510     1.0  0.86017  0.42233  0.27070  1.0000
  S   S711      1.0  0.79293  0.45651  0.29642  1.0000
  C   C3132     1.0  0.82817  0.56409  0.28947  1.0000
  H   H5511     1.0  0.81964  0.54068  0.30337  1.0000
  H   H5512     1.0  0.84105  0.55978  0.29339  1.0000
  H   H5513     1.0  0.82993  0.57218  0.27619  1.0000
  H   H5514     1.0  0.81916  0.57206  0.29860  1.0000
  H   H5515     1.0  0.83736  0.43703  0.30234  1.0000
  H   H5516     1.0  0.77138  0.44228  0.02260  1.0000
  H   H5517     1.0  0.77010  0.37675  0.09883  1.0000
  H   H5518     1.0  0.94064  0.63493  0.32282  1.0000
  C   C3133     1.0  0.77017  0.45808  0.22309  1.0000
  C   C3134     1.0  0.74713  0.43394  0.31309  1.0000
  H   H5519     1.0  0.81118  0.61222  0.23946  1.0000
  H   H5520     1.0  0.77051  0.39956  0.02175  1.0000
  C   C3135     1.0  0.74852  0.53138  0.11363  1.0000
  H   H5521     1.0  0.91624  0.57444  0.15812  1.0000
  H   H5522     1.0  0.96798  0.60222  0.16851  1.0000
  H   H5523     1.0  0.84781  0.61586  0.19125  1.0000
  C   C3136     1.0  0.88889  0.59369  0.20925  1.0000
  H   H5524     1.0  0.85764  0.39484  0.23195  1.0000
  H   H5525     1.0  0.83881  0.34990  0.06915  1.0000
  H   H5526     1.0  0.75618  0.39722  0.15710  1.0000
  H   H5527     1.0  0.85459  0.32308  0.12215  1.0000
  N   N174      1.0  0.92099  0.51520  0.29711  1.0000
  C   C3137     1.0  0.90646  0.52953  0.29122  1.0000
  C   C3138     1.0  0.93092  0.50591  0.28247  1.0000
  C   C3139     1.0  0.91247  0.50231  0.31155  1.0000
  C   C3140     1.0  0.93322  0.52173  0.30413  1.0000
  C   C3141     1.0  0.94185  0.53658  0.29188  1.0000
  C   C3142     1.0  0.89504  0.54023  0.30489  1.0000
  C   C3143     1.0  0.92475  0.48518  0.31820  1.0000
  C   C3144     1.0  0.93341  0.51695  0.26376  1.0000
  C   C3145     1.0  0.94636  0.50654  0.25101  1.0000
  C   C3146     1.0  0.95106  0.54434  0.30150  1.0000
  C   C3147     1.0  0.88182  0.55518  0.29692  1.0000
  C   C3148     1.0  0.91427  0.47288  0.33183  1.0000
  H   H5528     1.0  0.89757  0.52390  0.28670  1.0000
  H   H5529     1.0  0.91152  0.53897  0.27982  1.0000
  H   H5530     1.0  0.94406  0.49880  0.28496  1.0000
  H   H5531     1.0  0.92406  0.49579  0.28186  1.0000
  H   H5532     1.0  0.90190  0.49869  0.30738  1.0000
  H   H5533     1.0  0.90595  0.50815  0.32311  1.0000
  H   H5534     1.0  0.92643  0.52593  0.31655  1.0000
  H   H5535     1.0  0.94421  0.51102  0.30758  1.0000
  H   H5536     1.0  0.93219  0.54735  0.28619  1.0000
  H   H5537     1.0  0.95196  0.53147  0.28134  1.0000
  H   H5538     1.0  0.88746  0.53206  0.31573  1.0000
  H   H5539     1.0  0.90320  0.54597  0.31016  1.0000
  H   H5540     1.0  0.93443  0.48780  0.32430  1.0000
  H   H5541     1.0  0.93190  0.47823  0.30758  1.0000
  H   H5542     1.0  0.92073  0.52090  0.25944  1.0000
  H   H5543     1.0  0.93810  0.52889  0.26271  1.0000
  H   H5544     1.0  0.95954  0.50287  0.25430  1.0000
  H   H5545     1.0  0.94183  0.49466  0.25115  1.0000
  H   H5546     1.0  0.94740  0.51457  0.23768  1.0000
  H   H5547     1.0  0.94151  0.55017  0.31199  1.0000
  H   H5548     1.0  0.96139  0.53427  0.30712  1.0000
  H   H5549     1.0  0.95728  0.55477  0.29229  1.0000
  H   H5550     1.0  0.88862  0.56422  0.28626  1.0000
  H   H5551     1.0  0.87298  0.55015  0.29178  1.0000
  H   H5552     1.0  0.87374  0.56254  0.30697  1.0000
  H   H5553     1.0  0.90469  0.46945  0.32616  1.0000
  H   H5554     1.0  0.75749  0.38625  0.39323  1.0000
  H   H5555     1.0  0.76090  0.53605  0.23650  1.0000
  Fe  Fe353     1.0  0.77849  0.33184  0.09468  1.0000
  C   C3149     1.0  0.84261  0.59426  0.18422  1.0000
  C   C3150     1.0  0.74698  0.51297  0.22536  1.0000
  H   H5556     1.0  0.76859  0.48902  0.29809  1.0000
  H   H5557     1.0  0.82152  0.49027  0.27996  1.0000
  H   H5558     1.0  0.74890  0.45730  0.26430  1.0000
  N   N175      1.0  0.84239  0.45007  0.24771  1.0000
  H   H5559     1.0  0.75561  0.37907  0.30252  1.0000
  C   C3151     1.0  0.75875  0.40337  0.10326  1.0000
  H   H5560     1.0  0.75887  0.43852  0.31352  1.0000
  H   H5561     1.0  0.90296  0.35085  0.47206  1.0000
  C   C3152     1.0  0.80345  0.55362  0.28346  1.0000
  H   H5562     1.0  0.75303  0.53107  0.16019  1.0000
  H   H5563     1.0  0.76277  0.42929  0.14698  1.0000
  C   C3153     1.0  0.75700  0.35851  0.25978  1.0000
  H   H5564     1.0  0.94839  0.63578  0.21680  1.0000
  H   H5565     1.0  0.76223  0.35430  0.32929  1.0000
  H   H5566     1.0  0.77933  0.40798  0.07023  1.0000
  H   H5567     1.0  0.90714  0.47895  0.34310  1.0000
  C   C3154     1.0  0.76530  0.42057  0.40221  1.0000
  H   H5568     1.0  0.74653  0.34140  0.02429  1.0000
  C   C3155     1.0  0.74671  0.63162  0.19385  1.0000
  H   H5569     1.0  0.79414  0.51235  0.29269  1.0000
  C   C3156     1.0  0.77422  0.46607  0.28752  1.0000
  H   H5570     1.0  0.85829  0.46948  0.26053  1.0000
  H   H5571     1.0  0.89387  0.61537  0.17782  1.0000
  Fe  Fe354     1.0  0.76668  0.32307  0.46738  1.0000
  H   H5572     1.0  0.94011  0.59942  0.20211  1.0000
  C   C3157     1.0  0.75159  0.32905  0.40331  1.0000
  C   C3158     1.0  0.90802  0.59642  0.20210  1.0000
  H   H5573     1.0  0.98083  0.62787  0.31577  1.0000
  C   C3159     1.0  0.74515  0.32980  0.02029  1.0000
  H   H5574     1.0  0.93055  0.56876  0.19124  1.0000
  H   H5575     1.0  0.83153  0.45536  0.27368  1.0000
  C   C3160     1.0  0.81355  0.63699  0.14774  1.0000
  H   H5576     1.0  0.93694  0.54704  0.15452  1.0000
  H   H5577     1.0  0.75122  0.36919  0.03163  1.0000
  H   H5578     1.0  0.76521  0.35394  0.23332  1.0000
  C   C3161     1.0  0.76889  0.52276  0.23661  1.0000
  H   H5579     1.0  0.89935  0.62277  0.12945  1.0000
  H   H5580     1.0  0.77556  0.50298  0.22150  1.0000
  H   H5581     1.0  0.77371  0.62094  0.25823  1.0000
  H   H5582     1.0  0.76534  0.33244  0.99745  1.0000
  C   C3162     1.0  0.75304  0.41616  0.24493  1.0000
  C   C3163     1.0  0.90901  0.61143  0.15322  1.0000
  C   C3164     1.0  0.92696  0.57023  0.16549  1.0000
  H   H5583     1.0  0.94352  0.54552  0.17455  1.0000
  C   C3165     1.0  0.84483  0.64603  0.14802  1.0000
  H   H5584     1.0  0.76436  0.41503  0.10170  1.0000
  C   C3166     1.0  0.82210  0.61065  0.20661  1.0000
  H   H5585     1.0  0.76258  0.36336  0.26838  1.0000
  H   H5586     1.0  0.92142  0.54412  0.17476  1.0000
  C   C3167     1.0  0.77339  0.38982  0.09470  1.0000
  Fe  Fe355     1.0  0.75551  0.36208  0.46350  1.0000
  H   H5587     1.0  0.75798  0.52001  0.19047  1.0000
  S   S712      1.0  0.74647  0.38703  0.44507  1.0000
  H   H5588     1.0  0.77091  0.37296  0.23634  1.0000
  H   H5589     1.0  0.86457  0.45525  0.22720  1.0000
  H   H5590     1.0  0.80642  0.45728  0.25801  1.0000
  H   H5591     1.0  0.91933  0.60201  0.14672  1.0000
  H   H5592     1.0  0.83730  0.33920  0.10128  1.0000
  S   S713      1.0  0.76468  0.50835  0.09131  1.0000
  C   C3168     1.0  0.77424  0.53559  0.33802  1.0000
  H   H5593     1.0  0.89004  0.45654  0.25307  1.0000
  H   H5594     1.0  0.74830  0.40227  0.29814  1.0000
  H   H5595     1.0  0.82776  0.60017  0.21661  1.0000
  C   C3169     1.0  0.81055  0.46604  0.24559  1.0000
  H   H5596     1.0  0.84864  0.58437  0.19436  1.0000
  Fe  Fe356     1.0  0.76579  0.48192  0.35021  1.0000
  H   H5597     1.0  0.82709  0.43634  0.27051  1.0000
  C   C3170     1.0  0.90219  0.60390  0.17262  1.0000
  H   H5598     1.0  0.85744  0.62201  0.13931  1.0000
  H   H5599     1.0  0.83558  0.40682  0.23187  1.0000
  Fe  Fe357     1.0  0.97085  0.64998  0.22644  1.0000
  C   C3171     1.0  0.86088  0.45314  0.24159  1.0000
  H   H5600     1.0  0.89303  0.59534  0.17345  1.0000
  C   C3172     1.0  0.76891  0.45742  0.27747  1.0000
  H   H5601     1.0  0.88786  0.59830  0.23483  1.0000
  H   H5602     1.0  0.95670  0.61981  0.17968  1.0000
  H   H5603     1.0  0.81155  0.51822  0.29779  1.0000
  H   H5604     1.0  0.83573  0.49892  0.26042  1.0000
  H   H5605     1.0  0.81243  0.64355  0.18821  1.0000
  H   H5606     1.0  0.95662  0.64035  0.34560  1.0000
  H   H5607     1.0  0.78711  0.59956  0.25705  1.0000
  C   C3173     1.0  0.75862  0.47874  0.15308  1.0000
  H   H5608     1.0  0.78839  0.60700  0.22455  1.0000
  C   C3174     1.0  0.80352  0.62295  0.23117  1.0000
  H   H5609     1.0  0.89402  0.63002  0.36183  1.0000
  H   H5610     1.0  0.81158  0.60570  0.20393  1.0000
  H   H5611     1.0  0.78497  0.48289  0.24756  1.0000
  H   H5612     1.0  0.76539  0.51434  0.24950  1.0000
  C   C3175     1.0  0.76604  0.38984  0.13157  1.0000
  H   H5613     1.0  0.90913  0.56915  0.18992  1.0000
  H   H5614     1.0  0.96724  0.61666  0.30984  1.0000
  H   H5615     1.0  0.85750  0.34557  0.09910  1.0000
  H   H5616     1.0  0.76929  0.52470  0.20990  1.0000
  H   H5617     1.0  0.77669  0.44512  0.27469  1.0000
  H   H5618     1.0  0.77125  0.55359  0.30522  1.0000
  C   C3176     1.0  0.84512  0.63055  0.14299  1.0000
  H   H5619     1.0  0.83530  0.33678  0.44481  1.0000
  H   H5620     1.0  0.78043  0.53348  0.34934  1.0000
  C   C3177     1.0  0.77992  0.54062  0.30519  1.0000
  C   C3178     1.0  0.84217  0.62392  0.22572  1.0000
  H   H5621     1.0  0.90807  0.60955  0.20382  1.0000
  H   H5622     1.0  0.76056  0.43333  0.39507  1.0000
  H   H5623     1.0  0.85896  0.48110  0.23850  1.0000
  C   C3179     1.0  0.77866  0.53207  0.09993  1.0000
  H   H5624     1.0  0.79051  0.52727  0.09131  1.0000
  H   H5625     1.0  0.76308  0.44509  0.18733  1.0000
  C   C3180     1.0  0.76558  0.46770  0.16696  1.0000
  H   H5626     1.0  0.84848  0.61169  0.22111  1.0000
  H   H5627     1.0  0.83155  0.58982  0.18196  1.0000
  H   H5628     1.0  0.75760  0.56193  0.28428  1.0000
  C   C3181     1.0  0.82887  0.63554  0.21463  1.0000
  H   H5629     1.0  0.85877  0.35705  0.06766  1.0000
  H   H5630     1.0  0.78288  0.35178  0.24411  1.0000
  H   H5631     1.0  0.76595  0.33770  0.43538  1.0000
  H   H5632     1.0  0.86973  0.32512  0.07558  1.0000
  H   H5633     1.0  0.76803  0.52438  0.33964  1.0000
  H   H5634     1.0  0.79973  0.48881  0.25726  1.0000
  C   C3182     1.0  0.80296  0.52188  0.28819  1.0000
  H   H5635     1.0  0.90460  0.63434  0.37692  1.0000
  H   H5636     1.0  0.76140  0.47943  0.23610  1.0000
  H   H5637     1.0  0.86587  0.41947  0.23828  1.0000
  H   H5638     1.0  0.81050  0.35263  0.38916  1.0000
  H   H5639     1.0  0.77367  0.53345  0.27670  1.0000
  H   H5640     1.0  0.80249  0.49319  0.23382  1.0000
  C   C3183     1.0  0.78130  0.54383  0.27428  1.0000
  H   H5641     1.0  0.77118  0.53125  0.30763  1.0000
  H   H5642     1.0  0.75995  0.44083  0.98973  1.0000
  H   H5643     1.0  0.78193  0.36248  0.15526  1.0000
  H   H5644     1.0  0.75036  0.57743  0.25621  1.0000
  C   C3184     1.0  0.76395  0.39102  0.01799  1.0000
  H   H5645     1.0  0.80826  0.46111  0.23494  1.0000
  H   H5646     1.0  0.95087  0.58226  0.19037  1.0000
  S   S714      1.0  0.98500  0.62232  0.23128  1.0000
  C   C3185     1.0  0.89290  0.34304  0.47919  1.0000
  C   C3186     1.0  0.85247  0.43341  0.27671  1.0000
  H   H5647     1.0  0.82646  0.43505  0.24201  1.0000
  H   H5648     1.0  0.80913  0.50023  0.11464  1.0000
  C   C3187     1.0  0.83013  0.46698  0.24248  1.0000
  H   H5649     1.0  0.79796  0.52476  0.32238  1.0000
  H   H5650     1.0  0.88830  0.60618  0.14364  1.0000
  H   H5651     1.0  0.78776  0.38532  0.06932  1.0000
  H   H5652     1.0  0.85098  0.64590  0.22932  1.0000
  C   C3188     1.0  0.74869  0.48910  0.28462  1.0000
  S   S715      1.0  0.98211  0.62719  0.27113  1.0000
  H   H5653     1.0  0.77959  0.35970  0.34776  1.0000
  H   H5654     1.0  0.91681  0.32214  0.09373  1.0000
  C   C3189     1.0  0.74806  0.54515  0.12152  1.0000
  H   H5655     1.0  0.86115  0.32514  0.47451  1.0000
  H   H5656     1.0  0.76575  0.45184  0.21471  1.0000
  N   N176      1.0  0.75169  0.41637  0.99481  1.0000
  H   H5657     1.0  0.75020  0.50090  0.17649  1.0000
  H   H5658     1.0  0.76568  0.35916  0.36823  1.0000
  H   H5659     1.0  0.78734  0.38271  0.15567  1.0000
  H   H5660     1.0  0.74739  0.41041  0.20689  1.0000
  H   H5661     1.0  0.85689  0.64944  0.14822  1.0000
  C   C3190     1.0  0.74924  0.43523  0.01707  1.0000
  H   H5662     1.0  0.75329  0.35265  0.40972  1.0000
  C   C3191     1.0  0.83072  0.32721  0.44026  1.0000
  C   C3192     1.0  0.75522  0.48822  0.21000  1.0000
  H   H5663     1.0  0.88072  0.32842  0.11783  1.0000
  C   C3193     1.0  0.74813  0.40142  0.00959  1.0000
  H   H5664     1.0  0.83316  0.34618  0.47978  1.0000
  H   H5665     1.0  0.96723  0.61472  0.33238  1.0000
  H   H5666     1.0  0.75103  0.48192  0.20146  1.0000
  H   H5667     1.0  0.95438  0.64789  0.30704  1.0000
  C   C3194     1.0  0.75933  0.42896  0.00010  1.0000
  C   C3195     1.0  0.76102  0.38524  0.15167  1.0000
  H   H5668     1.0  0.82315  0.64716  0.22056  1.0000
  S   S716      1.0  0.74591  0.46568  0.10415  1.0000
  C   C3196     1.0  0.75780  0.44830  0.02084  1.0000
  H   H5669     1.0  0.90972  0.33614  0.10926  1.0000
  H   H5670     1.0  0.77315  0.42342  0.00137  1.0000
  C   C3197     1.0  0.74737  0.61636  0.20657  1.0000
  S   S717      1.0  0.74942  0.63102  0.17191  1.0000
  N   N177      1.0  0.75099  0.39719  0.12210  1.0000
  H   H5671     1.0  0.88394  0.62748  0.14883  1.0000
  C   C3198     1.0  0.75103  0.35725  0.34000  1.0000
  H   H5672     1.0  0.74906  0.42426  0.02836  1.0000
  C   C3199     1.0  0.95301  0.63951  0.32018  1.0000
  H   H5673     1.0  0.74863  0.40790  0.09524  1.0000
  C   C3200     1.0  0.95366  0.64981  0.33366  1.0000
  H   H5674     1.0  0.93072  0.64956  0.36441  1.0000
  H   H5675     1.0  0.91022  0.64847  0.33755  1.0000
  H   H5676     1.0  0.74582  0.42008  0.25674  1.0000
  C   C3201     1.0  0.76461  0.40922  0.98010  1.0000
  C   C3202     1.0  0.74482  0.47515  0.14795  1.0000
  H   H5677     1.0  0.74494  0.37765  0.38327  1.0000
  H   H5678     1.0  0.97131  0.41405  0.73324  1.0000
  H   H5679     1.0  0.97709  0.44744  0.73765  1.0000
  C   C3203     1.0  0.84654  0.34602  0.78103  1.0000
  C   C3204     1.0  0.94796  0.44018  0.71664  1.0000
  H   H5680     1.0  0.94911  0.41451  0.74315  1.0000
  H   H5681     1.0  0.88295  0.36570  0.67096  1.0000
  C   C3205     1.0  0.97039  0.46585  0.71514  1.0000
  C   C3206     1.0  0.96843  0.39950  0.76776  1.0000
  S   S718      1.0  0.86377  0.34569  0.73698  1.0000
  H   H5682     1.0  0.77460  0.43248  0.96479  1.0000
  H   H5683     1.0  0.90968  0.32612  0.49568  1.0000
  C   C3207     1.0  0.87046  0.34583  0.68929  1.0000
  H   H5684     1.0  0.89822  0.34736  0.82437  1.0000
  H   H5685     1.0  0.85766  0.33057  0.84794  1.0000
  H   H5686     1.0  0.93385  0.38531  0.66350  1.0000
  H   H5687     1.0  0.96093  0.34295  0.78814  1.0000
  H   H5688     1.0  0.97937  0.39217  0.75946  1.0000
  Fe  Fe358     1.0  0.95127  0.37655  0.71788  1.0000
  S   S719      1.0  0.96079  0.34867  0.71580  1.0000
  S   S720      1.0  0.92283  0.38910  0.72487  1.0000
  H   H5689     1.0  0.96109  0.42691  0.67681  1.0000
  H   H5690     1.0  0.93253  0.34853  0.77941  1.0000
  C   C3208     1.0  0.90750  0.33400  0.69697  1.0000
  C   C3209     1.0  0.76834  0.42255  0.96293  1.0000
  S   S721      1.0  0.97090  0.37724  0.73283  1.0000
  S   S722      1.0  0.96750  0.38685  0.69234  1.0000
  C   C3210     1.0  0.85838  0.33376  0.83369  1.0000
  C   C3211     1.0  0.96079  0.43194  0.70184  1.0000
  H   H5691     1.0  0.78665  0.32737  0.96943  1.0000
  C   C3212     1.0  0.98829  0.47093  0.70873  1.0000
  H   H5692     1.0  0.82760  0.34475  0.80466  1.0000
  H   H5693     1.0  0.86932  0.33986  0.67887  1.0000
  H   H5694     1.0  0.77477  0.40389  0.94600  1.0000
  H   H5695     1.0  0.94217  0.36961  0.68116  1.0000
  H   H5696     1.0  0.91769  0.32297  0.63597  1.0000
  C   C3213     1.0  0.91437  0.37216  0.68234  1.0000
  H   H5697     1.0  0.97181  0.43881  0.69597  1.0000
  H   H5698     1.0  0.93590  0.32566  0.68817  1.0000
  C   C3214     1.0  0.98195  0.33025  0.81414  1.0000
  C   C3215     1.0  0.88038  0.35718  0.73481  1.0000
  C   C3216     1.0  0.89667  0.34895  0.73913  1.0000
  C   C3217     1.0  0.91004  0.35845  0.73586  1.0000
  C   C3218     1.0  0.90685  0.37634  0.72892  1.0000
  C   C3219     1.0  0.89035  0.38456  0.72524  1.0000
  C   C3220     1.0  0.87730  0.37501  0.72794  1.0000
  H   H5699     1.0  0.97806  0.33636  0.63800  1.0000
  H   H5700     1.0  0.92266  0.35202  0.73898  1.0000
  H   H5701     1.0  0.88774  0.39835  0.71999  1.0000
  H   H5702     1.0  0.86474  0.38149  0.72468  1.0000
  H   H5703     1.0  0.88390  0.36388  0.69300  1.0000
  C   C3221     1.0  0.85282  0.35776  0.69411  1.0000
  H   H5704     1.0  0.98280  0.33939  0.80138  1.0000
  H   H5705     1.0  0.88607  0.32119  0.83081  1.0000
  C   C3222     1.0  0.96000  0.42136  0.74132  1.0000
  C   C3223     1.0  0.84204  0.34330  0.80079  1.0000
  H   H5706     1.0  0.96620  0.41813  0.70677  1.0000
  H   H5707     1.0  0.91769  0.44425  0.74221  1.0000
  H   H5708     1.0  0.79224  0.31967  0.94087  1.0000
  S   S723      1.0  0.79998  0.34244  0.50169  1.0000
  H   H5709     1.0  0.94202  0.45366  0.71092  1.0000
  C   C3224     1.0  0.88406  0.34802  0.83002  1.0000
  C   C3225     1.0  0.92664  0.32980  0.69955  1.0000
  Fe  Fe359     1.0  0.98194  0.35004  0.72857  1.0000
  H   H5710     1.0  0.76341  0.33266  0.97031  1.0000
  C   C3226     1.0  0.96502  0.41869  0.75919  1.0000
  H   H5711     1.0  0.97271  0.32193  0.69332  1.0000
  H   H5712     1.0  0.97211  0.39789  0.78043  1.0000
  C   C3227     1.0  0.93374  0.34190  0.79290  1.0000
  H   H5713     1.0  0.93699  0.43304  0.72094  1.0000
  C   C3228     1.0  0.81940  0.32723  0.49760  1.0000
  H   H5714     1.0  0.86079  0.34553  0.77615  1.0000
  C   C3229     1.0  0.85125  0.32509  0.80922  1.0000
  H   H5715     1.0  0.92512  0.33225  0.79746  1.0000
  S   S724      1.0  0.99184  0.32844  0.74922  1.0000
  H   H5716     1.0  0.89056  0.35442  0.54423  1.0000
  H   H5717     1.0  0.89104  0.33729  0.56343  1.0000
  H   H5718     1.0  0.91410  0.36475  0.65873  1.0000
  H   H5719     1.0  0.92016  0.31870  0.72719  1.0000
  H   H5720     1.0  0.93002  0.35101  0.66991  1.0000
  C   C3230     1.0  0.95153  0.43264  0.68735  1.0000
  C   C3231     1.0  0.97501  0.32728  0.65004  1.0000
  H   H5721     1.0  0.84262  0.33595  0.77658  1.0000
  Fe  Fe360     1.0  0.97838  0.35881  0.69117  1.0000
  H   H5722     1.0  0.91175  0.36702  0.69650  1.0000
  H   H5723     1.0  0.84602  0.35377  0.80444  1.0000
  S   S725      1.0  0.98131  0.35078  0.66566  1.0000
  H   H5724     1.0  0.95657  0.32382  0.78416  1.0000
  H   H5725     1.0  0.82427  0.33826  0.83288  1.0000
  H   H5726     1.0  0.90319  0.32151  0.69908  1.0000
  C   C3232     1.0  0.89642  0.33441  0.49733  1.0000
  H   H5727     1.0  0.87492  0.33689  0.53479  1.0000
  H   H5728     1.0  0.96492  0.46707  0.70357  1.0000
  H   H5729     1.0  0.98450  0.36015  0.76161  1.0000
  H   H5730     1.0  0.85088  0.32349  0.54413  1.0000
  H   H5731     1.0  0.90039  0.34305  0.65518  1.0000
  C   C3233     1.0  0.95277  0.33293  0.79322  1.0000
  H   H5732     1.0  0.87270  0.33546  0.70082  1.0000
  H   H5733     1.0  0.75006  0.35524  0.94071  1.0000
  H   H5734     1.0  0.92754  0.43070  0.75977  1.0000
  C   C3234     1.0  0.95507  0.32304  0.81177  1.0000
  C   C3235     1.0  0.84990  0.32085  0.48340  1.0000
  H   H5735     1.0  0.86504  0.32318  0.80224  1.0000
  H   H5736     1.0  0.84954  0.36763  0.68258  1.0000
  H   H5737     1.0  0.88057  0.33572  0.81119  1.0000
  H   H5738     1.0  0.83946  0.35893  0.77527  1.0000
  H   H5739     1.0  0.96187  0.47534  0.72294  1.0000
  H   H5740     1.0  0.92888  0.39024  0.68486  1.0000
  C   C3236     1.0  0.83408  0.33272  0.48632  1.0000
  N   N178      1.0  0.95551  0.43993  0.73193  1.0000
  C   C3237     1.0  0.90483  0.33456  0.66700  1.0000
  C   C3238     1.0  0.94215  0.45089  0.74351  1.0000
  C   C3239     1.0  0.92498  0.44412  0.75216  1.0000
  H   H5741     1.0  0.97351  0.33817  0.82363  1.0000
  H   H5742     1.0  0.89953  0.33994  0.70807  1.0000
  C   C3240     1.0  0.91298  0.45556  0.76449  1.0000
  H   H5743     1.0  0.94849  0.33217  0.82069  1.0000
  H   H5744     1.0  0.98260  0.43854  0.71892  1.0000
  H   H5745     1.0  0.75621  0.42925  0.95808  1.0000
  C   C3241     1.0  0.93085  0.37978  0.67760  1.0000
  H   H5746     1.0  0.94796  0.45282  0.75377  1.0000
  H   H5747     1.0  0.93813  0.46418  0.73599  1.0000
  C   C3242     1.0  0.97200  0.44719  0.72623  1.0000
  H   H5748     1.0  0.77987  0.34137  0.94077  1.0000
  H   H5749     1.0  0.95447  0.42543  0.76832  1.0000
  H   H5750     1.0  0.76038  0.39833  0.97730  1.0000
  C   C3243     1.0  0.89824  0.34193  0.55015  1.0000
  C   C3244     1.0  0.83084  0.32459  0.83701  1.0000
  H   H5751     1.0  0.91091  0.34424  0.55120  1.0000
  H   H5752     1.0  0.78333  0.42339  0.93662  1.0000
  H   H5753     1.0  0.91946  0.45543  0.77509  1.0000
  H   H5754     1.0  0.90949  0.46912  0.75739  1.0000
  H   H5755     1.0  0.90074  0.45055  0.77037  1.0000
  C   C3245     1.0  0.97575  0.33110  0.66573  1.0000
  H   H5756     1.0  0.90322  0.38291  0.67944  1.0000
  H   H5757     1.0  0.89612  0.34489  0.50394  1.0000
  H   H5758     1.0  0.79913  0.33422  0.85852  1.0000
  H   H5759     1.0  0.85300  0.36447  0.70437  1.0000
  N   N179      1.0  0.90386  0.34543  0.67992  1.0000
  C   C3246     1.0  0.88549  0.35612  0.68299  1.0000
  C   C3247     1.0  0.91616  0.35792  0.67200  1.0000
  C   C3248     1.0  0.77941  0.32747  0.94601  1.0000
  H   H5760     1.0  0.89898  0.33526  0.74482  1.0000
  H   H5761     1.0  0.85088  0.34731  0.83103  1.0000
  H   H5762     1.0  0.87678  0.36098  0.82459  1.0000
  H   H5763     1.0  0.93021  0.34136  0.70156  1.0000
  H   H5764     1.0  0.98678  0.48460  0.70153  1.0000
  H   H5765     1.0  0.92936  0.35176  0.80121  1.0000
  H   H5766     1.0  0.86974  0.33341  0.50914  1.0000
  H   H5767     1.0  0.95658  0.39398  0.76999  1.0000
  S   S726      1.0  0.76080  0.32603  0.88528  1.0000
  C   C3249     1.0  0.77584  0.32388  0.96582  1.0000
  H   H5768     1.0  0.93309  0.33098  0.65532  1.0000
  H   H5769     1.0  0.79339  0.40704  0.95268  1.0000
  H   H5770     1.0  0.94095  0.42506  0.69231  1.0000
  H   H5771     1.0  0.94592  0.44627  0.68184  1.0000
  S   S727      1.0  0.75336  0.36071  0.49194  1.0000
  H   H5772     1.0  0.87981  0.35178  0.48001  1.0000
  H   H5773     1.0  0.79219  0.32548  0.80501  1.0000
  C   C3250     1.0  0.82654  0.32114  0.85714  1.0000
  H   H5774     1.0  0.90926  0.33331  0.52612  1.0000
  Fe  Fe361     1.0  0.98830  0.38503  0.70718  1.0000
  H   H5775     1.0  0.76901  0.32424  0.94134  1.0000
  H   H5776     1.0  0.84242  0.34997  0.69915  1.0000
  C   C3251     1.0  0.92283  0.32315  0.66109  1.0000
  H   H5777     1.0  0.89586  0.32528  0.67247  1.0000
  H   H5778     1.0  0.97709  0.42357  0.75771  1.0000
  C   C3252     1.0  0.78073  0.41360  0.94874  1.0000
  H   H5779     1.0  0.84744  0.32089  0.52400  1.0000
  H   H5780     1.0  0.88213  0.34648  0.84430  1.0000
  C   C3253     1.0  0.80699  0.32168  0.86410  1.0000
  C   C3254     1.0  0.87794  0.33365  0.82552  1.0000
  C   C3255     1.0  0.97202  0.31922  0.68118  1.0000
  H   H5781     1.0  0.82999  0.33132  0.86181  1.0000
  H   H5782     1.0  0.80408  0.32026  0.87841  1.0000
  C   C3256     1.0  0.88419  0.32433  0.53769  1.0000
  C   C3257     1.0  0.88231  0.32384  0.50769  1.0000
  Fe  Fe362     1.0  0.77866  0.34118  0.48899  1.0000
  C   C3258     1.0  0.90160  0.32840  0.53899  1.0000
  N   N180      1.0  0.85003  0.32163  0.82858  1.0000
  S   S728      1.0  0.76601  0.31803  0.49586  1.0000
  H   H5783     1.0  0.87873  0.31810  0.55119  1.0000
  S   S729      1.0  0.97920  0.77581  0.11767  1.0000
  S   S730      1.0  0.97414  0.79610  0.15720  1.0000
  C   C3259     1.0  0.78640  0.98202  0.32664  1.0000
  S   S731      1.0  0.97279  0.72483  0.12813  1.0000
  Fe  Fe363     1.0  0.96990  0.84420  0.25599  1.0000
  S   S732      1.0  0.96484  0.87314  0.25264  1.0000
  S   S733      1.0  0.95906  0.82573  0.27932  1.0000
  H   H5784     1.0  0.86124  0.71884  0.10282  1.0000
  H   H5785     1.0  0.98980  0.68835  0.19679  1.0000
  H   H5786     1.0  0.95174  0.72433  0.22064  1.0000
  H   H5787     1.0  0.90336  0.96368  0.12988  1.0000
  Fe  Fe364     1.0  0.96028  0.87361  0.22635  1.0000
  S   S734      1.0  0.93672  0.88952  0.21480  1.0000
  H   H5788     1.0  0.89908  0.94441  0.17986  1.0000
  S   S735      1.0  0.96314  0.84462  0.23085  1.0000
  Fe  Fe365     1.0  0.83086  0.96240  0.22716  1.0000
  H   H5789     1.0  0.84076  0.97287  0.28700  1.0000
  S   S736      1.0  0.81472  0.94630  0.22223  1.0000
  H   H5790     1.0  0.96551  0.65559  0.32790  1.0000
  H   H5791     1.0  0.93199  0.79539  0.43408  1.0000
  H   H5792     1.0  0.78573  0.95555  0.32812  1.0000
  Fe  Fe366     1.0  0.96888  0.65487  0.26296  1.0000
  Fe  Fe367     1.0  0.88104  0.80077  0.26962  1.0000
  S   S737      1.0  0.85851  0.79664  0.26074  1.0000
  S   S738      1.0  0.88539  0.82787  0.26501  1.0000
  Fe  Fe368     1.0  0.89259  0.76277  0.28472  1.0000
  S   S739      1.0  0.87063  0.75545  0.27753  1.0000
  S   S740      1.0  0.91270  0.74113  0.29623  1.0000
  Fe  Fe369     1.0  0.87728  0.77344  0.25216  1.0000
  S   S741      1.0  0.87985  0.76810  0.22561  1.0000
  Fe  Fe370     1.0  0.85378  0.77922  0.28678  1.0000
  S   S742      1.0  0.82741  0.77805  0.30443  1.0000
  S   S743      1.0  0.90044  0.77925  0.25858  1.0000
  S   S744      1.0  0.87513  0.78488  0.29641  1.0000
  Fe  Fe371     1.0  0.85035  0.68451  0.16443  1.0000
  H   H5793     1.0  0.88692  0.69598  0.28060  1.0000
  S   S745      1.0  0.82801  0.67791  0.15658  1.0000
  Fe  Fe372     1.0  0.85774  0.69895  0.19282  1.0000
  S   S746      1.0  0.88652  0.69499  0.18205  1.0000
  S   S747      1.0  0.84672  0.70817  0.21807  1.0000
  Fe  Fe373     1.0  0.87910  0.70574  0.15613  1.0000
  S   S748      1.0  0.89172  0.72693  0.13715  1.0000
  C   C3260     1.0  0.84058  0.80690  0.32931  1.0000
  H   H5794     1.0  0.97297  0.83084  0.19861  1.0000
  S   S749      1.0  0.85014  0.71154  0.16720  1.0000
  S   S750      1.0  0.85534  0.67257  0.19111  1.0000
  H   H5795     1.0  0.88103  0.71758  0.28492  1.0000
  C   C3261     1.0  0.93675  0.81449  0.23143  1.0000
  H   H5796     1.0  0.78209  0.97148  0.24026  1.0000
  N   N181      1.0  0.97956  0.75143  0.06694  1.0000
  H   H5797     1.0  0.79492  0.68403  0.10178  1.0000
  H   H5798     1.0  0.92675  0.81010  0.22728  1.0000
  Fe  Fe374     1.0  0.97815  0.73807  0.34884  1.0000
  H   H5799     1.0  0.99129  0.81069  0.28904  1.0000
  S   S751      1.0  0.95123  0.75472  0.34923  1.0000
  H   H5800     1.0  0.74572  0.86407  0.22824  1.0000
  H   H5801     1.0  0.97774  0.70564  0.31561  1.0000
  C   C3262     1.0  0.92459  0.65653  0.35312  1.0000
  C   C3263     1.0  0.93964  0.77801  0.09407  1.0000
  S   S752      1.0  0.84244  0.96354  0.24913  1.0000
  H   H5802     1.0  0.75424  0.77562  0.26623  1.0000
  H   H5803     1.0  0.83384  0.68080  0.08446  1.0000
  H   H5804     1.0  0.94316  0.80772  0.41448  1.0000
  S   S753      1.0  0.89247  0.96194  0.23218  1.0000
  N   N182      1.0  0.96844  0.77047  0.24431  1.0000
  H   H5805     1.0  0.90068  0.66011  0.10944  1.0000
  H   H5806     1.0  0.92007  0.67120  0.16825  1.0000
  C   C3264     1.0  0.80759  0.79075  0.29910  1.0000
  C   C3265     1.0  0.79202  0.78587  0.30888  1.0000
  C   C3266     1.0  0.77583  0.79591  0.30582  1.0000
  C   C3267     1.0  0.77498  0.81133  0.29340  1.0000
  C   C3268     1.0  0.79055  0.81620  0.28334  1.0000
  C   C3269     1.0  0.80687  0.80569  0.28595  1.0000
  H   H5807     1.0  0.79247  0.77429  0.31898  1.0000
  H   H5808     1.0  0.81304  0.93588  0.31168  1.0000
  H   H5809     1.0  0.79000  0.82797  0.27352  1.0000
  H   H5810     1.0  0.81884  0.80935  0.27811  1.0000
  C   C3270     1.0  0.87068  0.75132  0.22373  1.0000
  C   C3271     1.0  0.87105  0.74875  0.20722  1.0000
  C   C3272     1.0  0.86412  0.73523  0.20540  1.0000
  C   C3273     1.0  0.85641  0.72448  0.22009  1.0000
  C   C3274     1.0  0.85605  0.72702  0.23661  1.0000
  C   C3275     1.0  0.86340  0.74027  0.23841  1.0000
  H   H5811     1.0  0.87670  0.75721  0.19578  1.0000
  H   H5812     1.0  0.86445  0.73334  0.19260  1.0000
  H   H5813     1.0  0.85019  0.71864  0.24801  1.0000
  H   H5814     1.0  0.86346  0.74192  0.25112  1.0000
  C   C3276     1.0  0.92280  0.74504  0.31137  1.0000
  C   C3277     1.0  0.91887  0.76123  0.31603  1.0000
  C   C3278     1.0  0.92748  0.76407  0.32782  1.0000
  C   C3279     1.0  0.94028  0.75084  0.33476  1.0000
  C   C3280     1.0  0.94418  0.73465  0.33010  1.0000
  C   C3281     1.0  0.93535  0.73172  0.31857  1.0000
  H   H5815     1.0  0.90929  0.77161  0.31049  1.0000
  H   H5816     1.0  0.92445  0.77663  0.33133  1.0000
  H   H5817     1.0  0.95398  0.72436  0.33543  1.0000
  H   H5818     1.0  0.93846  0.71920  0.31499  1.0000
  H   H5819     1.0  0.86788  0.80753  0.32759  1.0000
  H   H5820     1.0  0.82806  0.66456  0.11576  1.0000
  H   H5821     1.0  0.82728  0.72205  0.29803  1.0000
  H   H5822     1.0  0.80635  0.74536  0.24763  1.0000
  C   C3282     1.0  0.88652  0.65992  0.11206  1.0000
  H   H5823     1.0  0.88148  0.65834  0.12624  1.0000
  H   H5824     1.0  0.78047  0.95191  0.26931  1.0000
  H   H5825     1.0  0.91113  0.71275  0.26931  1.0000
  C   C3283     1.0  0.81186  0.92790  0.23800  1.0000
  C   C3284     1.0  0.79955  0.91883  0.23736  1.0000
  C   C3285     1.0  0.79667  0.90418  0.25004  1.0000
  C   C3286     1.0  0.80613  0.89857  0.26331  1.0000
  C   C3287     1.0  0.81888  0.90731  0.26371  1.0000
  C   C3288     1.0  0.82173  0.92210  0.25098  1.0000
  H   H5826     1.0  0.79207  0.92327  0.22718  1.0000
  H   H5827     1.0  0.78712  0.89719  0.24951  1.0000
  H   H5828     1.0  0.82626  0.90282  0.27396  1.0000
  H   H5829     1.0  0.83149  0.92903  0.25114  1.0000
  H   H5830     1.0  0.95630  0.72275  0.04626  1.0000
  C   C3289     1.0  0.93760  0.82678  0.27759  1.0000
  C   C3290     1.0  0.92861  0.84196  0.26854  1.0000
  C   C3291     1.0  0.91216  0.84247  0.26549  1.0000
  C   C3292     1.0  0.90486  0.82763  0.27103  1.0000
  C   C3293     1.0  0.91360  0.81253  0.28051  1.0000
  C   C3294     1.0  0.92992  0.81217  0.28398  1.0000
  H   H5831     1.0  0.93446  0.85330  0.26364  1.0000
  H   H5832     1.0  0.90551  0.85414  0.25819  1.0000
  H   H5833     1.0  0.90801  0.80103  0.28486  1.0000
  H   H5834     1.0  0.93687  0.80038  0.29096  1.0000
  C   C3295     1.0  0.92417  0.90911  0.22084  1.0000
  C   C3296     1.0  0.92999  0.91801  0.23023  1.0000
  C   C3297     1.0  0.92005  0.93410  0.23385  1.0000
  C   C3298     1.0  0.90404  0.94120  0.22844  1.0000
  C   C3299     1.0  0.89798  0.93207  0.21946  1.0000
  C   C3300     1.0  0.90816  0.91625  0.21545  1.0000
  H   H5835     1.0  0.94236  0.91271  0.23435  1.0000
  H   H5836     1.0  0.92487  0.94110  0.24074  1.0000
  H   H5837     1.0  0.88576  0.93745  0.21512  1.0000
  H   H5838     1.0  0.90384  0.90966  0.20783  1.0000
  C   C3301     1.0  0.94998  0.72578  0.13246  1.0000
  C   C3302     1.0  0.93800  0.74157  0.13106  1.0000
  C   C3303     1.0  0.92011  0.74183  0.13277  1.0000
  C   C3304     1.0  0.91397  0.72627  0.13661  1.0000
  C   C3305     1.0  0.92588  0.71047  0.13883  1.0000
  C   C3306     1.0  0.94383  0.71025  0.13649  1.0000
  N   N183      1.0  0.78681  0.95539  0.29244  1.0000
  H   H5839     1.0  0.87339  0.71289  0.26791  1.0000
  H   H5840     1.0  0.92133  0.69841  0.14176  1.0000
  H   H5841     1.0  0.95300  0.69796  0.13770  1.0000
  C   C3307     1.0  0.98346  0.80196  0.17176  1.0000
  C   C3308     1.0  0.97329  0.81435  0.18145  1.0000
  C   C3309     1.0  0.98076  0.82083  0.19172  1.0000
  H   H5842     1.0  0.75750  0.94970  0.24809  1.0000
  H   H5843     1.0  0.95971  0.81938  0.18057  1.0000
  C   C3310     1.0  0.90283  0.97123  0.17055  1.0000
  H   H5844     1.0  0.87062  0.97750  0.27146  1.0000
  H   H5845     1.0  0.99170  0.86439  0.16946  1.0000
  H   H5846     1.0  0.75250  0.98153  0.05621  1.0000
  H   H5847     1.0  0.93283  0.68666  0.34948  1.0000
  H   H5848     1.0  0.81984  0.69982  0.09098  1.0000
  C   C3311     1.0  0.78981  0.91894  0.15488  1.0000
  H   H5849     1.0  0.84974  0.80253  0.21699  1.0000
  H   H5850     1.0  0.75623  0.91850  0.20403  1.0000
  H   H5851     1.0  0.84783  0.73766  0.04726  1.0000
  H   H5852     1.0  0.93412  0.72918  0.05741  1.0000
  H   H5853     1.0  0.76389  0.79201  0.31353  1.0000
  H   H5854     1.0  0.82715  0.80942  0.21496  1.0000
  N   N184      1.0  0.93795  0.66380  0.33828  1.0000
  H   H5855     1.0  0.78139  0.90523  0.31763  1.0000
  H   H5856     1.0  0.96809  0.66154  0.35313  1.0000
  H   H5857     1.0  0.94239  0.75039  0.06886  1.0000
  C   C3312     1.0  0.74609  0.91581  0.15411  1.0000
  N   N185      1.0  0.75984  0.92405  0.17596  1.0000
  H   H5858     1.0  0.96211  0.78597  0.07637  1.0000
  H   H5859     1.0  0.76536  0.88938  0.19913  1.0000
  H   H5860     1.0  0.85334  0.73335  0.12785  1.0000
  H   H5861     1.0  0.77972  0.84545  0.32879  1.0000
  H   H5862     1.0  0.75873  0.82623  0.33331  1.0000
  H   H5863     1.0  0.78901  0.92215  0.28752  1.0000
  C   C3313     1.0  0.74700  0.95323  0.18663  1.0000
  H   H5864     1.0  0.81319  0.95994  0.28262  1.0000
  H   H5865     1.0  0.80094  0.66149  0.15509  1.0000
  C   C3314     1.0  0.81948  0.67691  0.11099  1.0000
  C   C3315     1.0  0.75194  0.95357  0.23616  1.0000
  H   H5866     1.0  0.77433  0.66098  0.19074  1.0000
  H   H5867     1.0  0.96753  0.69262  0.35132  1.0000
  H   H5868     1.0  0.83486  0.75680  0.25905  1.0000
  H   H5869     1.0  0.93081  0.79069  0.09069  1.0000
  C   C3316     1.0  0.91795  0.98135  0.11149  1.0000
  H   H5870     1.0  0.75629  0.96060  0.17698  1.0000
  C   C3317     1.0  0.95415  0.71068  0.22774  1.0000
  H   H5871     1.0  0.82124  0.76857  0.27468  1.0000
  H   H5872     1.0  0.96684  0.69834  0.16607  1.0000
  C   C3318     1.0  0.94412  0.67713  0.34408  1.0000
  C   C3319     1.0  0.94858  0.65802  0.19572  1.0000
  H   H5873     1.0  0.90317  0.68315  0.33472  1.0000
  C   C3320     1.0  0.98978  0.74727  0.43175  1.0000
  C   C3321     1.0  0.95604  0.76143  0.25900  1.0000
  C   C3322     1.0  0.94612  0.79974  0.24367  1.0000
  C   C3323     1.0  0.96434  0.74465  0.27079  1.0000
  H   H5874     1.0  0.78863  0.87844  0.21518  1.0000
  C   C3324     1.0  0.96751  0.74777  0.28749  1.0000
  H   H5875     1.0  0.94628  0.75779  0.25368  1.0000
  H   H5876     1.0  0.94799  0.77029  0.26773  1.0000
  H   H5877     1.0  0.92621  0.97111  0.10445  1.0000
  H   H5878     1.0  0.93584  0.79478  0.25426  1.0000
  H   H5879     1.0  0.95425  0.80532  0.24915  1.0000
  H   H5880     1.0  0.97521  0.75862  0.09178  1.0000
  H   H5881     1.0  0.99139  0.65308  0.29021  1.0000
  S   S754      1.0  0.98501  0.71195  0.36579  1.0000
  H   H5882     1.0  0.93018  0.82520  0.23838  1.0000
  H   H5883     1.0  0.97041  0.73511  0.29643  1.0000
  H   H5884     1.0  0.97877  0.75407  0.28515  1.0000
  H   H5885     1.0  0.95576  0.75586  0.29415  1.0000
  N   N186      1.0  0.84524  0.69336  0.09821  1.0000
  H   H5886     1.0  0.97641  0.78579  0.29432  1.0000
  C   C3325     1.0  0.85691  0.67708  0.10606  1.0000
  C   C3326     1.0  0.82965  0.68816  0.09518  1.0000
  C   C3327     1.0  0.83846  0.70585  0.11045  1.0000
  C   C3328     1.0  0.85219  0.71371  0.11458  1.0000
  H   H5887     1.0  0.98487  0.79999  0.23208  1.0000
  H   H5888     1.0  0.88996  0.65171  0.36564  1.0000
  C   C3329     1.0  0.87683  0.67679  0.10243  1.0000
  H   H5889     1.0  0.83296  0.85708  0.29149  1.0000
  H   H5890     1.0  0.74952  0.79900  0.26268  1.0000
  H   H5891     1.0  0.76196  0.94829  0.22563  1.0000
  H   H5892     1.0  0.86682  0.70511  0.08196  1.0000
  H   H5893     1.0  0.85229  0.67397  0.12039  1.0000
  C   C3330     1.0  0.92579  0.94476  0.17947  1.0000
  C   C3331     1.0  0.84429  0.71834  0.07105  1.0000
  H   H5894     1.0  0.82808  0.71659  0.10573  1.0000
  H   H5895     1.0  0.83177  0.69939  0.12321  1.0000
  H   H5896     1.0  0.94886  0.78038  0.40445  1.0000
  C   C3332     1.0  0.98625  0.71924  0.08303  1.0000
  H   H5897     1.0  0.83966  0.72852  0.07896  1.0000
  H   H5898     1.0  0.81383  0.68394  0.12181  1.0000
  C   C3333     1.0  0.96040  0.68487  0.36298  1.0000
  H   H5899     1.0  0.93696  0.95025  0.17077  1.0000
  C   C3334     1.0  0.81332  0.65276  0.15206  1.0000
  H   H5900     1.0  0.78525  0.83200  0.31293  1.0000
  H   H5901     1.0  0.99289  0.68102  0.17744  1.0000
  N   N187      1.0  0.96992  0.75826  0.40846  1.0000
  Fe  Fe375     1.0  0.86471  0.97140  0.22802  1.0000
  H   H5902     1.0  0.86043  0.71626  0.04543  1.0000
  C   C3335     1.0  0.84716  0.98160  0.29071  1.0000
  N   N188      1.0  0.86439  0.88518  0.22512  1.0000
  C   C3336     1.0  0.87810  0.86901  0.22268  1.0000
  C   C3337     1.0  0.84665  0.88035  0.23076  1.0000
  C   C3338     1.0  0.86571  0.89813  0.20816  1.0000
  C   C3339     1.0  0.86716  0.89313  0.23886  1.0000
  C   C3340     1.0  0.86720  0.88114  0.25702  1.0000
  C   C3341     1.0  0.89738  0.87071  0.22009  1.0000
  C   C3342     1.0  0.85152  0.91506  0.20762  1.0000
  C   C3343     1.0  0.84051  0.87397  0.21726  1.0000
  C   C3344     1.0  0.82388  0.86675  0.22546  1.0000
  C   C3345     1.0  0.87286  0.88951  0.26900  1.0000
  C   C3346     1.0  0.90983  0.85370  0.21715  1.0000
  C   C3347     1.0  0.85398  0.92691  0.18972  1.0000
  H   H5903     1.0  0.87732  0.86451  0.21112  1.0000
  H   H5904     1.0  0.87566  0.85802  0.23375  1.0000
  H   H5905     1.0  0.84641  0.86987  0.24250  1.0000
  H   H5906     1.0  0.83642  0.89137  0.23485  1.0000
  H   H5907     1.0  0.86554  0.89203  0.19739  1.0000
  H   H5908     1.0  0.87848  0.90225  0.20467  1.0000
  H   H5909     1.0  0.87945  0.89828  0.23446  1.0000
  H   H5910     1.0  0.85666  0.90461  0.24102  1.0000
  H   H5911     1.0  0.87620  0.86847  0.25633  1.0000
  H   H5912     1.0  0.85387  0.87867  0.26319  1.0000
  H   H5913     1.0  0.90090  0.88084  0.20864  1.0000
  H   H5914     1.0  0.89984  0.87392  0.23162  1.0000
  H   H5915     1.0  0.85223  0.92253  0.21703  1.0000
  H   H5916     1.0  0.83819  0.91228  0.21059  1.0000
  H   H5917     1.0  0.83766  0.88479  0.20628  1.0000
  H   H5918     1.0  0.85049  0.86345  0.21203  1.0000
  H   H5919     1.0  0.81338  0.87660  0.23130  1.0000
  H   H5920     1.0  0.81929  0.86300  0.21540  1.0000
  H   H5921     1.0  0.82649  0.85503  0.23568  1.0000
  H   H5922     1.0  0.87250  0.88080  0.28196  1.0000
  H   H5923     1.0  0.88647  0.89160  0.26370  1.0000
  H   H5924     1.0  0.86396  0.90213  0.27052  1.0000
  H   H5925     1.0  0.90934  0.85076  0.20469  1.0000
  H   H5926     1.0  0.92343  0.85471  0.21674  1.0000
  H   H5927     1.0  0.90623  0.84292  0.22790  1.0000
  H   H5928     1.0  0.85300  0.92032  0.17967  1.0000
  H   H5929     1.0  0.84355  0.93881  0.18977  1.0000
  H   H5930     1.0  0.86687  0.93081  0.18641  1.0000
  N   N189      1.0  0.92176  0.70740  0.23309  1.0000
  H   H5931     1.0  0.96039  0.77622  0.43870  1.0000
  C   C3348     1.0  0.93730  0.70658  0.24071  1.0000
  C   C3349     1.0  0.90701  0.70297  0.24798  1.0000
  C   C3350     1.0  0.91601  0.72540  0.22286  1.0000
  C   C3351     1.0  0.92428  0.72906  0.20317  1.0000
  H   H5932     1.0  0.97664  0.85253  0.16709  1.0000
  C   C3352     1.0  0.92154  0.74848  0.19544  1.0000
  H   H5933     1.0  0.98918  0.76531  0.25835  1.0000
  C   C3353     1.0  0.94129  0.73336  0.39482  1.0000
  C   C3354     1.0  0.95929  0.78354  0.42540  1.0000
  H   H5934     1.0  0.93406  0.71605  0.24935  1.0000
  H   H5935     1.0  0.89513  0.70366  0.24303  1.0000
  H   H5936     1.0  0.90166  0.72832  0.22354  1.0000
  H   H5937     1.0  0.91818  0.73535  0.22891  1.0000
  H   H5938     1.0  0.80487  0.74002  0.21869  1.0000
  H   H5939     1.0  0.98888  0.83040  0.14602  1.0000
  H   H5940     1.0  0.90029  0.70311  0.21451  1.0000
  C   C3355     1.0  0.95301  0.74012  0.06389  1.0000
  H   H5941     1.0  0.89791  0.72858  0.25542  1.0000
  C   C3356     1.0  0.99227  0.78854  0.23975  1.0000
  H   H5942     1.0  0.92793  0.75513  0.20175  1.0000
  H   H5943     1.0  0.92733  0.75056  0.18134  1.0000
  C   C3357     1.0  0.81742  0.98455  0.18053  1.0000
  H   H5944     1.0  0.92530  0.95564  0.27129  1.0000
  C   C3358     1.0  0.80613  0.94899  0.28604  1.0000
  H   H5945     1.0  0.98062  0.71249  0.22766  1.0000
  Fe  Fe376     1.0  0.99163  0.84358  0.21987  1.0000
  H   H5946     1.0  0.82995  0.82722  0.34407  1.0000
  C   C3359     1.0  0.85248  0.96472  0.14838  1.0000
  C   C3360     1.0  0.97933  0.78178  0.30756  1.0000
  C   C3361     1.0  0.85565  0.72582  0.05407  1.0000
  H   H5947     1.0  0.92341  0.94838  0.19228  1.0000
  H   H5948     1.0  0.93195  0.76762  0.09725  1.0000
  H   H5949     1.0  0.86703  0.72945  0.05665  1.0000
  C   C3362     1.0  0.75864  0.78705  0.26752  1.0000
  H   H5950     1.0  0.81245  0.88820  0.31118  1.0000
  C   C3363     1.0  0.77135  0.82121  0.33777  1.0000
  H   H5951     1.0  0.96724  0.83404  0.09167  1.0000
  S   S755      1.0  0.96076  0.67636  0.27837  1.0000
  C   C3364     1.0  0.82892  0.65735  0.15229  1.0000
  H   H5952     1.0  0.93712  0.69562  0.21139  1.0000
  C   C3365     1.0  0.94458  0.79942  0.42738  1.0000
  Fe  Fe377     1.0  0.75244  0.85285  0.28381  1.0000
  H   H5953     1.0  0.98289  0.81265  0.31108  1.0000
  H   H5954     1.0  0.93231  0.72446  0.40217  1.0000
  C   C3366     1.0  0.95503  0.77187  0.41526  1.0000
  H   H5955     1.0  0.80687  0.81111  0.32829  1.0000
  H   H5956     1.0  0.78772  0.76649  0.22995  1.0000
  H   H5957     1.0  0.97791  0.84089  0.30121  1.0000
  H   H5958     1.0  0.84848  0.83678  0.29563  1.0000
  H   H5959     1.0  0.91271  0.94768  0.15877  1.0000
  C   C3367     1.0  0.97481  0.67824  0.29114  1.0000
  C   C3368     1.0  0.94983  0.73814  0.40729  1.0000
  H   H5960     1.0  0.78045  0.79974  0.25807  1.0000
  H   H5961     1.0  0.85602  0.66570  0.10123  1.0000
  H   H5962     1.0  0.82544  0.75287  0.23578  1.0000
  C   C3369     1.0  0.96894  0.70879  0.23714  1.0000
  H   H5963     1.0  0.79174  0.67294  0.18111  1.0000
  C   C3370     1.0  0.80150  0.92825  0.13934  1.0000
  H   H5964     1.0  0.79785  0.97662  0.26025  1.0000
  C   C3371     1.0  0.90334  0.67542  0.22458  1.0000
  H   H5965     1.0  0.83374  0.72450  0.13576  1.0000
  Fe  Fe378     1.0  0.74525  0.98358  0.11291  1.0000
  H   H5966     1.0  0.84582  0.96051  0.16198  1.0000
  C   C3372     1.0  0.91100  0.97311  0.13026  1.0000
  H   H5967     1.0  0.99254  0.73935  0.20625  1.0000
  H   H5968     1.0  0.80895  0.84117  0.29763  1.0000
  C   C3373     1.0  0.98514  0.76597  0.39705  1.0000
  Fe  Fe379     1.0  0.74603  0.88553  0.25683  1.0000
  Fe  Fe380     1.0  0.77462  0.87892  0.27760  1.0000
  H   H5969     1.0  0.84040  0.82771  0.27186  1.0000
  C   C3374     1.0  0.78342  0.97837  0.26409  1.0000
  C   C3375     1.0  0.82074  0.83447  0.30320  1.0000
  H   H5970     1.0  0.83286  0.71564  0.06768  1.0000
  H   H5971     1.0  0.91379  0.66358  0.22510  1.0000
  H   H5972     1.0  0.81794  0.73280  0.27015  1.0000
  H   H5973     1.0  0.92631  0.66391  0.31678  1.0000
  C   C3376     1.0  0.91424  0.68797  0.32513  1.0000
  H   H5974     1.0  0.91063  0.68933  0.25504  1.0000
  H   H5975     1.0  0.82334  0.97768  0.19147  1.0000
  H   H5976     1.0  0.94396  0.74440  0.03973  1.0000
  H   H5977     1.0  0.86993  0.98161  0.13362  1.0000
  H   H5978     1.0  0.80560  0.96258  0.31532  1.0000
  H   H5979     1.0  0.75613  0.91995  0.14270  1.0000
  C   C3377     1.0  0.83305  0.82628  0.33015  1.0000
  H   H5980     1.0  0.94558  0.67909  0.17380  1.0000
  H   H5981     1.0  0.99212  0.80369  0.25841  1.0000
  C   C3378     1.0  0.98884  0.86367  0.29419  1.0000
  H   H5982     1.0  0.97552  0.77656  0.37256  1.0000
  H   H5983     1.0  0.95953  0.74780  0.09043  1.0000
  C   C3379     1.0  0.78474  0.83199  0.32667  1.0000
  S   S756      1.0  0.78728  0.97375  0.15326  1.0000
  S   S757      1.0  0.87862  0.67987  0.15102  1.0000
  C   C3380     1.0  0.90095  0.71466  0.26165  1.0000
  H   H5984     1.0  0.94074  0.69351  0.24901  1.0000
  C   C3381     1.0  0.86383  0.97757  0.14744  1.0000
  H   H5985     1.0  0.96814  0.78791  0.31668  1.0000
  H   H5986     1.0  0.80534  0.96353  0.18125  1.0000
  S   S758      1.0  0.85421  0.96745  0.20660  1.0000
  H   H5987     1.0  0.84337  0.80487  0.31584  1.0000
  H   H5988     1.0  0.84396  0.83323  0.32399  1.0000
  H   H5989     1.0  0.96906  0.67954  0.37256  1.0000
  C   C3382     1.0  0.95743  0.78532  0.23396  1.0000
  H   H5990     1.0  0.88519  0.95717  0.15423  1.0000
  H   H5991     1.0  0.99082  0.74997  0.23821  1.0000
  H   H5992     1.0  0.91820  0.72299  0.19600  1.0000
  C   C3383     1.0  0.93028  0.67299  0.32249  1.0000
  C   C3384     1.0  0.88457  0.70998  0.27452  1.0000
  H   H5993     1.0  0.94853  0.78027  0.22882  1.0000
  H   H5994     1.0  0.94613  0.81955  0.21984  1.0000
  C   C3385     1.0  0.98392  0.83472  0.10861  1.0000
  H   H5995     1.0  0.82340  0.82093  0.30129  1.0000
  C   C3386     1.0  0.82410  0.86342  0.32563  1.0000
  H   H5996     1.0  0.97125  0.74772  0.23358  1.0000
  H   H5997     1.0  0.84960  0.84679  0.26482  1.0000
  H   H5998     1.0  0.98234  0.71328  0.07407  1.0000
  C   C3387     1.0  0.98024  0.77661  0.25219  1.0000
  C   C3388     1.0  0.84332  0.72874  0.12393  1.0000
  H   H5999     1.0  0.79442  0.93418  0.12851  1.0000
  S   S759      1.0  0.98861  0.87264  0.21308  1.0000
  H   H6000     1.0  0.96563  0.79200  0.22237  1.0000
  C   C3389     1.0  0.83600  0.80349  0.22429  1.0000
  Fe  Fe381     1.0  0.88348  0.66972  0.17803  1.0000
  H   H6001     1.0  0.83646  0.73973  0.11526  1.0000
  H   H6002     1.0  0.99119  0.71277  0.16064  1.0000
  H   H6003     1.0  0.95132  0.72674  0.38521  1.0000
  H   H6004     1.0  0.91095  0.75409  0.13120  1.0000
  H   H6005     1.0  0.94258  0.75355  0.12838  1.0000
  H   H6006     1.0  0.98102  0.73255  0.45760  1.0000
  C   C3390     1.0  0.97133  0.69320  0.29811  1.0000
  H   H6007     1.0  0.75222  0.94823  0.19869  1.0000
  H   H6008     1.0  0.76645  0.93147  0.28786  1.0000
  C   C3391     1.0  0.77799  0.96214  0.27703  1.0000
  S   S760      1.0  0.98778  0.65986  0.23787  1.0000
  C   C3392     1.0  0.83043  0.73442  0.28972  1.0000
  C   C3393     1.0  0.85477  0.70163  0.08080  1.0000
  H   H6009     1.0  0.97654  0.73739  0.26396  1.0000
  H   H6010     1.0  0.83378  0.81198  0.23374  1.0000
  H   H6011     1.0  0.95900  0.72023  0.16949  1.0000
  H   H6012     1.0  0.97365  0.76899  0.20692  1.0000
  H   H6013     1.0  0.83535  0.77748  0.22365  1.0000
  C   C3394     1.0  0.77327  0.93178  0.16160  1.0000
  H   H6014     1.0  0.97432  0.74166  0.38997  1.0000
  C   C3395     1.0  0.97602  0.74416  0.42307  1.0000
  H   H6015     1.0  0.80141  0.82249  0.34566  1.0000
  C   C3396     1.0  0.85765  0.80047  0.33602  1.0000
  S   S761      1.0  0.75300  0.90168  0.27189  1.0000
  C   C3397     1.0  0.96654  0.70728  0.17453  1.0000
  H   H6016     1.0  0.80115  0.85324  0.33795  1.0000
  H   H6017     1.0  0.98064  0.76752  0.31165  1.0000
  H   H6018     1.0  0.81278  0.79403  0.25465  1.0000
  H   H6019     1.0  0.98492  0.84836  0.10253  1.0000
  C   C3398     1.0  0.83294  0.78536  0.23365  1.0000
  C   C3399     1.0  0.83586  0.84303  0.29152  1.0000
  N   N190      1.0  0.89022  0.98070  0.15862  1.0000
  H   H6020     1.0  0.83004  0.74328  0.29828  1.0000
  H   H6021     1.0  0.77639  0.92449  0.19319  1.0000
  H   H6022     1.0  0.84067  0.94226  0.29189  1.0000
  C   C3400     1.0  0.94081  0.66778  0.18183  1.0000
  H   H6023     1.0  0.93847  0.72384  0.20049  1.0000
  H   H6024     1.0  0.87960  0.68775  0.10636  1.0000
  H   H6025     1.0  0.75858  0.91530  0.31844  1.0000
  C   C3401     1.0  0.92630  0.66338  0.17876  1.0000
  H   H6026     1.0  0.86050  0.95319  0.14319  1.0000
  H   H6027     1.0  0.93157  0.68070  0.23020  1.0000
  H   H6028     1.0  0.76422  0.89881  0.16915  1.0000
  C   C3402     1.0  0.78387  0.97025  0.30156  1.0000
  H   H6029     1.0  0.83583  0.86197  0.31520  1.0000
  H   H6030     1.0  0.96085  0.70382  0.29467  1.0000
  H   H6031     1.0  0.89645  0.67656  0.23798  1.0000
  C   C3403     1.0  0.81417  0.78617  0.24478  1.0000
  H   H6032     1.0  0.94947  0.77661  0.06721  1.0000
  H   H6033     1.0  0.79563  0.89900  0.20895  1.0000
  H   H6034     1.0  0.97270  0.83490  0.11984  1.0000
  C   C3404     1.0  0.79112  0.96611  0.31836  1.0000
  H   H6035     1.0  0.99025  0.82667  0.08372  1.0000
  H   H6036     1.0  0.76912  0.82203  0.35160  1.0000
  H   H6037     1.0  0.82628  0.84875  0.26752  1.0000
  H   H6038     1.0  0.79152  0.97875  0.33878  1.0000
  H   H6039     1.0  0.94049  0.67849  0.31211  1.0000
  H   H6040     1.0  0.88253  0.67745  0.08840  1.0000
  C   C3405     1.0  0.81131  0.75742  0.24098  1.0000
  C   C3406     1.0  0.98687  0.86010  0.15989  1.0000
  C   C3407     1.0  0.90805  0.69618  0.30812  1.0000
  C   C3408     1.0  0.92619  0.69348  0.22252  1.0000
  C   C3409     1.0  0.77551  0.89734  0.19616  1.0000
  H   H6041     1.0  0.80278  0.66470  0.20778  1.0000
  H   H6042     1.0  0.89535  0.97121  0.28011  1.0000
  H   H6043     1.0  0.97150  0.78835  0.41898  1.0000
  H   H6044     1.0  0.93361  0.74516  0.38780  1.0000
  C   C3410     1.0  0.80715  0.97650  0.17469  1.0000
  C   C3411     1.0  0.96323  0.74991  0.39740  1.0000
  H   H6045     1.0  0.90740  0.75435  0.19710  1.0000
  C   C3412     1.0  0.80780  0.75307  0.21241  1.0000
  H   H6046     1.0  0.77808  0.94127  0.16599  1.0000
  C   C3413     1.0  0.94651  0.73375  0.05097  1.0000
  H   H6047     1.0  0.77588  0.80741  0.33655  1.0000
  H   H6048     1.0  0.76360  0.96554  0.28154  1.0000
  C   C3414     1.0  0.95562  0.67001  0.35803  1.0000
  C   C3415     1.0  0.81718  0.74245  0.27796  1.0000
  H   H6049     1.0  0.85934  0.69206  0.07209  1.0000
  H   H6050     1.0  0.80398  0.74442  0.28640  1.0000
  H   H6051     1.0  0.79016  0.98092  0.29293  1.0000
  C   C3416     1.0  0.77775  0.94139  0.30446  1.0000
  H   H6052     1.0  0.85561  0.80224  0.34954  1.0000
  C   C3417     1.0  0.78418  0.89272  0.21185  1.0000
  H   H6053     1.0  0.79737  0.66417  0.11775  1.0000
  H   H6054     1.0  0.90316  0.97681  0.25693  1.0000
  C   C3418     1.0  0.81626  0.88280  0.32399  1.0000
  H   H6055     1.0  0.84386  0.73162  0.28188  1.0000
  S   S762      1.0  0.96534  0.66480  0.20065  1.0000
  C   C3419     1.0  0.87798  0.96931  0.15864  1.0000
  H   H6056     1.0  0.94768  0.80723  0.43521  1.0000
  H   H6057     1.0  0.91868  0.70150  0.29819  1.0000
  S   S763      1.0  0.80109  0.88123  0.27973  1.0000
  C   C3420     1.0  0.80437  0.67216  0.10619  1.0000
  C   C3421     1.0  0.80208  0.76513  0.22542  1.0000
  H   H6058     1.0  0.83916  0.92831  0.27840  1.0000
  C   C3422     1.0  0.98505  0.76475  0.21343  1.0000
  H   H6059     1.0  0.95696  0.75992  0.38746  1.0000
  H   H6060     1.0  0.99132  0.77598  0.21115  1.0000
  C   C3423     1.0  0.98094  0.69428  0.30995  1.0000
  H   H6061     1.0  0.80519  0.79401  0.23611  1.0000
  H   H6062     1.0  0.97269  0.69516  0.24382  1.0000
  H   H6063     1.0  0.75806  0.78652  0.28144  1.0000
  H   H6064     1.0  0.78455  0.65467  0.21932  1.0000
  H   H6065     1.0  0.77464  0.67982  0.19845  1.0000
  H   H6066     1.0  0.76412  0.94719  0.31027  1.0000
  H   H6067     1.0  0.95982  0.70235  0.18783  1.0000
  H   H6068     1.0  0.97825  0.81300  0.10133  1.0000
  C   C3424     1.0  0.80306  0.82434  0.33133  1.0000
  H   H6069     1.0  0.97989  0.77754  0.05194  1.0000
  H   H6070     1.0  0.80575  0.93860  0.14302  1.0000
  H   H6071     1.0  0.81333  0.91885  0.13473  1.0000
  H   H6072     1.0  0.97646  0.87145  0.30026  1.0000
  C   C3425     1.0  0.83562  0.93080  0.29177  1.0000
  H   H6073     1.0  0.98972  0.84303  0.31650  1.0000
  H   H6074     1.0  0.91747  0.69845  0.32949  1.0000
  H   H6075     1.0  0.77708  0.78834  0.24330  1.0000
  C   C3426     1.0  0.96746  0.75751  0.08268  1.0000
  H   H6076     1.0  0.77477  0.89690  0.22330  1.0000
  H   H6077     1.0  0.86241  0.78643  0.33587  1.0000
  H   H6078     1.0  0.84206  0.91935  0.30032  1.0000
  C   C3427     1.0  0.98847  0.66462  0.29558  1.0000
  Fe  Fe382     1.0  0.98595  0.74686  0.12661  1.0000
  C   C3428     1.0  0.92294  0.96953  0.27203  1.0000
  C   C3429     1.0  0.82118  0.75984  0.26613  1.0000
  C   C3430     1.0  0.81581  0.93374  0.29828  1.0000
  H   H6079     1.0  0.80840  0.94449  0.27367  1.0000
  H   H6080     1.0  0.98511  0.85091  0.13204  1.0000
  C   C3431     1.0  0.97970  0.82658  0.09552  1.0000
  Fe  Fe383     1.0  0.98976  0.77694  0.14044  1.0000
  H   H6081     1.0  0.96600  0.75913  0.04541  1.0000
  H   H6082     1.0  0.82208  0.75164  0.20698  1.0000
  C   C3432     1.0  0.99309  0.73279  0.44738  1.0000
  H   H6083     1.0  0.80519  0.77788  0.21833  1.0000
  H   H6084     1.0  0.81175  0.92149  0.29895  1.0000
  H   H6085     1.0  0.79761  0.91326  0.16514  1.0000
  H   H6086     1.0  0.78503  0.75984  0.26651  1.0000
  H   H6087     1.0  0.79051  0.77357  0.27732  1.0000
  H   H6088     1.0  0.96461  0.74108  0.43345  1.0000
  S   S764      1.0  0.76980  0.86436  0.25977  1.0000
  H   H6089     1.0  0.93916  0.74452  0.41654  1.0000
  H   H6090     1.0  0.78649  0.90843  0.15067  1.0000
  H   H6091     1.0  0.97119  0.79197  0.38637  1.0000
  H   H6092     1.0  0.84281  0.77973  0.24190  1.0000
  H   H6093     1.0  0.80073  0.75855  0.20154  1.0000
  H   H6094     1.0  0.85982  0.70372  0.12338  1.0000
  N   N191      1.0  0.80909  0.76894  0.25366  1.0000
  H   H6095     1.0  0.91623  0.69009  0.20126  1.0000
  C   C3433     1.0  0.79057  0.77166  0.26418  1.0000
  H   H6096     1.0  0.90405  0.68645  0.30329  1.0000
  S   S765      1.0  0.99444  0.74821  0.15041  1.0000
  H   H6097     1.0  0.89380  0.67382  0.21763  1.0000
  C   C3434     1.0  0.77718  0.78757  0.25704  1.0000
  C   C3435     1.0  0.95489  0.77531  0.07883  1.0000
  H   H6098     1.0  0.80252  0.86090  0.31536  1.0000
  C   C3436     1.0  0.98986  0.84446  0.30256  1.0000
  H   H6099     1.0  0.78554  0.89348  0.18500  1.0000
  H   H6100     1.0  0.94871  0.66255  0.37000  1.0000
  N   N192      1.0  0.81713  0.83471  0.32225  1.0000
  C   C3437     1.0  0.81039  0.85311  0.32521  1.0000
  H   H6101     1.0  0.95889  0.70180  0.21845  1.0000
  H   H6102     1.0  0.83132  0.79860  0.33750  1.0000
  H   H6103     1.0  0.94851  0.69348  0.36880  1.0000
  H   H6104     1.0  0.94439  0.76578  0.42425  1.0000
  H   H6105     1.0  0.98419  0.71886  0.18162  1.0000
  H   H6106     1.0  0.80460  0.88505  0.33447  1.0000
  H   H6107     1.0  0.76152  0.98277  0.25114  1.0000
  C   C3438     1.0  0.77121  0.91122  0.30975  1.0000
  C   C3439     1.0  0.91101  0.69148  0.21495  1.0000
  C   C3440     1.0  0.76691  0.91690  0.19250  1.0000
  C   C3441     1.0  0.77649  0.92670  0.29602  1.0000
  H   H6108     1.0  0.92944  0.93039  0.18134  1.0000
  H   H6109     1.0  0.82611  0.88973  0.32498  1.0000
  C   C3442     1.0  0.98086  0.78093  0.38167  1.0000
  H   H6110     1.0  0.78403  0.93527  0.31576  1.0000
  H   H6111     1.0  0.91441  0.97746  0.16723  1.0000
  H   H6112     1.0  0.95491  0.73574  0.27489  1.0000
  H   H6113     1.0  0.82855  0.85869  0.33818  1.0000
  H   H6114     1.0  0.92490  0.97028  0.28484  1.0000
  C   C3443     1.0  0.83809  0.84147  0.27276  1.0000
  H   H6115     1.0  0.98911  0.86582  0.28009  1.0000
  H   H6116     1.0  0.76966  0.90129  0.30334  1.0000
  C   C3444     1.0  0.78294  0.66831  0.19339  1.0000
  C   C3445     1.0  0.99403  0.68031  0.31506  1.0000
  H   H6117     1.0  0.97893  0.73794  0.04739  1.0000
  C   C3446     1.0  0.77589  0.98193  0.24776  1.0000
  C   C3447     1.0  0.79368  0.65700  0.20667  1.0000
  H   H6118     1.0  0.95177  0.68486  0.33277  1.0000
  H   H6119     1.0  0.97240  0.78335  0.26288  1.0000
  C   C3448     1.0  0.97896  0.75753  0.23309  1.0000
  S   S766      1.0  0.75423  0.82397  0.29083  1.0000
  H   H6120     1.0  0.95649  0.72587  0.41465  1.0000
  S   S767      1.0  0.75868  0.86624  0.30177  1.0000
  H   H6121     1.0  0.89670  0.70702  0.31018  1.0000
  H   H6122     1.0  0.85381  0.97419  0.30152  1.0000
  H   H6123     1.0  0.76727  0.93944  0.15037  1.0000
  H   H6124     1.0  0.89664  0.97239  0.18425  1.0000
  H   H6125     1.0  0.94454  0.77809  0.10563  1.0000
  H   H6126     1.0  0.96489  0.71719  0.24691  1.0000
  H   H6127     1.0  0.76270  0.97175  0.02798  1.0000
  C   C3449     1.0  0.96997  0.74733  0.05516  1.0000
  H   H6128     1.0  0.95489  0.72921  0.07497  1.0000
  C   C3450     1.0  0.90945  0.95139  0.17154  1.0000
  H   H6129     1.0  0.80934  0.66445  0.09583  1.0000
  H   H6130     1.0  0.91434  0.66724  0.35791  1.0000
  H   H6131     1.0  0.84223  0.97109  0.14060  1.0000
  C   C3451     1.0  0.75360  0.91028  0.17094  1.0000
  H   H6132     1.0  0.97493  0.72181  0.09364  1.0000
  H   H6133     1.0  0.98233  0.73191  0.41822  1.0000
  H   H6134     1.0  0.87110  0.96496  0.17213  1.0000
  C   C3452     1.0  0.98511  0.70865  0.17439  1.0000
  H   H6135     1.0  0.76958  0.97586  0.30474  1.0000
  H   H6136     1.0  0.99170  0.77112  0.40455  1.0000
  H   H6137     1.0  0.92255  0.96618  0.13605  1.0000
  H   H6138     1.0  0.98597  0.75972  0.43611  1.0000
  H   H6139     1.0  0.74902  0.96794  0.23228  1.0000
  Fe  Fe384     1.0  0.99344  0.86994  0.23991  1.0000
  H   H6140     1.0  0.93264  0.97572  0.26158  1.0000
  H   H6141     1.0  0.75107  0.88955  0.14931  1.0000
  C   C3453     1.0  0.90432  0.97833  0.26971  1.0000
  C   C3454     1.0  0.74855  0.97481  0.03385  1.0000
  H   H6142     1.0  0.98096  0.87177  0.15120  1.0000
  C   C3455     1.0  0.98920  0.76580  0.05693  1.0000
  C   C3456     1.0  0.99304  0.73589  0.07290  1.0000
  S   S768      1.0  0.99441  0.73049  0.32420  1.0000
  H   H6143     1.0  0.99394  0.79824  0.36028  1.0000
  H   H6144     1.0  0.74452  0.96257  0.04155  1.0000
